# total energy = -340891.1803488912 ev
CRYSTAL
PRIMVEC
9.04013320745861 0.00000000000000 0.00000000000000
0.00000000000000 9.04013320745861 0.00000000000000
0.00000000000000 0.00000000000000 13.23114873978720
PRIMCOORD
 96 1
Ni 6.559873230305246 2.074746734737211 11.757503249761115 -0.33328721770148406 -0.43057981820707136 -1.9531909669753202
Ni 4.558252133192168 0.1816578610213781 6.016243011037742 -0.3603336802963149 -0.16955628306700476 -0.5672462925245908
Ni 2.7704121064877363 1.5294639791169207 4.584976575019893 0.7463295412454243 -0.7160815409941603 1.987638092909596
Ni 3.5720911205201533 4.212060231496505 5.1874833739286945 -0.35935640398471014 0.18622808729573087 -0.5378264446015769
Ni 5.31079802316881 4.4372137894970844 2.8510482867918223 -2.174365231328933 -0.39858912423308773 0.4228824495628136
Ni 7.3054582177017675 6.2455025975472696 2.4010702316399053 1.1419007045877947 -1.4624931004304296 0.7009562553169476
Ni 5.1725382256878465 4.219382739405462 11.310528326865192 0.2326917780749089 0.7179455907860925 1.2040005592423328
Ni 5.859045942485566 7.688895468267678 12.191974764399166 -1.263689490462533 0.9187024678256178 0.4979427210327618
Ni 1.6782103311341667 6.656747297900773 0.41946308546465444 1.2048338537769057 0.6199554499928485 -0.6189840872185146
Ni 2.7613358127339183 1.7292690035660014 0.59786378648653 0.2307786202125961 -2.0065233598498735 -1.0001701854838065
Ni 0.5411116381521514 9.223015115993379 4.73897434042518 -1.0712529603632455 -0.5498754053463111 0.2577322659833045
Ni 8.490068234839724 2.055590692442052 1.4845083006225386 0.21258780823618229 1.7363477258968933 -0.5272656383665952
Ni 6.729484209796406 0.8406456042679306 4.7707684889632045 1.1519758294356097 -1.2125091109339763 -0.15030000594055407
Ni 0.6896084824924997 7.605355597173029 2.5847449463828736 -0.08705292505545008 -1.0579716698733068 -0.05472567367765414
Ni 7.583053588516984 3.887465208065653 3.9013626048661947 0.5795335945323762 -0.17956378790167785 -0.7593033277972729
Ni 7.749789805643889 3.74949469484776 12.859961960267157 0.54990934390804 0.4057972119457527 -0.11287220011139915
Ni 7.950101077553342 8.73000241065653 6.6832918410774 -0.2677544261059969 0.2861388421504556 0.6792682288205527
Ni 6.822281177309293 0.6700944509217918 0.43757137631950715 0.190739087792207 -0.5193628385797507 -0.4400764448435969
Ni 1.7935443507668412 6.544062037301832 9.134071053259255 1.0372694043289492 0.5818175054705463 0.012409686518262499
Ni 9.339000025217961 4.8279193071726265 1.2704641623371646 -1.25711286568628 -0.694850399529526 2.0446749312189305
Ni 6.201404827695553 1.764335680330004 6.965233707945242 0.4395120876996947 0.27790874093117945 0.3777174229904011
Ni 3.5751014848827243 4.448748999486996 0.47614020069329943 -0.38371606377599726 0.4570102444844581 -0.09677580877016882
Ni 5.794192026758586 5.559555369009248 4.879872952793333 0.8912487424900392 0.21837896099666262 0.5779721635825271
Ni 5.2889480211738125 2.943856102464574 9.273592853337862 -0.2025011134241416 -0.474911293134595 -0.051972279302233075
P 0.31473495012677954 5.526251518223328 12.52676253803662 -1.475270454700756 0.49566703762470765 -2.4217364657928875
P 4.205352452646572 5.975808303167149 12.27722231665925 0.19156158369350235 1.1621291158195275 0.09772557427794783
P 2.565625968633921 8.376985208379061 1.4833177150773413 -0.8248469180260376 0.7710252442198914 -1.374333315464046
P 6.2963623870482435 7.810512380488902 5.532379824533798 -0.17430022550989335 -0.8293574043018813 1.4333362763608153
P 4.691693539666374 1.0580300717784394 12.689095306271607 0.8004921433307568 0.2968472297068952 -0.1816173279965969
P 4.007328334442016 6.341499772220366 8.213024312150983 -0.1823997146885762 -1.0784857306662587 -1.4295169026147252
P 4.830007577946662 0.8213458238545588 3.674792457989895 -1.2002500910609653 -0.4256697824999636 0.7364765597107445
P 0.22567969375403774 5.482506313567228 3.4553802885979303 -0.7387987800860178 -0.6619526203602405 -0.8291103212880817
Ni 1.3981018032835302 0.9956893130868792 2.6731023044709596 0.19331944692487352 1.1309303216192201 -0.7077156855279683
Ni 1.4380501519868372 6.582871329219301 4.677806087012375 2.3955446378888676 -0.29993666726549634 1.1027793131063008
Ni 5.912102484359227 5.386780342890759 9.18450776452549 0.9963860358510259 1.3655406568730806 0.3722029209300751
Ni 8.850706269422439 2.2400726910816497 10.498307613483846 -0.3610569316155846 1.013015416877591 -1.0178408632906921
Ni 2.1342579317306187 5.316185942568486 7.042768218541226 0.5787468369650226 -1.001150804229521 -0.30552958797224156
Ni 0.7177178727296716 9.116160741321941 8.978869142108941 -0.6812996574282847 -1.1933243104754094 1.422234767131015
Ni 1.67901490299083 1.1795746629338952 11.587019897414134 -0.5484528139671716 -1.7026809297720675 0.1614598792121155
Ni 4.202604252147408 6.890579383793448 1.2666772505309154 0.0634720524117165 -0.38336742218732683 0.18424730942027623
Ni 5.639189902552454 7.90410487972523 8.075406364128707 0.523632412489382 0.2678850381465903 -0.23449335006002195
Ni 5.320172641318918 2.656253304173783 4.717023992951431 -1.301326584089017 1.1897293940352995 0.08071798397635775
Ni 0.8292812527958946 7.371930317275295 6.828330834460742 -0.10569727962951475 0.49922313040708216 0.6236853493489259
Ni 4.964117954279216 4.570510553839755 7.14718898934959 0.36562398216097675 0.1293208325857257 -0.21741556864212877
Ni 8.444053956745169 7.117739851369075 9.014818135875306 -1.1570923247265685 1.2374231005668368 0.7914811980813983
Ni 4.561741624615449 0.7407232037503041 10.538834530713293 0.3746359558516 -0.9659254053683236 0.23534207121356243
Ni 8.14271919609178 6.880165150322933 4.719219841310795 -0.895569224242264 1.00833138113836 0.1686139737583935
Ni 7.108274831886757 6.07775388549962 7.046605755093513 -0.15233143454828607 0.4335327301878082 -0.3612119691362102
Ni 2.35178161729273 5.527254973010851 2.4417426950142094 -1.1432078534349923 -0.4991318562448565 0.20852083725566023
Ni 2.2756908159721294 5.498923195496444 11.363360673434975 0.21567364625035756 -0.4222427590962857 0.47494523169632397
Ni 1.6211128497107485 3.396640214968268 3.79522240071921 -1.7088703464122312 0.9728411586515504 -0.49921361732538544
Ni 3.688546116672224 2.5031857684769308 2.63314401162111 1.0706837181233366 0.629388056160658 0.3734493917426665
Ni 0.8224387759609697 3.2401735891803445 8.04772728423285 0.2799280853540534 0.46077485373321286 0.902189557772259
Ni 3.3076853040742793 2.9470111089586797 7.5107939956554155 0.16848927525507112 -0.5982550822012794 0.014770730551271335
Ni 3.922920610558156 6.699489047769348 5.942929338642612 -0.20743865993507501 0.7108089797413113 -0.16693118673933185
Ni 0.8064621485196132 7.470476809516694 11.1959464463165 -0.4770643349218558 0.21311205617076842 0.6350054023474354
P 0.0822209156577158 5.533221460936667 7.922137233461027 0.5747163756493908 -1.4110059882947312 -0.48183835927173135
P 8.446657515112799 1.4792008384085282 8.030063767932468 -0.6057035680595245 0.3402857605065043 -0.06223098091576379
P 1.9415403717267499 3.523663126855611 10.264407726592012 -1.1042201593178853 -0.6276898425226286 -0.5642879812272152
P 3.9194039987352123 5.864614664549661 3.6982253873118776 0.6791823539749658 1.3099454361062794 1.206599944538393
P 7.089986642380808 3.8395434618614823 10.365705131372543 0.5966198605907016 0.15352879729049687 0.4889572297046998
P 6.7025446127980235 7.828655927863316 10.044479365593133 -1.792423485844539 -1.2274670177953892 -0.05673396235693455
P 2.362458014626653 8.441034552249377 5.63556932919747 0.5584232949163221 0.5423130196180209 1.6996313443124667
P 6.837414360321136 4.126531531093249 1.6438912733875355 2.8809396041636064 -1.9115352391077467 -1.145782041920072
Ni 5.303177190863562 2.961258358914872 0.3770811328982722 0.26063606989366084 -0.5485826546768166 0.6048340209703778
Ni 1.4114269596511868 0.992977273120599 7.008155356464915 0.9811028844397104 0.4983929211963029 -1.3189090730574704
Ni 6.728516915541767 0.8805948569845594 9.284455477416135 0.3665914882805687 0.24623969196267267 -0.21381962376075436
Ni 2.6261135000151894 1.46034312050966 9.346800756174305 -0.04822103978991695 1.5371209123486496 -0.8096426994817734
Ni 6.269341428850872 1.9011219360959548 2.49768394339867 0.534429503104886 1.3752200889443735 -0.03891827433175233
Ni 4.284742902592813 7.077185813739965 10.22188293992074 -0.06066569331117294 0.4098541556239457 0.9511518466035749
Ni 8.069991324329367 7.338291981560199 0.027427764192313412 0.5372659441124167 -0.3923161467401824 0.27100867137723644
Ni 7.393545275806547 3.660982750481596 8.10550729571445 0.894009335954312 0.08322121001418571 -0.014753247049774593
Ni 3.278205429640814 8.358226931945623 12.441857606825609 0.07814765214602025 -0.30562471878920916 -0.06825661828455341
Ni 0.17549610621798956 4.9873149361241325 10.113982621835637 -0.6093823024626924 -1.2572203377984217 0.4640452969543685
Ni 8.58335336954654 2.2744251973211984 5.958581425301336 -0.21212552388778305 0.31913303768828905 -0.8170076244872768
Ni 3.3665998522751055 2.6926850410541467 11.641822993026079 1.2121936365760866 0.9839619511550601 -0.08854956420563459
Ni 1.2295033187131132 3.3791204367860983 12.761270825894222 -0.16412714163163344 0.28279409404793876 -0.8914950541728904
Ni 3.2054413973455165 8.305179430205182 7.972997926975323 -0.8333567552692615 0.9611107575884996 -0.1426795132808188
Ni 5.531883521219969 7.601820905083643 3.454970770563022 -0.5902728353267512 0.5854800419237982 0.180881735382153
Ni 2.87799873195007 8.295732490989307 3.5497059426384765 2.10707354806081 -0.7064938973057253 0.47339408515912024
Ni 3.6360681433247026 4.63348412185678 9.44649805737473 -0.9402560256266775 -0.4083053230795871 -0.10989383420936556
Ni 7.240477740109695 6.038040580260057 11.410913582203731 1.1122088339503167 -1.5260643974241719 -1.1522792196086413
Ni 0.6487968010665937 -0.10004625034275323 13.825889346764077 -0.007443086541606536 0.7853020658538798 -1.0151581742522064
Ni 4.622916206121508 0.2849757355767873 1.5497645022778497 -0.3399908549739048 -0.5864604035591965 -0.1260781572787119
Ni 5.988979777270049 5.468656829472757 0.3155087855304915 -0.17979467296556131 1.2700647978612578 -0.8405419601637911
Ni 7.875655580478951 9.013103222603295 11.258199515715818 1.196410919820533 0.5934928849259457 1.214562136808263
Ni -0.19040418991263164 4.795347707177601 5.894662259349402 0.5421906351075437 -0.7405856967831116 -0.6038806559181729
Ni 7.901736364821345 9.041850846245865 2.727151452972279 -0.6615911232557639 -1.1514068443060168 -0.38310979765056596
P 8.56069879569488 1.8871639704028327 3.5899544237647185 0.09846245244397236 -0.550957068446264 1.7369555346842216
P 2.0382517169243006 3.402570542361201 1.5850915348786152 -0.9508176031926076 0.6497360236893907 0.6465177738624092
P 4.588636020947726 1.1370950769287271 8.273027292391609 -0.10136831323685767 -0.6981784354614944 -0.6756905387716234
P 8.8905913371932 1.5926364300648066 12.674236039296359 -1.1784705332920284 -0.17962292327438742 -1.0450629322314389
P 6.373519924088914 7.752203521213878 1.323154578815378 -0.7290704970546604 0.6733927438763821 -0.5292173627763272
P 1.766505312303028 3.142820394524108 6.000762686910215 -0.24794536179986976 -0.05177970367545276 0.0029791372329819664
P 6.6640246051436245 3.741358574948919 5.965408533909787 0.7890754168533829 0.8813512808706693 0.40442192886478084
P 2.5132474367518296 8.54599049894442 10.239850204697344 -0.37423769197191675 -0.6600520609034181 0.6848729766018399
