# total energy = -340886.63310473843 ev
CRYSTAL
PRIMVEC
9.15310471224656 0.00000000000000 0.00000000000000
0.00000000000000 9.15310471224656 0.00000000000000
0.00000000000000 0.00000000000000 13.39649395638111
PRIMCOORD
 96 1
Ni 6.727815639928679 2.3641920040103592 11.261320897543332 0.4838952418007601 0.08209892348428442 -0.18017288224058647
Ni 4.794551801298885 0.5432642183481879 6.1750331080890035 0.27928479534309963 0.09356990023836143 -2.134474822891898
Ni 3.0110327542074526 1.831691836692068 5.1533635707105265 -0.549135698966809 -0.5111489353103906 -1.563536940448333
Ni 3.5217851449551354 4.557468085502636 4.79278342148683 1.1089895556820706 -0.11401634101817137 -0.7523955449338462
Ni 3.7468508343889235 2.754507844204145 2.7583915064932483 1.294662798915596 0.6232302640893783 0.4172414492269524
Ni 5.519752280124335 4.633219179315073 2.37893582492784 -0.43448275280590337 -0.31927007748678565 0.4565505312392202
Ni 5.642394728890992 3.1218036262855238 -0.14673067418789773 0.01938406095356662 0.34354437665311804 1.0322354414494674
Ni 5.529784082784851 8.027693792148751 12.244274633011726 2.026049859918575 0.43984118890433926 0.4942171925520586
Ni 1.6835671446709617 6.914822720363903 0.23362384225092495 1.9022283598845238 1.0052586557503076 0.385475212558949
Ni 0.6616074538761177 0.35759440649754587 0.5330575913894822 0.9947258745397838 -0.16883560285089633 -0.4737761510888873
Ni 8.158180451572399 9.090058032655563 7.102151074771192 0.5708332385449009 0.1428512629719927 -0.10429988506135586
Ni 8.766395100284658 2.261805375761697 1.543048682586798 0.16577547586833385 0.5155820313810798 -0.854738049158515
Ni 7.105509348855264 0.9890387194179475 4.763913614213534 0.5765338884741038 -0.3142463990199491 0.15790944285669578
Ni 1.161986631161061 7.856915166199928 2.561717832271737 -0.39923010025119626 1.0180306107039951 0.0024834285434860454
Ni 8.25248488844402 3.9324757960269405 3.384034581707231 -1.7193987567473807 0.02760130665703633 0.6370502006916061
Ni 7.980381394382138 4.311020743682931 12.239934230802222 1.1355907032093668 -2.215301050311346 1.7630118654516411
Ni 8.538134977339446 7.199438508437578 9.3642694867108 -0.18764347958601876 -0.30307726977700705 0.28714877147220874
Ni 7.228051113471132 0.9299554291135391 0.1487480184455417 -0.5061442830069477 -0.6744322408844902 -0.2253854742214828
Ni 1.8962395304529802 6.9860887929138835 9.486137582826835 0.0052573917441973966 -0.06760664340538033 -1.379052061095954
Ni 0.24096188622258166 4.648330955038169 1.4090701137516657 0.6574495902835645 0.8109714455955259 -0.773223794533107
Ni 6.719266640216159 2.2666290618949927 6.952485915243002 -0.2526080573828617 -0.367819961371031 -0.10994859870670097
Ni 3.8038014513175105 4.744594156297884 0.48409855010222413 -0.1849692751879653 -0.9466760702204082 -0.008463043165688652
Ni 6.3062327943623355 5.973755422245011 4.399931256003603 -0.47597624406399963 1.0636795188913617 0.5850822922647472
Ni 5.7037205298266285 3.2974608569953463 8.888492939326587 -0.20478502436231186 -0.20868667340956318 0.19979117069214625
P 0.36526379285634736 6.095464254340707 12.370590222661288 -1.3145196857405232 -1.9283283994056855 -1.6950149285863778
P 4.211306821982509 6.405754500865796 12.613066947698025 -1.2304358706157261 -0.14203853726271023 -1.462495671533591
P 2.6792601711456565 8.941988259262159 1.2524449334725107 0.024970553902408606 0.4623571106186683 -0.21697102490554246
P 6.632312146352197 8.070896445942214 5.90292412216435 0.2400767576850704 -0.4397517145143265 -0.9867937641769005
P 5.275437611680451 1.0849174902837382 12.41388806874277 -0.7954900621304751 0.833189633563778 0.18021659099432835
P 3.922819270655732 6.25892954970034 8.021820244915856 2.5460611307156027 2.114024011236714 1.323297174822837
P 5.212436792599855 1.2764370512952705 3.5694288851088936 -1.010104928099015 -1.6823460748694576 0.28398605747351086
P 0.5623594252007141 5.827168451799604 3.5568497734333944 -0.8651577018299421 0.45067401785378514 -0.7404519994187249
Ni 0.8576559710522701 0.34360937795283547 4.608594581963262 -0.6641671115130561 -0.9823267295444824 0.9363255802240198
Ni 2.31750201735772 6.8075849466680936 4.546434933196991 0.47510772541611723 -0.8638245848408155 -0.3319150199443058
Ni 6.285034204068763 6.089459817711785 8.910208680031035 -1.8432130576925805 -1.6229080833177985 0.3851959907556334
Ni 9.162989970245883 2.644881110203231 10.342522187647768 -1.4030903329920803 -0.22460077353665833 -0.5742024121274498
Ni 2.598694544304541 5.30603644041595 6.856284955094683 -1.4628553688658548 1.2000469739112234 -1.0821775776955491
Ni 0.27219594041851713 0.10635083785839688 9.310897733687561 1.8554527942918817 0.48546412894977686 0.4713719125227689
Ni 1.7395475325101193 1.4988849528085222 11.418140123640372 0.12031297266016054 -0.5736948763634119 0.7426976009197919
Ni 4.17239697425454 7.1554944531701175 1.2469439175975376 0.2307292550318994 0.9510343471891038 0.5599222480593519
Ni 5.9079903655700035 8.40253173243475 7.955079467288647 -0.03385731486907717 -0.46365757459764667 0.2140847044966829
Ni 5.41417121836425 2.8348629496390636 4.906680078791696 -0.1708886287251831 1.3142463774744786 0.3155733453614888
Ni 0.977121377206276 7.580610397118723 6.506007540428174 -1.0047691177083984 -0.8621672517430506 0.9726254430963185
Ni 5.467231765830501 4.71558796776579 6.724530590681545 0.24012663708639936 0.39818443259550135 0.03897869525604255
Ni 1.0468954937036432 8.057624444247189 11.524133075108233 -0.7527891808278391 -0.17424134724749993 0.21012726251083166
Ni 5.010775591672401 0.38818042088657934 10.182956114855088 0.02620262653729681 0.11068959063778355 0.4104401100344029
Ni 8.473742886357028 7.564436861260026 4.5394419612694055 -0.49935939887463027 -0.6991053181511379 1.0003442491678256
Ni 7.603090422058711 6.304036049254194 7.087535397318352 0.3758078646725141 0.6078270421604306 -1.6296338320774064
Ni 2.3119186235411915 5.925738235422869 2.1853696297238887 1.0492857120635348 -2.3890695716874855 1.1191089035042598
Ni 2.5585398743486247 5.3450652785039425 11.313057906081928 0.8619448513195995 1.833328965809649 1.3045396917096759
Ni 1.3736979409582672 3.6202908568460797 3.8554039092182326 0.42734768442301885 0.4683776057811353 -0.24053261427556638
Ni 1.7563617856920244 1.5351953188251894 2.8179928625189934 -0.4243626336527659 -0.28616609584396524 -2.000444757755961
Ni 1.762448600262502 3.705011993183431 8.25568298319729 -1.8925095899348634 -1.2549796213933613 0.3179269331953299
Ni 3.829036560747294 2.942018345393318 7.051338529798939 0.15218308189587984 0.2843987195308973 0.29212925540593565
Ni 4.421507869517868 7.341943194223688 5.870946835873494 -0.3342079297435406 -1.4993604057704242 0.3570380402641787
Ni 8.42190885490949 7.593360671850565 0.2235032544756214 -0.004937289400617303 -0.19019427103233053 -0.5732883849536127
P 0.48178647587590445 5.89363829753014 8.051145876799092 0.17947662750451027 -0.8167739112099159 -1.0627850321015502
P 9.035697744333659 1.8216325747177002 8.148872659487107 -0.7067836606320022 0.7762705517792308 -0.7047162365800121
P 2.1362247804129004 3.4117648274556798 10.52014642053984 0.6824998483839729 -0.2303351049172743 -0.6824229723994505
P 4.334443538398498 6.197860035693986 3.3776447993739223 -0.6136107387217432 0.8331898906740941 0.7391924159800107
P 7.0823977596966845 4.41284903254994 10.111485928072142 1.1965844692839198 -0.859872542171603 0.37678179855000915
P 6.556240693878155 7.851414150324954 9.998821278648762 -0.17384514025034575 1.7049758964538315 1.6205141291643252
P 2.5418446115267437 8.655001817092613 5.565385998504143 2.3407001792451623 1.0124274055846048 1.1066557653425715
P 7.2381652940732035 4.129478066704212 1.1661622774874547 0.5348413938313241 -0.22490030705494815 0.04314876747333214
Ni 3.1902871550318577 2.036263724887812 0.2045966015782107 0.4251357643733646 -0.7857214127794855 0.4423346447501543
Ni 1.610873187800689 0.7703756266639329 7.136459656808065 -0.5887291449887151 1.3387911566933781 -0.05977172074199384
Ni 7.173178251290663 1.1550302716519438 9.286262152610208 0.2693215134828007 -0.26838717459398936 -1.1637905626823504
Ni 3.2047490603271274 1.7570940340614052 9.146255349074147 -1.3753026213558508 -0.23165690905249137 0.7317459870042946
Ni 6.396482405888512 2.2020447557156113 2.1664940973821767 1.0228272607616902 1.5130250477417104 -0.09843956962583691
Ni 4.090650596917797 7.258347889754259 10.383301099338581 0.6785958853438764 -1.0658528723935965 -0.33096962531190094
Ni 7.420275463538192 6.215415690349889 11.367420940335215 -0.11136141989382757 2.902751814942691 -0.7297775504240142
Ni 8.197602873158933 3.91063648841016 8.029309315113696 -0.010398569625504672 0.8860348023892677 1.1103532687988167
Ni 3.2429998845226535 8.981081169082474 12.229270863923112 1.243891739010316 -0.3514770012366334 2.1007712599918658
Ni 0.5522397527358723 4.937431764374302 10.121734659312088 -1.3908382550976046 1.1933543923823964 0.19816340528073614
Ni 8.954418175332396 2.7142341838882045 6.048182061819331 0.1425607283147674 -0.5304689757952413 -1.2489956358957843
Ni 4.280577517725927 2.895877545017714 11.143458200007807 -0.9543955503518531 -1.1567789072512076 0.3722111484601912
Ni 1.6279986465395808 3.717698196182952 12.765747139887141 -1.389071393005169 -0.24161324893425482 0.4193099017202069
Ni 3.4084147911657623 8.521714307656085 7.872771089328405 -0.25590961095226894 -0.6512866560059621 1.020073866386269
Ni 5.5707716852609375 8.32275327259072 3.9427217813355004 0.9805593532314145 -0.965576249559021 -1.055029042305215
Ni 3.3905845433713413 9.055624053085433 3.3670079764982055 -0.20492746347744709 -0.33742360846736086 0.307043967734239
Ni 3.7247186274243904 4.562987407586844 9.325151863508019 0.5756052060122474 0.29381307086626174 -0.14543804986256245
Ni 5.339207291548896 4.909899225685586 11.480112133761986 -0.0831024250481343 0.19694161705849308 -0.37874612136523156
Ni 8.189438303840339 -0.38527797141244646 2.583486660982965 -1.305175782631778 1.7400588561998935 -0.8396469591533475
Ni 5.138726841117068 0.38340250027637 1.3819558719439586 -1.138337926937201 -0.7145352795529629 -0.41588390675779335
Ni 6.172725610414993 5.8947183638749765 13.70032671745332 0.5051443809875236 -0.056265507360948264 -0.5423816680724272
Ni 8.053816752726409 0.02590328606684366 11.331544431477406 -0.4444421780114604 -0.1574273610139547 0.22762953306065312
Ni 0.153298942061243 5.252280256998786 5.648390927725758 0.2719800341515703 -0.5624406436058312 0.17364510842439773
Ni 7.764432197147141 6.24584061009766 2.4309282050852583 -0.1366919282388162 0.2746784069193398 -0.5585698477965154
P 8.84904763497851 1.7638581783735596 3.609404154214311 -0.737153274062795 0.38150697193982036 0.1316476809466894
P 2.210218478138824 3.6468348602361313 1.582969948374974 -0.42586930010527946 -0.2653044219036076 -0.7213458747168932
P 4.949239269330566 1.271549293429654 8.076009370181415 1.354404437750603 0.8454195999710666 1.1482469585207966
P 8.956340327302021 1.9577666996901968 12.584612691374351 -0.324767353155931 0.03739926658406462 -0.8076691206951704
P 6.549192803322866 7.832979797625795 1.1880345362808573 -0.0005538156209409817 0.8064270207579531 0.9785178973213536
P 1.8534762256811452 3.4683950857226624 5.977261061313421 0.4131541665314562 -0.3928799896634524 0.19977857228665594
P 7.119541058233523 4.289611631983162 5.257574412709408 0.7428266702984885 -1.3193574734487987 2.218617516279089
P 2.620314177410507 8.950619636916235 10.238002886023285 -0.4140237136206031 0.25904687102967006 -1.8807411365450255
