# total energy = -340866.6483686325 ev
CRYSTAL
PRIMVEC
9.27368902953971 0.00000000000000 0.00000000000000

0.00000000000000 9.27368902953971 0.00000000000000

0.00000000000000 0.00000000000000 13.57298129358274

PRIMCOORD
 96 1
Ni 8.015184276770805 5.173039788687417 10.667846901435379 -1.0007833935877732 0.3632382555376196 -1.2206556513005107
Ni 3.54005448286171 3.1596384963647526 5.487610730272605 0.9463947915345636 -0.4073581286749694 0.4562278577924788
Ni 0.2811179641324086 1.3919899561000433 13.255536207931334 0.18288231075194952 0.7421712961026766 0.5864272363284159
Ni 7.571326985487867 0.8881968143812349 8.2627018117992 -0.31604437146063635 -0.09154901315359072 -0.12792755178262485
Ni 2.2235152584878377 2.045349150090199 7.138695494445161 -1.5190136612249774 -0.29281419728810215 1.0126927434308495
Ni 4.2647190697037 5.555551628843435 4.963421964870737 1.2963062480562901 -0.6802539897725898 2.5457855084567123
Ni 1.5908363904255782 3.25828272367194 9.17640776184405 1.1142770293332551 0.6763029755446417 0.6529524737441593
Ni 4.423141494737891 0.9844020615453566 11.22539776214021 0.8293319503805846 0.3871952805738493 -0.4714683288913171
Ni 4.336349041662027 0.8760121147235387 7.976338649305886 1.3635889324633483 1.1571797422340522 0.45188603588401527
Ni 0.6668765227222189 7.169090009345914 6.928748454677613 0.9438540273905809 1.8679591542890086 1.1076718653119118
Ni 3.200934232399246 5.975872298061351 7.0646283970815205 -0.7156022873648966 -0.8609434066382786 0.33163991190604825
Ni 7.6900302015762385 0.1220102134990828 12.844383507418494 0.5445380522937977 0.585503438962566 -0.16025660293263366
Ni 7.23446024139333 3.306292610366432 5.978423489838375 -0.7033998317614337 -1.0173366699607642 1.5011347240620276
Ni 0.6802853492958263 7.796992927698368 9.580217555599173 -0.19090595238737443 -0.089286185261343 -0.007046108213503995
Ni 4.017899843438701 2.79076825237014 0.8491378920749066 -1.142033630621233 -0.6009346859159715 -0.44582825972570966
Ni 3.3378046047623915 8.602208775082826 2.830455003405311 -0.026179743719161364 0.33430794565651456 0.6460462335426292
Ni 2.73682320487123 8.593259665432415 7.5738457193542414 -1.006231561186538 -1.4980051772941105 -0.5536001624960659
Ni 5.397361046028167 2.928241414502484 4.004871238104127 2.683704110013778 -1.7807763885239138 1.5824702870177263
Ni 4.811050621750428 7.6240757271371375 11.06398828195742 0.7832742367905735 0.8032727913996875 -0.493830241526285
Ni 9.018421200181432 5.351270812906355 6.281453325765596 -1.0513127697958926 -2.0502061454498044 0.5802054237884202
Ni 7.527879753661772 4.185410483454658 12.733383017211608 0.548107771922927 -0.5157216422827376 0.9724452087647123
Ni 5.90042156633518 8.107346195636916 2.0534422982683487 -0.6338764309493148 0.15394325912009615 0.04148114996292211
Ni 5.892576025646839 3.2784344493406925 10.668580450216052 1.4267835628439622 -0.822656338132622 1.1763285472483611
Ni 8.185347191771235 0.40502835645778096 1.6824391058596484 -1.0679799460389283 1.0267847027475412 0.08815798519417076
P 2.221836720822838 2.5442736052116324 13.206822448260192 -0.577056079526161 0.6060136431007757 -0.5102516203071019
P 5.394245086605847 5.94822743187702 2.8059557724473216 -0.0770698457008092 -0.5915398749646329 0.5842510546127034
P 5.556441902964098 4.7386787546915485 7.14245504786721 1.0735828940480026 0.8000234312244545 -0.9138626232348133
P 7.8451233723467 2.495160149555069 0.7102161797587339 -0.44184613514950993 0.1504722698523602 -0.5916404050982392
P 7.4030373556163305 1.5280535175413383 3.5046660865653645 -0.012257220100798246 0.22797148978110415 0.454792668007849
P 2.2897479435896457 7.317812155940382 11.980571857623538 1.0370637160760463 0.04786288511954983 -0.0008163252537082715
P 2.0920607203587243 5.094120697366164 10.38656108353647 -0.5919754198401548 -0.7040045552249682 0.6882336655439567
P 4.4654109680918594 0.1587683336248231 0.7575147745255711 0.025347734736169247 0.05102354223571858 0.542905144676065
Ni 1.808044728489783 4.093610238450065 4.4220638921043385 -2.280133473405699 2.440432499540494 0.7910147999679409
Ni 3.4751015668083545 3.4257006268003276 11.500495247531635 -0.36858615011309426 0.38306686022777253 1.345247196731367
Ni 1.9858491630259028 1.035166233800649 1.3646956353507234 -0.5830050980207443 -0.13638725251420383 0.565193266650304
Ni 0.6990562227086756 6.435782344582489 4.066532922017657 0.1072363419818605 1.5207676678016067 -0.5034813914628039
Ni 0.03480971811791475 2.365013201540678 5.573812449374655 1.7624094559809518 0.5710852066547069 -1.6771940983548728
Ni 5.615515300345576 0.1736581682929081 3.9251026768927417 -0.5230410587622862 2.6168816530725896 0.6628820741530455
Ni 8.256096163297657 8.710516186074708 3.835954706872624 0.06880837702296537 -0.5804386228451487 -0.2959136621490323
Ni 6.371756797404824 5.945658620091358 0.9204284470247303 -0.03403240699436075 -0.9120201707094359 -0.7976238206440263
Ni 6.04997834491777 7.3442885373413445 4.377136579552642 -0.11567778788099434 -0.617331124996124 0.9864821464737527
Ni 2.640886894681058 0.3687385576142644 12.721642527245365 1.0450109959475808 -0.6579285868025121 0.40262524197567434
Ni 6.521415586563741 5.103820975805886 4.925186546126023 0.0391077646347391 0.4399661445179778 -0.39615917463535644
Ni 7.727328977756506 7.60597348668366 11.261937023211287 -1.9266489548207335 0.3617976664363511 -1.1901777944266276
Ni 2.83414129468618 8.964235036774843 9.948818862619836 0.3435996553710856 -0.7594899898867823 0.3318240028923962
Ni 2.9313295528585335 7.70236420762292 0.7110424654269739 0.23310006925692114 -0.20053961882239657 -0.8927644078036173
Ni 1.6336808324824743 8.434735229821896 5.14975170148108 0.504565368555602 -0.7347773176314507 -1.8569082957914855
Ni 6.106705499043752 7.822124624229578 13.327364636829056 -2.261381389609176 0.9985902425911964 -1.6779970538721423
Ni 2.1512268546277715 3.491664374928185 2.133102357321278 -1.195071117963187 -1.6481082367325102 -1.8813707997092244
Ni 0.43962014288990847 0.28500271235267566 6.75402381217766 -0.6631435553445483 1.1003326513380212 1.1800216798292322
Ni 7.017650671945673 4.164776525970546 2.3043252549466233 0.4517446252101446 -1.1053118497201673 0.32303571517680496
Ni 0.3342070501590567 3.180086980073726 11.829870705848347 0.2753402088730548 1.1578106909498318 -0.3700707050784207
Ni 3.1915956278210436 6.608106029063279 9.312679981282374 -1.226346788148017 2.0020154446771907 -0.4035773214762985
Ni 0.6094510598328423 5.55688704002443 8.567428732768933 1.3238031679249782 -1.5604025085844093 0.8007788213332403
Ni 7.459625404410959 4.848061913579231 8.350979909813919 0.2655957278917813 -2.0797638045022633 -1.502131283647342
Ni 3.936458308775571 3.63318086535854 7.84789713265389 -2.4635377180993894 0.503657512029352 -0.41951661841437426
P 0.9294647293494575 8.374984853161164 2.7766110391138503 0.7199883322477343 0.014426974058607413 0.7236719517469085
P 8.104972131315149 7.169108556723429 13.52684631883444 0.13078224762260057 0.967781741850772 -0.7593717191413631
P 5.4473184073616085 1.497070123404522 5.896984737281871 -1.0971887063924006 0.7550124137314028 0.431822689475237
P 5.941133059977989 5.446391038485919 11.337932120467487 -0.3141314707086396 0.5896503712514038 1.45500373403192
P 8.592805254683325 4.941281032963629 4.335942854094474 -1.2981322455214355 -2.0503719816037074 -2.3783727540952717
P 1.8527160872317894 2.1102649713885264 3.841656170720368 -0.2122679630029183 -1.709621622755959 0.34687446946761546
P 6.538961405691803 0.36519415377137565 10.917006806742622 -0.2141878057334505 -0.5314015149118396 0.5858633934051459
P 1.8221871038440616 5.4909047445190575 1.8007815754553758 -1.9540463729970798 1.513524613085948 -0.17625992033942547
Ni 5.915899352870453 6.385166551347308 9.141090772951133 1.5244718561260713 -0.18366392611298046 -0.4476444869988419
Ni 5.628739580512921 8.535382573900575 6.501498485220538 -0.198017109510859 0.3645592883418883 0.3505989695070542
Ni 3.9743320536587663 6.054540999786168 12.677571176165932 0.565613127796542 0.3534747483929525 -1.9955133818926145
Ni 5.90994564468852 1.92256551094879 1.8821517027150783 1.1185867124522026 -1.0101656061336215 -0.012691479424739431
Ni 5.773529683074463 1.5491697068408086 13.110414107312295 0.1366757302889001 0.3219368256856714 -0.4446182985780085
Ni 1.804780390047353 4.920461601704381 12.924639864658491 0.5828868272753251 -0.5465766799903814 0.40221695079366215
Ni 3.670266346697399 1.6054795449727295 2.8075712490287743 1.108858172310529 0.43125319012501206 1.7279859841957594
Ni 9.208550367075478 2.5064091340171935 2.675533395876851 -0.5272466122032017 0.35382210443004225 0.3143533569114586
Ni 0.6118677831228915 8.619912246919757 12.071714598095266 0.117614599892391 -0.20904225697676898 -2.1456629782982337
Ni 0.5232057543936354 8.472460595684984 0.677620091147092 0.2939963905216614 -1.5102019764706185 0.7781446288734921
Ni 3.89554279398011 4.223859197040782 3.2512171002080548 0.661517589705351 0.09947983796489318 -1.5363359545535091
Ni 2.989725970960758 6.413562586320947 3.476692004430164 -1.0560556837975168 0.9796581815733838 -1.5107676191661012
Ni 8.705350741437112 0.5127635808533615 10.397364930938265 0.006612877330827321 1.3987950480508362 -0.043461413617744506
Ni 8.954506937268851 5.565669223277218 0.8836109752909459 1.1361190649090112 -1.1280720262348185 0.5095754201756837
Ni 5.2800025148095475 4.127255181260113 13.269841800207734 0.6147942175068831 0.6183114866315222 -1.3809680471717443
Ni 5.989059483473668 2.7906291470387865 8.342524160405373 1.4635616509042602 -0.84022391470274 -0.5993871389231935
Ni 4.425144611509382 4.909351722573609 9.911384690583718 -0.9225943466808563 -1.3308497903591143 0.051519508035530626
Ni 0.14744608702151904 6.283545469949154 11.891139185358583 2.5801501019795112 -0.5382149382892473 1.2503711760870724
Ni 3.2943295518700255 0.6890369293757165 5.682721722766859 1.4499936824118382 0.013664384860970014 -1.8839303329062844
Ni 2.0187336633578843 1.6927820509302236 10.88181130317242 -0.878639538366461 -0.4799987349598315 -0.2062790924093351
Ni 7.4872609969065325 0.8456092535029048 5.73729923583899 0.24324050012503268 -0.2980973000639124 -0.14823438166077696
Ni 3.8147967859737473 5.399883489370045 1.1531961800852686 0.8771531836289216 -0.28709812073993135 1.4244651991234305
Ni 9.047800246163305 2.7905456838399743 7.894737607196136 -1.0480271570660853 0.3366959862727169 0.30487549932801045
Ni 7.7082529999835545 6.408925741942496 2.838462833646897 0.6329258941105874 0.3584734871591246 0.459339406838267
P 5.059038332798796 8.169702478838339 8.790269909384083 -2.207700612256269 2.0775089470298154 -0.4713487725943173
P 8.211146593892943 3.1230908889737936 10.222069956579764 -0.422905332380949 -1.4213315385904555 -1.7850176802987707
P 1.1282740689199648 0.6328903081659171 8.873064475236845 -0.061227993572546165 0.6335735549969153 -0.05484343020244103
P 8.34552234398048 8.002924460234178 5.782605842260844 -0.5319843839985032 -0.32178950147452967 0.8772393155848247
P 8.098350717542719 6.811830423674945 8.822396749344625 0.5857435799978299 0.5888366171008569 0.703808122943446
P 1.5743384981270458 4.164479767930326 6.672802991306944 0.6231950399760686 -0.3955176843966156 1.1324688697509335
P 4.045414877980435 2.4565537832600777 9.613592634066395 -0.033663710801032344 -0.4775168490782421 0.33236162056342117
P 3.7946636076825087 7.522630845825365 5.641718107928209 -0.7016494247292302 1.4175705288861262 -0.21262200390822736
