# total energy = -381163.979413108 ev
CRYSTAL
PRIMVEC
9.28623482148764 0.00000000000000 0.00000000000000

0.00000000000000 9.28623482148764 0.00000000000000

0.00000000000000 0.00000000000000 13.59134332824436

PRIMCOORD
 96 1
Ni 5.580107909354519 2.864339191714444 1.9733955169952226 -0.22886443390901876 -1.9070347801342316 1.3375485425355287
Ni 2.9887468822684995 8.449053073638554 4.334442129002156 0.8545629570332316 -0.1489666318411112 1.331630891499513
Ni 6.60159376148157 7.403488014106363 8.424526269705481 -2.9317705707725445 -1.505186268423582 0.1385418369633614
Ni 3.2027388820540974 1.5293593315696015 5.359936848787054 -0.4072617123064212 0.06010030772600618 0.055177416503092075
Ni 4.949813993652051 2.262925466922114 8.928751187408935 0.6451931415137148 -2.318645513437968 1.635662040549357
Ni 2.673061322786144 4.95626792699049 12.884471864993975 0.7802663032021853 1.1043335449672982 0.6646129408012231
Ni 3.088833923306912 8.457540692446228 13.375513114840475 -0.3634999938394385 -0.15390186435919945 0.09223395503575728
Ni 7.109615820684429 0.7133760031734705 2.7210145118024975 -0.03227942885899602 0.24980864026085367 1.0702222051058858
Ni 5.60164268836436 8.592451114807153 13.13925458072551 0.5176409707926375 0.32422176506510614 0.40818525256195504
Ni 0.6749950652150494 9.088958242586035 13.080784730549759 0.0788431355511481 1.648536325408864 -0.6878423436428089
Ni 4.151197781989084 0.7043395678761539 11.924052294354082 -0.45625305460345944 0.46775617014705245 -1.801340842938827
Ni 7.269719798652815 3.4289422808901233 12.1784422023443 -1.1084033441612975 -0.556055566015094 -0.9165463407145635
Ni 0.09881946995827284 2.3091244861433147 11.629487347799706 0.41526658488876866 -0.6580311738186473 0.5319095648965098
Ni 6.428981224942136 3.891415357323136 7.728065143619733 1.9748417124758761 1.5983998137637891 -0.42550806011111875
Ni 8.606724058031874 5.199548712027076 12.264434595870364 0.9352266907328861 1.7842805450224304 0.25703215459248635
Ni 8.961291083540193 7.922987859793123 3.5604288683994194 -0.44986437746829616 1.6087410477887973 1.4185038393336733
Ni 6.0103020328603165 4.486783743117878 10.02604893361035 1.6161100865593587 1.2552881537727156 0.3399137218790662
Ni 4.8954895187889305 7.713973281977889 5.765814965894719 -1.160274579109292 -0.7436265404919645 1.2319937020211493
Ni 1.2244179460046185 0.5352474430325515 3.846037241277645 -0.03578769912257062 -1.003199973449066 0.8462966032593812
Ni 0.7712171752384138 2.069242463123806 5.459643154189674 1.2650866279203759 0.6902326982518564 2.865583690532826
Ni 1.1122587994410684 6.399887450626554 2.9283640676787637 1.1595230456552483 -2.5685495416261057 2.2029250452444966
Ni 1.1342393177318386 6.892160055236619 12.547745554204806 -0.05144237494069206 -0.2250787416143414 -0.6084965574236294
Ni 4.017410994065498 5.558870289865295 10.578957867026178 -0.7756992526567931 -0.4668984501324475 -0.09619191124224079
Ni 7.4671265826938775 2.8114355108092823 9.713366542533247 -0.9224429087046564 -2.9880651315992153 -1.1669712744031773
P 8.020948353012107 1.1513352764024378 7.4774268745773265 1.064627484626928 0.5687863833182011 -0.43299202719298974
Ni 8.54627066805599 6.6594748643570965 5.870318540308327 1.0763532577042882 1.0038700029328969 0.16073637078252964
P 4.297985298939741 7.084886576827935 12.073978558741274 0.00252636596627952 0.5387235024945496 -0.3714066502810249
Ni 3.4598561572694955 6.052777271838763 3.7696003835864795 -0.29698041285064986 0.7196381479971671 1.504904475517105
P 8.933293084956892 3.52994865919545 13.54916942419608 1.2080575029205258 -0.22354610701989888 1.1872001998555426
P 7.497278987801665 6.320648007206553 10.149376635031658 0.3592211639584265 -0.4133984213317784 0.4314663345770827
P 1.8592528306315421 0.7725209626351287 11.18976647578757 0.0823578335726259 -0.24797055861085038 0.15873193875799113
Ni 9.27163705788643 0.015182994256615711 10.256354062454417 0.29137103708367235 -0.31856071012458687 1.5916144154108394
Ni 8.6444354584454 3.269831930068806 7.279809293001325 -0.07316613977102883 -1.547595329517412 1.6783981459653028
Ni 4.53506287898341 8.94074993167742 9.229133960202924 0.3852844367043816 1.1119159853002463 -0.9442597474694318
Ni 1.899694384140754 4.236621857931963 4.416710742285464 -1.6360945001010854 0.28850991348579347 0.7002962531354455
Ni 7.040730529310989 2.2929942959147267 5.42925209284189 1.1373159134305897 -0.0008181250259211715 -0.4926570471537903
Ni 6.154145813309844 5.791639056859992 12.073869909791549 -0.20575458736443275 -0.3331036409357683 -0.03786643602847027
Ni 6.917752918949911 0.5435279787992942 9.218219848184699 -0.39879455537567443 -0.4455379821788005 0.9615591579798279
Ni 7.0875981574535825 4.3458372679943835 1.0831603820079765 0.5204509294376068 0.03058712875823764 -1.2818350510233087
Ni 6.166765806701123 7.9488964554970725 1.9218429832853743 2.5848865882232324 -0.22936091392946303 1.5614466335782076
Ni 4.581401191729901 6.40737215605214 0.5614569127511277 0.2706173494760888 1.4846647514314626 -1.12390452512069
Ni 7.727252598055541 0.6457192806930883 12.205678729656016 -1.3072802305692903 0.11798483874761616 -1.599629572405832
Ni 1.7337122194051275 3.2111150660415397 1.1900430898335395 -1.4226674837930595 0.4022555173410814 -0.8577238712597164
Ni 0.22182679627141233 0.5948242124226089 1.8343285758396422 0.4511283317823843 -0.027327741280675517 0.3803710585631642
Ni 2.192034348784497 0.17943884790214742 8.95369215742387 -0.574490889902146 -1.9335701074205989 1.736654715614351
Ni 6.862620541640108 7.963466558242412 4.575634439782893 1.3575656090874038 4.333910624036214 -0.7414531869897295
Ni 8.891718610775321 2.297498119899105 3.7179122708453485 -1.43179387157436 0.4682089414137549 -2.1355711412798706
Ni 5.23646149622894 2.419714258988597 6.718513960739533 -2.6312142676451784 -2.1921904324358117 -1.485517843460377
Ni 8.026167217092974 7.6108682145581925 11.989019723172863 1.2746213068836887 -0.5939448848616997 0.3070730211999615
Ni 5.718509956082715 2.114224985557473 13.142203888967652 -0.5401512360800116 -1.471033533801273 0.4637935859548787
Ni 2.3973808637670917 8.236769741096515 2.172589901277507 -1.1552377880163331 -0.06905443159550043 -1.2428239598674338
Ni 2.5849628111576957 2.615050212620347 12.70718556636931 0.1248856796325075 -1.6105613888269874 -0.35833773291220866
Ni 4.506043394547982 9.03050139313931 1.9324311484544223 -3.6658241228640933 4.093084389779628 -0.15245047662465358
Ni 1.3588454841445383 4.190125679190143 11.242664584951722 1.5849642570841735 0.959758100215347 -0.9700024036511745
Ni 6.5362279531804575 9.054914905005147 6.808950746345851 -0.2076212082595263 0.9152651600092947 -0.4765750539902632
Ni 7.559218175380641 6.202257796945028 2.6512906734068107 1.2171838907018264 -0.336102318552776 0.9270148443460551
P 7.63694396249249 8.959331687951112 0.6497067900103914 0.5270306395376536 -2.4365565615248554 -0.6052716227284285
Ni 5.025338943064317 1.4220475996861448 3.8968422330684365 0.45038271186561146 0.4704172619189834 -0.1427093380774897
P 3.692169898748245 3.604916434506556 3.659428491317067 4.22113304052115 2.405277806016232 0.5826572277630223
Ni 0.0747634781406808 7.55656231216511 1.3522336848107708 -2.2020518986109234 0.6279346115435831 -2.176203827199568
P 1.4221404620363385 6.434330096313275 5.295568382127019 0.44305635340752736 -0.318853044554025 -0.09099416909138522
P 5.038618259141969 7.645728740820783 3.5695488798119097 -2.55742180714406 -0.6821062124899802 1.3643278675119017
P 2.2285013937054323 0.9832915674925186 1.1268094010928673 0.5349393528617691 -0.46353698985938235 -0.7421730958748896
Ni 8.798104075545387 4.3173006677799615 10.049860697446933 0.8556173664396748 2.40239431382085 -0.5487646887806356
Ni 9.111690945913372 4.375896810751977 2.4576958888411866 0.45844877670319756 -0.5066420485789727 -0.2723975813049631
Ni 2.8338710546160004 7.537339805675083 10.378512626886788 -0.5148232988381842 1.0544585145137257 1.3713197254487026
Ni 4.469316335046505 3.3278801851746804 11.29523581864319 -0.24181379498083513 0.8832796082416337 1.6147389172434448
Ni 0.3491977244201382 2.042674544733483 9.185111634470257 0.7680211672862449 0.11952647220312318 -0.9148982635881792
Ni 2.2927435675692047 1.7361266405101552 7.529332285217909 0.9750487078258304 2.007350740847175 -0.6114684955677597
Ni 6.107241040227174 7.997184877597625 10.806124248433708 -1.0194046082333863 0.0900595730922578 -0.2520226171930369
Ni 8.530799800513776 0.2868499425003107 5.28275152055333 -0.24370664112817383 -0.055565138859813984 0.7126257212350758
Ni 4.589582364781936 3.9284024314051544 0.3929136043971682 0.2553514244559538 0.26732710876059124 -2.3544347552224356
Ni 7.893708360777154 1.6314614856072098 0.6951972694996168 -0.5955358834979034 4.571257641494947 0.18597791895813778
Ni 8.950435474802587 4.302191963403501 5.451963437828682 -0.38062739754834446 1.2985847596778217 -2.0553920605261182
Ni 6.606014009350774 5.9761379742241765 4.856322965347873 0.14967779897552286 -2.4997946435488947 0.6835298323103841
Ni 5.359030512249166 4.2783263394038045 5.140218956488533 -1.8003761650327121 -2.3012149766663463 0.4852802950737449
Ni 1.66394473570485 3.8520324346061283 6.981125901215873 0.29659191916297956 1.310986218665968 0.4675998470748463
Ni 3.65961235877045 5.5436501506686024 6.191495979181119 -1.5894549458656757 -0.1296206232143316 0.22833992886411641
Ni 6.900712677689428 3.9826526163881204 3.453492300410744 2.0778948696143242 -1.1730143952734635 0.9116771855477201
Ni 6.921931724708612 6.758939727649213 0.5024679620377944 3.0663043150177773 -2.675759658355721 -3.2372099130238245
Ni 5.333753380526532 5.384428365027054 2.5876149598792186 0.6346030247026943 0.03117179761711406 -0.11906418785472396
Ni 1.195092015813553 6.655305344833414 7.651858584557047 0.5594237111563785 0.1549570450965912 -0.7948231179704376
Ni 8.401340398109202 5.606174371053798 8.09399852079172 -0.667753543312734 -0.05079034317898994 -0.014167035529001407
Ni 8.564118811763157 8.142960194931174 8.456370626833792 2.4806131855244375 0.8694756124790058 -1.4660839031054815
Ni 1.5461581307195817 9.112248120014533 6.525108615368303 -0.1531025083863557 -0.9772809395904588 -0.6775728433960008
Ni 3.626906239032346 7.0301535076239645 8.250679592531979 0.5391405354273101 -0.7401982315367058 -0.9085458390075902
Ni 2.5939611728914334 2.1539514989701964 2.9971899271480806 -0.8369552712537973 -2.4271738347583747 -0.2823577778414686
Ni 3.26221721735295 5.075688909339162 1.6515253249899888 -3.158579664814431 -0.807618469962893 1.82301369992657
P 5.935306398844152 1.9025266858216519 10.892170502122884 0.421195548778694 -1.717625724007358 0.4803656313809469
Ni 2.8386813243560165 2.400361745208299 10.079394639302432 -1.5764685609083366 -0.4352173169790827 -0.6250269509784848
P 5.527445670559859 5.871314953325903 7.2524901181979375 -0.18656952979554964 -0.08700047455095984 -0.5176330003728375
Ni 0.5548980449569701 6.794896029644084 10.21998359437768 -0.9262255156755402 -0.6111095695664442 -0.5470875581885287
P 4.126579972952822 0.21227218906001663 6.899903846619243 -0.1537879644891545 0.2667972043990502 0.5251210812197666
P 2.1281543380864787 5.4063717383777465 9.211655408649529 0.3830496338365919 0.05723918412812723 0.2689433042077755
P 1.5916513960793128 6.223170398208575 0.8787155604457588 1.5319740780403874 -0.7933082239878079 -0.40221052303575894
Ni 4.35106541831027 4.261759696129308 8.48421911703328 -3.589904074497011 2.409546865705231 -1.118335515673345
