# total energy = -340857.02755243395 ev
CRYSTAL
PRIMVEC
9.40566088755123 0.00000000000000 0.00000000000000
0.00000000000000 9.40566088755123 0.00000000000000
0.00000000000000 0.00000000000000 13.76613544769975
PRIMCOORD
 96 1
Ni 3.528100984999344 4.036016073324047 13.882596370479616 -1.734799407573167 -0.04509689233863846 -1.4217691403485064
Ni 8.669131710584265 4.272831800696492 6.730098304746085 1.3230045832830828 0.6262816493211923 -0.19501920322479963
Ni 8.243027059811613 2.053575542939683 10.316190831912701 -0.11174965647118172 0.02341349382793387 0.7218408120754407
Ni 0.6347212665303815 6.8752182450761135 10.886755145627918 -1.2834697584132542 0.5937445959254355 0.5118055950577831
Ni 4.238265997292976 4.97731579387292 5.08584395146525 -0.432306571090191 0.5296891602064232 -0.6007354254209718
Ni 7.892431053861662 0.5243881626324364 1.5488969424928432 1.6968404118308904 -2.3538110055955075 -0.3092540880116803
Ni 4.6240297689370085 7.718633253782702 2.3121879486270416 0.5533268542300213 0.6472209705770208 -1.0981605833873667
Ni 5.058232693649914 2.3477940181139396 0.45926148618981666 1.6106932864191612 -0.6042840620041786 -0.7976726716040908
Ni 6.206250027043 1.1569433054828644 12.376939131770891 0.7968650881011309 0.7037538726667428 -0.7294368792551437
Ni 0.9406225129719875 1.1289332476500284 6.375992106189279 1.4356566969638758 0.1484326137145121 -0.12525643270836492
Ni 8.41659912403161 5.725536109723185 12.348265034286278 1.891207326183672 -0.43054870785881977 0.8334773400075258
Ni 1.433874176124968 8.038105928178304 13.633305915201298 -0.27981315704274395 0.6605266865469914 1.7263345646352657
Ni 8.887333635253157 1.2662935178282468 12.856799015090969 -0.18525595319044869 0.566222993466399 0.34665386881637716
Ni 8.526081015628053 2.591588745792618 4.84623004000776 1.107300598015422 1.7829188887882133 0.6326266177026137
Ni 2.6884670519303646 6.540028711500301 1.1112797629131415 0.9006412394485327 -1.006413081069725 0.42487711139533924
Ni 4.059116376224465 7.514060131598626 4.564933061626904 -1.0113943363344 -0.21331054533481972 -0.03402135125076722
Ni 1.4174801093678717 4.844752410697639 10.162670695931059 0.1011878217949354 -0.5471405229136513 -0.9970843474696311
Ni 5.922594108935994 2.199758322938989 10.024526934209026 -0.9915348784063116 -0.5656984884214967 0.4100179348953196
Ni 6.293920191267264 6.037474849825938 3.3548073283387327 3.783707917257471 1.4576892512838828 1.0873822618249402
Ni 5.589285707518195 8.223961785390136 7.562329982773278 -0.43492832498375417 -0.43557470031850143 0.187276068944271
Ni 8.423926133787075 0.4336724454443454 8.719772728844095 1.834253020285815 -0.4411876756299047 -1.3260932495107356
Ni 6.429013697195075 6.638750527152902 12.696355372201753 -2.0160793789694247 0.8741293092009333 0.6339191112617921
Ni 6.242480632406358 1.266208866881136 7.0734942773612355 -0.2298710207966622 -0.37809563226542625 -0.773215824113307
Ni 3.476539152548167 0.5675413343372889 0.9727588341934281 -0.42784210756093416 -0.4351787504316635 3.0932775011725115
P 7.636371344512728 7.539596500643673 8.36730499639692 0.27367747645865126 3.7239413387217994 -0.24880796691048115
P 0.9693568066856589 5.874822757783215 6.878015488595081 0.4533245681027548 -0.6821838598054509 0.01083437161134263
P 1.267883074501769 7.460240940557831 3.8835503119169728 -0.5727762212038845 -1.5963064215698703 -1.6111789678063284
P 4.205223910937452 5.899794787180858 13.214690992115777 0.5953137401847683 2.1383749292772527 -0.9798147617559062
P 1.2558344230296863 0.560806881211597 1.5297206812740436 0.06821573774428896 -0.9928147735599998 -0.27015943600306375
P 8.048292258813952 7.92342270616495 11.44661017396756 0.19922192845223755 -0.7030257362514666 -0.24437898460485008
P 7.533708556989088 4.351237389042536 3.889015941402084 -0.35057660090955106 -0.6050129697504031 0.7613224151098308
P 5.652604615956964 -0.27692522724562973 5.226148193470761 -0.44785583167869975 4.281754253747633 -0.46846708017114796
Ni 8.569892583588212 8.59066028261269 6.444327053527393 -0.45564910247087337 -0.2548690855028965 -0.026226794907012893
Ni 4.551878945016362 6.110726136059023 8.991020699236838 0.7770079441658876 1.0505661214378552 0.5596288851886491
Ni 5.989073319400226 2.5325211960309635 4.650241464426782 -0.2873477748568922 -0.7197348214760314 0.8500496425439102
Ni 0.2688664570806956 7.2607656865219745 1.8520959425894614 0.8661835719912954 1.9056361000144924 -0.028518162044350884
Ni 6.074476719374084 7.3010031033819045 5.577831493808046 2.9038831003336574 -3.867518938336855 -1.2044150210719322
Ni 3.6330775650773433 8.940532052681807 12.613524420453981 -0.46366631634839506 -0.03282090318476283 0.12555108113064828
Ni 0.6412083507772945 0.21655499346454957 3.705623426751172 -1.6244900830929376 0.8593632066353523 -0.6709465963287349
Ni 2.966263243365155 0.32679310018851493 10.457472322074299 -1.0352868266812816 -0.4935929287044983 -0.8576719349758584
Ni 9.241757745144668 6.237204056703128 8.760589534408693 0.7962205125385965 -0.9616805140490405 -0.4570315846406967
Ni 7.489247998434415 3.467387444599426 12.116608311857188 1.5887872303746897 -0.691419519471106 0.5802576171825943
Ni 7.550516472820947 6.363841873580664 1.0554740963134834 1.1219481727252678 0.2932307160002305 0.0597938322291809
Ni 2.9650687244448157 2.4851636939529484 9.260217295011264 0.1847036802314045 -0.23874338358562755 1.5097839150965935
Ni 1.9721319261584453 5.77411634770391 12.549374051601369 0.6520692998082577 0.41214809386444506 0.3443866700487553
Ni 3.2126821504042637 6.7983457794388515 6.791398758379303 -0.8303030560446023 0.10767240107801457 0.28659701273379673
Ni -0.17383824442035642 2.2089382478701 1.6348665632462638 1.73228949666712 1.7838689114063087 0.43953702740035916
Ni 4.697083536293501 7.446593326751437 11.11411724334026 -0.23747917216122327 -0.6912853078860869 -0.21968276740975068
Ni 3.0878408147376315 4.544297982419564 8.308303286260795 -1.0930870255192013 -0.26660540010321826 -1.697269271838193
Ni 1.2184187044067778 8.886966814482344 11.6924318215465 -0.7987643620063728 1.7680604836191423 -0.418256520755028
Ni 4.2296598176700595 0.7223387590542226 8.331732787288866 0.011702633148908877 -0.12557164995593859 -0.017566548128853617
Ni 2.1017983658103843 1.5045577169623625 13.38021557296379 -1.8474049842867413 0.495361847679463 -1.2685090233383638
Ni 6.348256693651513 4.371958059763066 5.84171483180216 1.444550657019396 0.5673974733904745 1.0920896946029384
Ni 3.779203911111909 2.0387240045521584 11.666139237373931 1.0715794904647287 1.3557840917069488 1.0573486915773274
Ni 6.688713397269766 5.711493458163607 10.635757562916204 0.20177914765645247 -0.3641749084192761 -1.2655707666456462
Ni 1.8794955730370215 4.151592833112458 5.6534078593884365 -2.6765518152397125 2.243705826706284 4.370392778122648
P 2.5248085541831036 3.8166854693603476 11.676119584038277 2.3234573330043147 0.4743183967456025 0.8284534044303732
P 4.5636924549686935 5.554710498453889 2.7403420928858515 -5.632500268810041 -0.4028322157801578 -0.7637456798393427
P 4.943474226350239 0.24749679576565095 10.784707488319947 1.1414556466305763 0.11167252337634316 1.0315934369900943
P 2.5879111324237 9.020489575058214 7.366699762868403 0.8165764504871291 0.440660342371525 0.6290676967067618
P 4.205872901531967 2.7904244148947503 5.9744202404553715 1.3687601922516426 2.1036946042862477 2.226486377504204
P 0.8440884540191578 0.9895507604019445 10.099456190327059 -0.8035602407331194 1.0508240030849323 -0.38959591959554196
P 6.759660296609283 8.23880391811687 1.741099739605816 -1.098313049804831 -1.2631181913400955 0.7073089370078528
P 7.311462198180465 2.4668790893770476 0.5366992320405622 0.29083239097138297 0.2195125603804736 -2.271798214067126
Ni -0.028518904081578738 5.339273838057279 3.1355538507935115 -0.8454368263622473 -0.6585389666930014 -0.038331548590346896
Ni 6.753414937844675 1.985995870163012 2.543279390842648 0.6524271973683086 1.6444284738880774 -0.561850061209684
Ni 1.6411749399381652 3.906180331777887 1.7463170596460693 -0.5203138896391103 0.10679694045159673 0.5420062870108794
Ni 2.8745580506619484 9.264679340490074 3.467716642727079 0.3496355771525204 0.04998275967603005 -2.0217998263929697
Ni 0.829198352422394 2.7645870647044215 11.392715737640446 -1.5395369779893098 -2.5119379637796477 -3.2014546098010865
Ni 8.163991292192634 8.030195767453852 3.5289766520189 -0.44042842886637695 -0.6578090305055122 0.21680621719290402
Ni 7.177751324388795 3.2306751794956723 8.245557182564141 -0.1621057403262305 -0.5478511758274307 0.03319628424631057
Ni 8.091859279593567 6.2154299519741105 5.112426229990153 1.2035614148223852 -0.5077581644612869 0.3669930945943615
Ni 5.4339041912661985 9.241315679087535 0.3102278504050393 1.3602218157633283 -0.9509746975957621 0.6114692668987082
Ni 1.8893244885626472 8.64117808671617 5.430121234496431 0.013077402009248446 -1.0531403099229346 1.233964966814907
Ni 2.9985152542143134 3.0798460030660704 4.314017308164062 3.1587215897089345 -3.343344023080442 -4.8651100502395765
Ni 3.70401505875607 0.8510270099839942 5.557375122155717 -0.02180809701402696 -1.3905155816508632 0.46082139070043215
Ni 1.4966099335947516 8.584207999310701 9.209668452227177 -1.2593165582058183 -1.679282348342469 -1.6041290029380824
Ni 5.707881684420219 5.145507820120996 0.7882188289261273 -0.8946906782920526 -1.1703540748324812 0.23210633788508417
Ni 7.596453720119661 0.788314766666186 4.152403601072562 -0.8125498458262392 -3.1053742844360452 1.140069564916327
Ni 6.471442633019093 9.176548298887095 9.460377281152638 -0.03146850292192645 -0.7237899653820116 0.9837284949880155
Ni 2.261111448272632 5.2955187040618625 3.5780939532307374 1.6096208792905895 2.019937319262934 0.21559779870709966
Ni 5.40171802004257 4.050792366425251 11.954525262292265 -2.1896692086758547 0.4432448152692496 -0.20192364365411677
Ni 0.9909710151812454 2.9013171556097044 8.15281454547579 -1.1211871261895272 0.4846470323651201 0.27389602022736054
Ni 0.9308980002811316 3.6612569248044 13.264717820726014 -1.1332581984214485 1.592287015997832 2.9239492749559126
Ni 7.77672261482219 8.622357359475235 13.452322190278723 -0.032990081772775445 -0.9688518349864992 -0.8737678120964564
Ni 5.208883162524505 3.468685425788456 2.6480951341211365 -0.06413076904163795 2.653306214448211 0.9776020703753036
Ni 5.030796381125272 0.7806924191619112 3.3759521943608948 -0.5356374073700583 -0.9194154347322423 -0.17633525366205116
Ni 6.98773816510775 5.665631456151214 8.143205722412652 -1.1274642174474905 -1.9903580629439206 -0.38778663430094507
P 0.980530731704265 3.3043497204643097 3.866191224362815 -1.631855008098441 0.12709117192425853 -0.8388915690445617
P 2.657362531697595 6.939204955430976 10.131999776660711 0.8100273365147017 -0.5157494101968795 -0.07188675883797298
P 0.11426655124035343 5.413136492241718 0.8329060639058405 0.8460353791781945 -0.7899963860057555 -1.3269612539379858
P 8.400468415776635 1.4732274608706313 6.780192854114012 -1.4760626115847482 0.869369940139077 0.3713413442607282
P 5.222822351815392 5.873806946417887 6.885338736086231 -1.5723637947113436 0.3766560716054223 0.9053820965676278
P 8.722969712946641 4.038480356451046 9.645366877005705 0.2056599707680974 1.124387892515012 -0.13312966480885458
P 3.4975608044139785 2.7529804792894716 1.8651321884445018 -1.6554713619658004 -1.9537501819128997 0.12892642536078444
P 4.979422661889896 3.9683141269571056 9.356277308660275 0.33518674871704207 0.35473587449356325 0.39285993505879435
