# total energy = -340897.86712306703 ev
CRYSTAL
PRIMVEC
9.00973753721414 0.00000000000000 0.00000000000000
0.00000000000000 9.00973753721414 0.00000000000000
0.00000000000000 0.00000000000000 13.18666160394650
PRIMCOORD
 96 1
Ni 6.53666350526354 1.830391197016758 11.371134464323397 -0.19911137101630225 0.6125331893868483 0.5229076185082157
Ni 4.472460616039367 0.3206394313686069 6.126852902066671 0.1268091219074655 -0.22201244398419187 -0.6692229287694088
Ni 2.742383833921355 1.6236267361301648 4.809069806740471 0.3317119027945642 -0.048266034095239455 0.16376153076209862
Ni 3.2662820374000954 4.344945804286003 4.731163509436001 0.804585339563524 -0.8266641737404343 0.6623909934492399
Ni 5.140181255752046 4.597939227166979 2.425461820155337 -0.1825868909987178 0.2810460010085805 0.9798759540111447
Ni 7.254018787663233 6.076220881462532 2.637767269470413 -0.18222153723949908 -0.42124414262844223 -0.6279551803688733
Ni 5.0151261022766915 4.429565256839355 11.43005274030587 0.1730367854164375 0.7000666536231428 0.14433556082700305
Ni 5.604416978948813 7.827290351447804 12.453706655242273 -0.816424241179981 0.32500055221265967 0.1664928136503326
Ni 1.920335404303823 6.388137986168352 0.44958318745490977 0.41265331563563773 0.5105010173137466 -0.3398417309905502
Ni 2.634239957324476 1.4719297895116816 0.39191185911227694 0.4954186690593274 0.10716589375524126 0.25253992314908763
Ni 0.590496379520464 -0.10553105278507402 4.558193672120785 -0.22931514829319216 0.07608974117572702 0.30342154049030323
Ni 8.575990509851874 2.3559471921554023 1.311242026059405 0.30019763423636686 -0.07587222584828222 0.8494665163469305
Ni 6.9716356017680905 0.7799477292458004 4.812300698529827 -1.460460643381433 -0.31925490797813405 0.12449744305515333
Ni 0.8258703601725931 7.3687307627387515 2.3714889889670006 -0.9827599604271591 -0.20669226868735374 1.110223685199488
Ni 7.7333908694939035 3.7966762614592198 3.8328746829374567 -0.28410612799114293 -0.0821133216619876 -0.745725074892206
Ni 7.574909590702009 3.8474281115692106 12.503684568919732 0.6345012090175073 -0.13449749169065867 -0.18905990031757117
Ni 7.887277182271933 8.96265239504988 6.877094626519705 0.6092596608418991 -0.18154250889460347 0.39284965064614924
Ni 6.816226643389388 0.7638977832514923 0.5316862203853754 0.14721133971290132 -0.4133547125780365 -0.758763653243719
Ni 1.9594106348962301 6.36247825438897 9.067095071571277 -0.8688356649021618 0.6351067038119901 0.18746504502662553
Ni 0.05137892782482397 4.887611290523328 1.3236898790883354 -0.07297742079899044 -0.41832516920943447 0.4521904544983116
Ni 6.134883280906194 1.8957027825745998 7.1694560964547565 1.4194664603572587 0.5645582041694664 -0.3245560084760733
Ni 3.2948519143215904 4.1797342517443905 0.4623634997895489 0.12509368187825554 0.36516632579826785 -0.5831357100613377
Ni 5.993601590585803 5.310708553290089 4.843869016018801 -0.7114373573539295 0.8566897735682472 -1.2296365146428823
Ni 5.244703217961527 2.669305854826355 9.44034416087744 -0.11857233581996997 0.3609985675738234 -0.2805034982415492
P 0.3000503797315839 5.653763310042798 12.457241175178034 -0.9489831210870302 -0.9136985868531232 -1.0247982684451318
P 3.8986214388060234 6.126396108386469 12.703171865003585 0.5450299043285517 -0.4449615408500401 -1.7112936111417432
P 2.3338643260770087 8.467161893221556 1.3993815829688685 1.3433798045053251 0.3622825764925696 -0.21272716202752395
P 6.388966881998304 7.786854650525802 5.8298225862720425 -0.6865475360907853 -0.22189314479750818 -0.7688405778637469
P 4.597407652667337 1.239956083709812 12.534356417549137 0.6234760615515972 -0.7241607184578689 0.49954271853003
P 3.9501391165849915 6.136910471794664 8.093999297393301 0.6245245574207696 0.5853771977973466 0.12554336782116443
P 4.82663338859817 1.0944217973922759 3.929084261530485 -0.512033394797873 -0.16470178318818085 -0.6998951610422849
P 0.2831192814310877 5.4835964019960395 3.514179552874324 0.01657641630144242 0.33747554475121877 -0.04859256419672276
Ni 1.5028962565502118 1.1478765686868924 2.6628089332722427 -0.11660827011506368 0.14214755203674873 -0.7668189194480277
Ni 1.9596358783282823 6.399697479101268 4.62590725363803 -0.08244705085232253 1.1757798738337428 0.2638422355357843
Ni 6.087005536989189 5.642528167652037 9.276341715079084 -0.8698674486007859 0.28843098061874195 -0.18311679536025882
Ni 8.725651255844605 2.3235661963635845 10.126868122297834 -0.3048482456345008 0.7250120107145708 0.7516350126187379
Ni 2.2810402363921383 5.30042844305123 6.914558015112347 -0.06449972234528246 -0.5778212398269598 -0.2865232220730678
Ni 0.5626779146882951 0.07129585306060342 9.12385101060605 -0.012453909492636616 -0.3946316822472365 -0.03788983306723797
Ni 1.5514767599752195 1.191988242419986 11.398958334997936 -0.9525713526589207 -0.12471521549291424 -0.655461099098626
Ni 4.188563794280835 6.878024431407217 1.5378017807284694 -0.1706703420667899 0.7200135290587147 0.5406644282710044
Ni 5.709200223539473 7.792656921335465 7.939108398908318 -0.9854413639140642 -0.04679022088066136 0.29616588736915445
Ni 5.218935369334761 2.887089224408939 5.119919257578363 -0.8407674459110359 -0.4036197446784597 -0.950084324571009
Ni 0.7232981051109562 7.42439291966748 6.620587406098715 -0.4757939528498645 -0.20880237305182106 0.5962172258356442
Ni 5.198825635721144 4.557107097804565 7.088872105230051 -0.8192426844653826 -0.4637467918773433 0.5048209362098339
Ni 8.101330520619733 7.171687808379529 9.063996622919968 -0.47774310615643534 0.5451018952170676 -0.22466607955695503
Ni 4.7585828429065735 0.40132523262460046 10.49625293528371 -0.6817138621475678 -0.5651194759895751 0.21823472210931444
Ni 8.103141477813432 6.991051585610986 4.688939375663504 -0.03524031125953286 0.33637742659103353 0.4651249031717925
Ni 7.027874381882873 5.987763280827011 6.877081111913782 1.8134052303025283 0.2609548866856603 0.5001811234449773
Ni 2.360848489236857 5.166057221226198 2.549522298634749 -0.10388696589365334 -0.1198584016212452 -0.4068102265912994
Ni 2.2345680114911386 5.300464482000359 11.271047995777886 -0.06697363780707175 -0.46857223829044464 0.8238601286327359
Ni 1.1538500245049155 3.363217800818059 3.789015281848262 -0.005676738669803127 -0.2521144055758949 -0.18524772566033257
Ni 3.6482318299995695 2.794144774606939 2.6833403225906607 -0.3598724243891802 -0.7731865135372683 0.2345491429986219
Ni 0.8866401371665353 3.408410643025003 8.11548031302125 1.1397589756544435 0.3418132528946242 -0.3036840501230705
Ni 3.6490427063549578 2.768953549166227 7.169719180783394 -0.2921415967011098 -0.5503921970817295 0.17083257867626708
Ni 4.112900020585876 6.810613577062648 5.913043727599215 0.6260602773390056 0.32938094066854245 -0.0560122536995616
Ni 0.5829146855975886 7.289724376512139 11.071428256555988 1.0798329887227724 -0.1819932232787769 -0.052859052782560575
P 0.1227504626785969 5.737310603859582 7.780802809993424 0.29203335325801966 -1.123218040576627 0.4307762504885936
P 8.530860735805906 1.6632155217476507 8.037586629348974 -0.44544927911973603 0.23040581025420964 -0.6298058604243669
P 1.701020379383284 3.3929589435862253 10.23137206503275 0.24492251581314592 -0.3349689762792812 0.05859801214886682
P 4.053084374770107 6.0878884912428335 3.6929372454195524 -0.11535768553741423 0.4474182299206488 0.3105614939691942
P 6.8861872533847865 3.9139740311346984 10.377309086606795 0.15345217841629055 0.042577725461210546 0.09582989991713174
P 6.218917100536211 7.749293055796786 10.27280514387188 0.4563800670996269 -0.867188359106726 -0.14070953403864156
P 2.3413153788092944 8.47582025074964 5.7427254559661165 1.2597194500711917 0.2226999569695197 -0.3781002602511166
P 6.988591927332977 3.8998017143899766 1.4918989712236974 -0.14685704169727612 0.625376878118736 0.6317827816450797
Ni 5.211952822941145 2.8827465310389737 0.6824839952231062 0.2819299462754306 -0.5662327636584119 -1.1869695719019753
Ni 1.5463952681481232 1.181744171130254 7.007945743988626 -0.41072781647815065 -0.0625431128395439 0.11263488728961246
Ni 6.949012151452773 0.5953544298629648 9.194148584775798 -0.2000999601818167 -0.02543438091270458 0.2515500484319926
Ni 2.822525447045511 1.5173929238370882 9.31820906325521 -0.16064072574492977 0.33129615541338425 -0.5755769238774733
Ni 6.404499669072619 2.0262268465801805 2.658351816238795 0.28682301270167376 0.12008054493438028 0.36428598007584356
Ni 3.996250951994708 6.901287573069563 10.406345667919503 1.0390750900791201 -0.19533699157553455 -0.07562719971701169
Ni 8.091104468804565 7.143586437796703 0.44577927637441306 -0.04465671947742632 0.31990231175414585 0.18310522539603305
Ni 7.557097340095325 3.864168203439326 8.209368983290412 -0.6649957780619387 -0.45722287471589645 -0.598502165215079
Ni 2.920109911547785 8.302590032026972 12.23538900823886 0.9364525927201871 -0.19099671232896784 0.8720276894768981
Ni -0.01378579901531988 5.021613113119795 9.916778167380423 0.0150617794291289 -0.6364287650575233 0.7594028294896148
Ni 8.748310745109052 2.2809321195447536 5.655560752630575 -0.09954642953677048 0.0658688347786672 0.8884115301515603
Ni 3.3875260720051275 2.7719988403675724 11.472698529783168 0.2339109951939907 0.17705233433373377 0.08000321729752029
Ni 1.072149726830959 3.3278005235621793 12.707563210954874 -0.25767133083838206 0.37386205380005294 -1.1983217636900008
Ni 2.8977477436136474 8.392336025093831 7.988716913357211 0.9503517192997826 -0.583242410842531 -0.31943745630258535
Ni 5.568351000608622 7.762140941161039 3.700942396994686 -0.0042446342089668835 0.1566269765998464 0.383753601882152
Ni 3.1507321567573414 8.5108951579888 3.5155769631267755 0.20402063539246154 -0.5464635514512847 0.31145366676616043
Ni 3.516365315138958 4.335593696987197 9.19119519289473 -0.18652813503465296 -0.44216649460340623 0.3448098736291029
Ni 7.27931812995133 6.158948289186646 11.448382149832545 0.22746781067180824 -0.48456912793933316 -0.14457030254562844
Ni 0.676082576884184 -0.0826949726698987 0.06043551574077688 -0.6154441923860561 -0.34000499604129186 0.6137876306192397
Ni 4.691802670171752 0.510551178669058 1.6401172582775667 -0.9179792165063481 -0.5871240052851243 0.18417737541428925
Ni 6.017990949408409 5.532276012531151 0.3066833483186556 -0.4837034375049283 0.46081547716316124 0.29366086155911364
Ni 7.882474992300581 8.704379266121599 11.463982509936477 -0.5520886109475459 0.5411773633516809 -0.10793413937983345
Ni 9.193806214759078 4.7948470354669706 5.636835815637215 -0.691649633204041 0.13586968944783698 0.989689854777773
Ni 7.788494422711142 8.721083319042588 2.669322973327191 0.2749779404376297 -0.36285413272532346 -0.2281496672301813
P 8.540483135223173 1.570469286165857 3.5302141823152526 -0.04549155667389585 0.7066286231113765 -0.09889465488538451
P 1.6906051230851926 3.135586788386155 1.5921313975131766 0.8303040844858668 0.2171386608316583 0.4631153289409314
P 4.71623707768077 0.7763104983050223 8.296638199578426 -0.5823091003949843 1.0249085687707509 -0.035469910771835686
P 8.495065049584177 1.603237700660804 12.429285762339179 0.17154168892814972 0.12789875542721846 -0.5855530612535785
P 6.212700381811572 7.764294268371458 1.4674114062647157 0.46266024368138386 -0.03248665977379566 -0.18288848139953665
P 1.8139484264769508 3.2262337551812226 6.075253235678436 0.27211424573658943 0.08333022478822423 -0.6564985392242049
P 6.9722392541659906 3.7136335129302322 5.956440929165838 0.7520124505628146 0.4752241963893235 0.587451306717556
P 2.3389458179041056 8.398111266691648 10.17045002347874 -0.13692692706775772 0.3578715919090675 -0.04777161095732418
