# total energy = -340859.01309663715 ev
CRYSTAL
PRIMVEC
9.40050869788550 0.00000000000000 0.00000000000000
0.00000000000000 9.40050869788550 0.00000000000000
0.00000000000000 0.00000000000000 13.75859469733608
PRIMCOORD
 96 1
Ni 3.754149560692599 7.438265331415447 12.176356739402525 1.796270370394455 -0.9445754789376378 -0.12682506274706545
Ni 1.9668778401558338 8.222371164323755 11.013411345097978 0.5833514256165695 1.8804014938174196 -1.9768890819232083
Ni 4.388411284591802 2.140354828088959 6.341364151179557 0.11013963167158451 -0.344020287848272 0.860356423786557
Ni 8.546143485684583 5.329590217715489 13.517915559605225 -0.1733625441869724 1.7136775379928875 0.958831988856652
Ni 5.849212737764879 0.5876568218142325 9.702382557067729 -1.0478111844005373 0.6351676389569126 -0.3144325468888262
Ni -0.022640185203107142 7.318991676766292 1.154377770656434 0.052484957272593474 -0.7776656323545446 -0.6035492407206833
Ni 4.689518979426849 0.373991719048935 11.863389362765353 -0.833159551656791 -2.829072997201302 -0.5584364075424447
Ni 4.1158341337243 3.372498307137979 1.1655277140501414 0.3909184950617074 4.523553650550764 2.46496159503011
Ni 0.5377373003543172 5.203830212049002 6.289259951492935 -0.9843776985362401 0.6343600554539527 -0.38298304226471463
Ni 8.76227998219257 4.184091227545824 3.6421613003020425 0.22410892150190437 -0.819407235067705 1.0730907849029325
Ni 2.562118052355113 5.499748826070182 7.565589581733071 -1.0150275622116132 0.6274905820276291 -0.16334886870471224
Ni 3.026766397405429 0.1482215812038995 3.4000511981985615 1.6642858749336369 0.46197195936510765 -2.8595783648790105
Ni 4.5066884853165545 1.7027329456108629 13.672424201041578 0.9577408126750021 -0.8358322133929477 -1.6942718797727658
Ni 5.646058343800277 0.5376395350636213 5.116917808671105 -0.24690200813701996 -0.5489940311826221 -0.33551147904631246
Ni 2.2653627930577844 3.5064085538653753 6.38156636677481 -0.5121012719213309 -0.25550131977025675 0.08860844246802804
Ni 8.178658798772165 1.1042401573941967 6.13226111529645 1.7189608978790138 -2.051226873404835 -2.7184636249821503
Ni 2.3471284179110588 5.626655693800603 13.31783795214493 0.20797164962040957 -1.1827467920698793 0.26287395808524405
Ni 8.28953779913367 1.6813279872536653 8.464851646470835 0.4926974134734224 1.6724349864033325 -0.9201569408839572
Ni 7.14762040278662 1.5887893794063863 3.5230399338941654 1.8119083340420277 0.9333307592617539 -1.0075302253933036
Ni 1.0993518928593953 6.973616986365132 9.139077753094657 -0.18445608299697266 -1.1864664070133113 -1.071690047900664
Ni 0.2955510541301977 4.395217252905641 11.774509432912197 -0.4599446445224336 1.7061017825281584 -1.7054196688594694
Ni 2.293094293784062 8.734821096219196 7.755870919055448 0.751215665693132 0.49013942293825913 -0.6444531780238965
Ni 3.498784741292829 5.717549212621747 2.832509584945037 -1.5501728604366012 -1.2578029497747691 -4.3919021129493325
Ni 8.07727431221864 9.31050825027927 1.421702857301642 -1.1329627786682166 0.5072832817073973 1.1680573083785044
P 3.901737547608718 3.7077580501555896 5.0372278161433774 0.18286174192665927 1.3716534546390378 -1.1920084198774632
P 0.1619839259711096 8.7241421183124 7.915443614539679 -0.48971159137222114 0.56918027632251 0.26499383264172427
P 0.18837679425554893 1.501261242707279 3.94644636708471 -2.2953387203912277 0.5714572452821449 -0.4653946118934114
P 7.218415633962754 2.1583662027979584 1.2194020295288854 -0.4317537839105145 -1.5413395784156874 -0.44895394983888487
P 6.487187662608787 1.3443479511401535 7.103672084466139 -2.708211865347155 -1.0907696902399344 1.11750170691814
P 0.8785236024488695 3.19228115445206 8.157002846832123 0.026862885829115026 -0.39975743350957604 -0.5819694576673784
P 5.601969957899856 6.698445295090695 10.568582092583666 -0.3148989450022835 -0.6886704959710591 -0.1368780761076933
P 1.8074452122515416 6.158705686378854 11.16759002867823 1.149481602258846 -2.4499782342474 -0.434895929083922
Ni 7.3706192706607725 8.917529383716118 8.217320270988084 -0.3489390653061281 -0.1938418950872468 0.05082402463040279
Ni 9.366065256819033 6.969226948792531 11.68459638715063 -1.7080689335568582 -1.1880553487669863 1.6344963023760302
Ni 0.9444315091410738 -0.00518908081386611 2.2389219821788693 -0.1214573706772489 0.2699732881341867 0.15883118334001678
Ni 8.555271379652451 7.689155508664129 3.254182564327471 0.5205874550154712 -0.5656936033254902 1.025384737076221
Ni 4.2284052256555436 6.147528481509855 4.660228874354668 0.7909937169220184 -0.15089495921207563 4.853325913120455
Ni 5.565326774906287 0.6227357601566651 1.8047970889449003 0.33995845907407257 0.4604676069054392 0.9059981328850719
Ni 3.517002927193685 7.18768537095455 9.075760626605897 0.6382467921028686 0.6423700702426227 1.6745322352519934
Ni 6.371241788046786 6.413920097639091 1.707483022667469 0.8134577023524894 0.9901043166073722 -0.8605705966798921
Ni 0.5653738559425148 9.074489677826849 4.913785975927432 -0.23025051562326795 0.4568773184510196 -0.4745425969412666
Ni 6.817089115655558 0.5723650142781528 13.191396409596187 -2.8203595285877037 2.0854523702466086 0.6399002685458914
Ni 7.970879354516944 1.2195937999067892 10.62962899621636 -0.4868759216956389 -0.6884807485577562 2.1628160930387526
Ni 8.746073505157959 3.60242534993934 1.4032252173600923 -0.2692618638894589 0.558320965010503 0.9607680295371002
Ni 1.0295625161163844 1.167702991768128 9.530743368589516 0.11356099864830765 0.12476406645297866 0.5926454493239858
Ni 7.493060896748826 8.191706704876598 5.649278958088013 2.0311673836507986 1.8678519392871833 -1.9246008140424533
Ni 6.549936058319941 3.6295552181074875 4.449226935709965 -0.6071284734315092 1.0331587245946852 1.0723942730565401
Ni 4.716893260821737 2.4177826414563808 3.415984120429398 -0.6741288507114583 0.10071062504820075 0.3223924251658512
Ni 0.2823452194792573 1.652449624463454 0.5148179200422032 0.49367828932945296 -0.45069844333381737 -1.0028240781668858
Ni 4.465110035244581 4.432245856756762 10.51283237561513 -0.19696629964884144 1.4949057124331804 -0.8115545717925056
Ni 7.3514234318529565 5.330191850273619 11.47812173350585 -1.0158582856430247 0.8146059570243196 -1.1250180698998433
Ni 1.4355046842054793 7.308688719208327 5.918108126128545 1.1785980600088282 -0.9709989632364888 1.1252592393763716
Ni 6.622554988187904 6.1159145706819 4.041105729699395 0.35195342665241963 -0.019296900556399026 0.864839399258575
Ni 4.826813409293723 7.879591014329527 3.27058269184173 0.6633924381305607 0.6068433380909226 -0.7582406908607134
Ni 6.559120355340133 4.275924797239045 0.8032527890707767 -1.2422549747378413 -0.38393126511059683 -0.32955320458034854
Ni 2.0950913785984424 2.2341249025786594 4.174536550482032 1.1553010371541004 0.7813559367219383 0.47883891032377535
P 0.7120612741231842 5.735541786313305 3.442854534556852 0.4423467289350123 0.7277515211329209 0.13470832214988412
P 1.3308300195996836 0.3592818030026711 12.250735444503015 -0.24984206460195038 2.116741153057561 1.0937470277007035
P 4.882633630077667 3.3884227689109667 8.493552339646223 -1.6263230225366185 0.48063534010256576 0.7036564278569301
P 2.917344475895643 0.2472267990001975 5.358009835680127 -0.17451465551354461 0.6397709420568788 3.4132942270173348
P 2.5699674771369576 7.541717929887541 1.5573907402281362 0.583726292457485 0.43130666907076687 -0.6302632596767598
P 5.6876555948896925 2.1385687314320125 11.592882203918164 0.5418383939744476 0.36906360397014504 0.8224503927694029
P 3.3092986870082295 -0.041058601939715604 9.678910426842835 1.169029956704419 1.4946545156543227 0.1750389034481308
P 7.484252620077464 7.599944680904003 13.434593210507792 -0.5331192689338947 -1.59179902061782 1.2315159910537823
Ni 1.683527706294326 7.7361674527767095 13.361149856025015 -2.4947804781637553 -0.35034237341155794 -0.6168539282493892
Ni 9.0741512595129 5.066996407109445 8.826853956697297 2.7872632602543677 -1.648153745258465 0.5795294807673179
Ni 1.842668918428274 2.988290115211309 12.452078360437126 2.1080513385930466 -3.523054878082945 -1.1096035351169857
Ni 8.748226221655017 9.159592483275997 12.895118696141875 3.239291221032886 0.2241590580135494 -1.2217303724219282
Ni 2.0330104190064646 4.3254842792149555 9.710815753441134 0.01786196788208537 0.10980718803283024 0.7378317881870583
Ni 7.00574792517273 5.204760862412359 8.62282813557428 -2.070616076564724 2.259761080396934 1.1927728088473135
Ni 3.994163349351348 4.063003274713561 12.790347206296255 0.9776948871994259 -0.6620292392344469 -1.2602964056205845
Ni 2.8124818011154322 0.040151452848161115 0.14061844975053917 1.8980572592259697 2.1582572700234763 1.2655612535639496
Ni 5.995183837181025 6.953894719068951 6.367133765735809 -1.911735528044011 -1.2309781162724411 1.0349374137616627
Ni 6.653238248652503 3.478000216511202 7.331625020436139 -0.08378428160650732 -1.6902622443927406 -0.8429801372916385
Ni 3.4929564258859505 2.1861917086114433 10.835663706053007 0.08362281632797856 0.1513292185360168 -0.09813437968059227
Ni 6.913773347848697 8.378090591283343 11.396024270694735 -0.4705072505296284 -1.2173378997811872 -0.6682132565579717
Ni 1.2667373511414606 1.2906898473619874 6.7668621975604735 -0.4897522148021694 -0.24346829986512258 -0.4229626679814458
Ni 2.9881491075804973 1.9022305416830851 8.402828029982054 1.2625823734412835 0.5711417709242551 0.1119787417628523
Ni 9.166022431241005 8.555647400001282 10.182612245322725 -1.5989921959321494 1.4964699715965066 -1.166216912735656
Ni 6.485617777652419 3.406029921744972 10.148779814436665 1.6932946034611613 -0.7437229568605127 -0.6278770188327703
Ni 4.797756436837817 5.678029473959622 8.030451318331348 0.8864590344108797 -1.664981615449081 0.37822058787906476
Ni 7.561684610410461 3.1444043635371686 12.80863213580903 0.051571187209072465 -0.982716251673417 -1.0782070230835752
Ni 8.901285304646626 3.1657435183333207 6.252648730229017 0.41662052781350184 1.06005683453711 0.20862985202969878
Ni 5.157119084215486 8.10100119622987 0.631137934851291 -0.6503106652459381 -0.4152776406323622 -1.4773882723747072
Ni 2.0873171578863636 7.46484056956907 3.6026190004189877 -1.1163979323309998 -0.8255814821992169 0.7525433833656201
Ni 1.7959201885598752 3.7725463562591495 2.1256204707200212 -0.33834277784752054 0.27669749423189766 0.28973247303898486
Ni 4.922068764161304 9.154356399918527 7.384347773596587 -0.6876178863368287 -0.2065210332168121 0.20718334939115932
Ni 8.338956273478768 6.934153650755331 7.444844747469115 0.7190293107685746 -0.8813980749482047 -0.30444355399691436
P 6.8244309129664815 8.90681280377444 3.5701487032465695 -0.7067918881621181 -1.5533967666905375 -0.3308899211139011
P 8.947291394326083 3.046573269280095 10.357484268750012 -0.3893395806103617 0.31842572720861934 -0.635028799386203
P 7.390914968988918 5.180526350930208 6.278569692975672 1.0304043017779996 0.6754707094513335 -1.0721291923206115
P 3.7757707307503745 7.264741340938718 6.724595630250138 -0.1974239560115503 -0.7503713154149657 0.00022599996787703015
P 4.642817252102054 5.966540487108834 13.515618075273867 0.5309454012110275 0.21137990397101017 0.6625074644224461
P 3.329716591949746 1.6473075461931916 1.7692998279643932 -1.3064119690317244 -1.906818807468684 0.8714085678356607
P 5.4448780566670365 4.723953042871036 2.6466718680949683 0.1292688963018677 -0.9714717891078493 0.985322836058329
P 0.9416677595771668 4.029612667737379 0.10672303545605177 -0.5827680423092737 0.5165546797069942 1.950343727334512
