# total energy = -340876.07275619113 ev
CRYSTAL
PRIMVEC
9.19008838473461 0.00000000000000 0.00000000000000
0.00000000000000 9.19008838473461 0.00000000000000
0.00000000000000 0.00000000000000 13.45062329942954
PRIMCOORD
 96 1
Ni 8.130342442887953 7.161311964045252 6.742743879135128 -0.44617484443185096 0.286387724936468 1.2577571841384982
Ni 1.4080501862182002 8.098765299546967 1.08670036922046 -0.6898681158235861 -0.737853128343297 -0.6320434915056341
Ni 8.479676078707959 2.2553763259268305 8.553049743560818 0.5743731333773592 -1.5097435487769613 1.3931391353166394
Ni 9.157684031887392 7.307756020837627 2.894762014087399 -1.1188319956937893 0.6209052155006274 -0.7182857477343306
Ni 8.344232557590542 0.778281006437145 2.927702966529608 -0.4307307419626388 -1.2954135610386917 0.3488922712285927
Ni 6.3662314762264645 5.140898625254327 7.078982558160439 0.6358600370382468 0.660797680820191 0.11656481847163797
Ni 6.201563474368555 3.774194646222126 0.8287750275002155 0.7587027180987966 -0.15684963413361375 -0.7334868809548013
Ni 6.956722218685235 2.8054490601162025 6.747290215808814 -0.08727069749321098 -0.12136352541186196 -0.38771335786084843
Ni 2.1521900146833546 7.031226264396925 8.755360347026608 0.306162336460234 0.7832891491889091 -0.588175072257458
Ni 6.56853288960397 6.304327041551006 1.8605168307696391 0.19658963303571303 -0.04213909526189517 0.001112773448204535
Ni 7.215147501208085 0.34624484714803017 12.125413508925536 -0.5496941425734405 0.11773647018223594 -2.027138979217696
Ni 4.904685786111909 4.057010423048518 2.695787412668402 -0.6302396055276759 1.6102127472383174 0.8772791676838247
Ni 9.010559908562064 4.868449268011355 8.396780563384901 0.3431525405313381 0.5070608812839461 0.8229427590247892
Ni 5.4151308596242345 6.636943906783917 4.011043439473739 -0.09319246229428467 -0.5086174271377886 -1.5162823783367434
Ni 4.132047493880633 5.383195302840206 8.627404909842321 0.1654070367853216 1.1466335912870897 0.4491943479844651
Ni 6.9791552241844625 0.16539401883228003 7.499596356722396 -0.47321050839340445 1.1278280285448123 -2.3874199518992048
Ni 0.004829391392807866 8.751849733302436 5.214672058947505 -0.5088331426930204 0.951434667951316 0.2882486894046068
Ni 2.285997700086366 5.434907929609626 0.6318286785653147 0.5372212069174103 0.6146710616654575 0.8863929570596346
Ni 3.240654880854184 2.246526270910134 8.025906279637965 -0.703384405142466 -0.8800022230419425 -2.264603753201216
Ni 4.578842015943696 7.500904106285092 9.829056741326378 0.08322095290386958 -0.9666465998050643 -0.8018152330175545
Ni 0.7973421685452758 1.670574248115345 4.350859819867689 -0.3736892756676145 2.5096627945922263 1.4152696486670915
Ni 6.9637985866632786 1.0137402583403425 5.080663110611092 0.00273231132949852 -0.2838978686350788 -0.427357968835664
Ni 7.274745223724467 3.42949281489684 11.93660774019187 -0.502004035586329 -0.25951069803996596 -0.1849592478856363
Ni 5.156273642952077 2.922346983078174 4.902012389430333 0.40908565288903737 -1.9117550684280362 -0.6789059603851275
P 4.9533748738361645 1.329373840425949 6.42731339800058 0.04774281460191778 -0.7686372036036891 1.0221939980530652
P 8.643535352796949 5.142506890703883 6.2974069050737755 0.6580201180750538 -1.0768535943794746 -1.5804280597767169
P 8.364735644550302 8.37176606208693 1.0668874578907654 -0.2846278048225679 0.22751563319060814 -0.4868797783503808
P 2.069442459781657 7.7640714743620585 6.348223498235585 0.12174559134162903 -0.4844200039559787 0.3926809862787689
P 2.5816796005092018 7.540256064313643 12.67464351201934 -1.1666102915193326 -0.44392461494509355 0.1547225604882819
P 1.693034823879422 3.4870687179909248 9.113913479412293 0.40903783037023744 1.5156403738773705 -1.7269500867320775
P 7.261373645272449 8.108947917364723 4.136846557982106 -0.6660177915685497 1.2405986700813407 -0.017540065766292374
P 1.9101138992162718 2.806055605942892 0.012759518572358592 0.6941286908721529 -0.44418403925406735 1.4273538335251355
Ni 5.326437317603324 1.608366540526541 12.90486441360113 0.746098913291857 0.7283163924974554 1.0777745635318472
Ni 6.818586001700848 5.886637529080753 12.663963710425463 1.0828902874918576 -0.10290660425825504 1.7101268445271516
Ni 5.417511092489577 3.3500169314239527 8.514567167883856 1.6292607650087039 0.35455049795563454 -1.092060641137216
Ni 1.8882598692788843 4.362158114403023 12.014876965073176 0.2381846828686801 0.4645044959789742 -0.49728349018220813
Ni 4.325287480210929 3.8136109348686587 12.237430576000316 0.39551614173471883 0.1767474014988053 0.7901228842812908
Ni 3.8027758207827964 3.0844693304816437 9.933903701522622 -0.572873151793065 1.1001220779891117 2.8458864692142147
Ni 1.4438731503460123 8.927986965337746 11.289471131573272 0.9301621317257852 -1.1946736254144523 -0.6468049660855247
Ni 8.891686116619208 3.4204681482027635 0.45540471577556935 0.562237783566406 0.22473498512167747 0.3224176219768318
Ni 4.182556219084956 6.546081503928177 6.305692688669885 -1.3945164752801402 -0.5611360658617949 0.4186216174039307
Ni 3.9219436955507123 8.583432175424992 7.679257068605476 -0.24195109188964778 0.510361920632721 -0.7291088064917637
Ni 0.24795041989768749 9.039756819037706 8.350523173020374 -1.8359376070770896 -1.3354824040351194 0.1978438171577883
Ni 5.068986184438492 1.0857813603921425 9.021508060733808 0.4166102434008567 -0.7807057047324489 0.39946818440393134
Ni 3.1590377068113167 7.145155788843431 3.9341858121527276 -1.017614863322815 -0.12230326361731196 -0.3428062129355129
Ni 2.5098039200464988 2.0541317727018895 11.56167143742377 0.41901422485665896 -0.9652787729232601 0.7910615940454764
Ni 7.59902667888454 1.38329208838333 0.7539493286986139 -0.28001730263375 -0.3612482216907843 -0.3099961083840274
Ni 5.93677865075375 1.9262333140649588 2.7733030503104885 0.24268539895251104 -0.23698989122963057 -0.7852755834913185
Ni 2.2330076510455856 3.3858307054634817 2.5304788616571554 -0.07236961201166246 -0.22665071408715157 -0.646415701066906
Ni 6.905009591915816 8.52604007409657 9.474309224498755 0.31670617341435137 -0.7279273845891527 2.0181290624096015
Ni 0.7968955302547137 4.19869401411021 4.372071462634083 0.35448750592818307 -0.1397872793346883 1.188676527290753
Ni 8.97175016574222 6.0524359117974935 0.6959635476671001 -0.15365709533824506 0.9750865030423014 0.6716821889431787
Ni 6.18790700317976 8.131619865159314 0.16999457702683687 0.1328049344795842 -0.4415432591971105 0.542269053753963
Ni 4.465767169707525 6.467947373344633 12.35884910338878 -1.0933860448168589 -0.15747544064307073 -0.11232095559361947
Ni 4.9739790517670395 8.875088817179797 3.228714199147856 -0.005096183575984771 0.28166460842918584 0.19525728737753467
Ni 3.118196954480892 0.02741495235753595 5.049229332647324 1.315275590069941 0.06095879907155952 1.0671484512765688
P 5.785914161497168 2.0267544997063145 10.876025601872191 -0.7743543085931244 0.25666525817137087 -0.4155067259240328
P 7.3398294289459045 3.7935765424113392 9.323447492268658 -1.1306127903788012 1.6577136210327579 1.5905206681260284
P 5.334974909618392 4.904189521344618 5.155650554966478 0.7596789659691369 1.097301063600549 0.004966342866339834
P 2.911943803141621 1.641551949317082 3.6798749321542554 0.22231352016437844 0.41477910372938886 -1.5161206559478986
P 7.926019210088149 2.8797049734442473 2.433204534206245 -0.23986412745363206 -0.29595274291708384 -0.5793016810272281
P 9.116273494083412 6.986231592162506 8.99144544394189 0.5036842515022293 0.9251335681629422 -0.7798305012163472
P 8.712755097745815 1.4091254265473316 6.616966492873954 0.00446754885305037 -0.9065164672823871 -1.6213417672719432
P 3.459296271199173 5.210375692675122 10.616993773522651 -0.24679222203203305 0.617823234141194 0.6517903351152581
Ni 0.22529041921786572 3.4349333471604795 10.632515832632933 -1.372467980120533 0.013533772820376691 0.07263443563727491
Ni 3.0339238449241877 0.27401718630408184 -0.023758216229661074 -0.8276059688284134 1.7417267308206197 -0.2832718050153057
Ni 2.9277231847238308 2.4671251500594398 5.630807527489073 -0.6306972618903847 0.18929181382271917 -0.32020750169939044
Ni 1.3913885561608064 1.4992618124287012 9.542154132240457 0.39409406457621166 -1.6897115140955932 0.3491360118082826
Ni 1.5600634365101793 9.084236846328267 3.296680416054897 0.5030242493207272 -1.2674037060893268 -1.1348941913629744
Ni 7.587989382856448 6.274468444718973 10.21919161209719 1.9749921220108115 0.362481322766937 0.21062965606854694
Ni 0.20142467895529148 1.3832645181184806 12.348196872059752 -0.017581717637505205 1.0877514722389008 0.38505920806745303
Ni 0.8162020677200054 6.617424159270455 4.901043754125287 1.3935183730329292 -1.3905986282829728 1.0328496779946987
Ni 1.0333243364717861 1.3370659443189656 1.332613346545768 -0.12825768142853397 0.1118923526966331 0.31990256886446194
Ni 5.875995406848838 5.162385051660387 10.743294994815967 -3.057460234363586 -2.491101229539955 -1.3218396164407042
Ni 7.639371166447672 3.5939953951656527 4.426425320776087 -0.7989299410499596 -0.6207494066490535 0.927146741938229
Ni 0.6658044349482084 3.3611645085114428 6.732857182160089 -0.06438248004112783 -1.6414079418941991 -0.3263341834224186
Ni 3.2321816194570974 4.76654037903924 4.42470309823182 -0.2245431808258455 -0.37709187359126023 0.10645626928272633
Ni 8.853299117860391 7.707828134069034 12.311408948662208 -0.6840692497536219 0.11844095244842827 0.7093735328463654
Ni 3.731368834822536 7.452849134652376 1.409302795251197 0.6893042729003162 -0.13247403350272668 0.08598514591256805
Ni 4.374436072349344 0.17840902185891086 11.376671284248168 -0.24566736439897047 -0.6997084989527755 -0.6981694366004298
Ni 7.653101158342735 6.094563276487562 4.5795468957150165 0.011546567187018825 -0.9984385475046804 0.05752123414492028
Ni 8.62918043489863 4.92481207945206 2.6490466236601797 -0.12171653787590651 -0.5877045603789427 -0.4909115252175933
Ni 1.6328581258011996 0.8391046867305029 6.828881657604488 0.0678185023058703 -0.16937887694887604 -0.2334073160846948
Ni 0.9332994155977218 6.287408089021682 10.76886457744624 0.4121357525692708 -0.6767482906121763 0.6359837071003047
Ni 3.8680713980347465 4.273464572382112 6.73328819730057 2.0438370086986675 -2.3068050691596143 -0.38930384227641984
Ni 4.005022093630604 2.5033157177185785 1.0754379160294303 -1.0154847043536899 -0.3727693349565064 0.4641635676997877
Ni 5.348070785421915 8.261567713483393 5.615056635180541 1.7982015259788968 2.7768860307851018 0.32913308632379445
Ni 1.9665686115398089 5.254543256964054 6.876066327876788 -1.160430645071182 1.8524227492163066 0.21999849887795658
P 1.8317775866904977 5.5679712178617 2.840650774276072 -0.687418625841829 0.9406478617484574 0.356854720608779
P 4.770152083734527 0.25305459493016225 1.1494218027442933 0.7010876386884893 0.9981899218289843 1.0982418302472634
P 8.94462102513029 5.002734838005091 12.38776847319827 -0.312930508422003 0.3189237498909604 -2.165712697860257
P 6.073995858909819 7.526130898622404 11.335956436127224 1.385404485676543 0.7419476101276449 0.6001034482639278
P 4.696125922613561 5.516984608066651 0.8836168793300555 1.1302114411753246 -1.1499616272190583 0.47032701619802225
P 5.957520680008874 7.205598999481866 7.765946252371826 -0.6157689227153267 1.0306891800082703 -0.04132791221450947
P 8.566053718481509 0.6009996084105795 10.467759605927506 1.2029168392598508 0.39151139145069996 -1.1005105716767822
P 2.9861170056751174 9.048662014584101 9.625413575059527 -0.17451825505797042 0.5772671670957025 -0.028959363346827544
