# total energy = -340862.12634480663 ev
CRYSTAL
PRIMVEC
9.34819525193056 0.00000000000000 0.00000000000000
0.00000000000000 9.34819525193056 0.00000000000000
0.00000000000000 0.00000000000000 13.68202868125963
PRIMCOORD
 96 1
Ni 3.809763520838537 3.2160315914597817 0.7178582016613442 -0.41269136796242467 0.3561852053455801 -0.5491431551659768
Ni 7.013109611248661 6.0014011727082694 11.105183021843322 -0.2822942715933848 0.11613235891990968 -0.6944223108531719
Ni 0.811148516860363 3.4347700137596804 4.199808557202622 0.2836299596856728 -1.8624752483563023 -0.1342925747687042
Ni 0.25812891292108325 7.297135829665594 5.768821812417122 0.06317149045216218 -1.0999300165829637 -2.7503149651647925
Ni 3.6698958224560805 7.931775461766019 7.608370905381818 0.15777651682325733 1.4817969429653641 2.481565522135378
Ni 1.5782745123183293 2.0729810086690565 7.2885121194826095 1.340574473846046 0.39063695926554654 -0.6642277895476625
Ni 1.5723290600946132 2.035793887684869 13.196357488244763 -0.7564635443556327 0.7868557834942449 -0.577763904226463
Ni 8.678163420725413 8.116729506178324 3.544589807924069 -0.6989579939399962 0.40718946430758907 0.874054747209256
Ni 3.3125517081419673 0.8059182015786505 5.726381005662922 -0.6279780631870087 -0.865935203425915 0.5866982306016154
Ni 0.14025190921012087 2.650783613222006 1.7171494323577687 0.37282358523320946 1.0930111779759433 -1.4083752355401036
Ni 8.387873911443872 7.599073190316239 1.3250384448278953 0.20645212765208965 -0.9546562602124075 -1.4957971138991981
Ni 3.4428001135398256 3.2202102347679595 3.099458660996002 -1.5359330626881356 0.3177266442590657 -1.7602253038454392
Ni 7.107713347890182 8.15142065901199 5.845934140794815 1.855074842127173 -0.14310297397148258 -0.8131692245777932
Ni 7.367948409216931 4.449198777138281 5.426388069638899 -1.5605246359845706 -0.8266857710069891 -1.5583528251442325
Ni 1.0002849438589734 5.812464797089515 12.072187455542466 -0.11688003571921161 0.4388993938163603 -0.46919650213800485
Ni 5.820971654830995 1.9631210172647906 0.32986789862866295 -2.3328804260904272 1.2102815071550383 0.639995399362859
Ni 1.296725565661277 9.336323112251735 2.0871388504816637 0.07639930199634584 -0.0652923934499069 0.1589931628391778
Ni 0.15257096100322343 3.8488015844961456 6.478687307079602 0.8701386999843015 -1.088847533516557 -0.20406228726367434
Ni 0.6122207900832617 8.949074121107953 13.5102371684171 0.5958107344258448 -0.31303540943098346 -0.05634649711052877
Ni 0.9734088823130863 6.081197367962424 0.7879416219776972 -0.6603968458373465 0.5402926467538824 0.16168665051094092
Ni 8.070951393694772 4.808543405250941 1.4568760434302066 0.47058618339667985 0.3905873369745338 1.8143930481370947
Ni 3.688190240697925 8.778385422754441 3.799882478384971 -2.3186617113878847 1.9751618148194565 -1.6146538137288062
Ni 5.307671597988174 1.0108857973522032 10.067592234919594 0.009850410431518518 0.7374162979161946 -0.810715877941294
Ni 0.47599795305619375 4.699664974355308 9.498023520804773 -1.7245404488493201 2.7271295281872647 1.2672988050803464
P 5.754347066783156 0.5489035935397479 12.493019838374455 -0.31498944783356075 -0.996939851471967 -1.7282433516222042
P 8.510727894343367 5.6254167569254605 6.60352217256747 0.055376934108407855 2.859445438845572 1.3485572349412067
P 2.5939559338698506 7.5611569100970675 12.982945667638376 -1.0496695777655147 1.261879433836988 0.9785461794561275
P 6.219214123671458 3.9574556587040917 0.7966457266404363 -0.8492009213903698 0.7245312144234103 0.20053267684386109
P 4.503156560527102 6.6310208239216895 3.5386649217300574 -0.286683401800016 -0.5496661175489823 -0.2987717004231177
P 7.639578920639136 0.7298238916713391 8.512014206019442 0.6572703843932228 -0.9803870893196083 -0.18983534503101498
P 4.02132252913244 6.172482495265236 6.49952443444857 0.927026671420597 -1.7914374677821856 -0.21852602809748817
P 1.86826487934962 3.931682684206001 8.347994510207435 2.0829589144007934 -2.4562956918249954 -1.6448802167135157
Ni 7.4877642286373245 1.0225149523306671 10.716736526879009 -1.2120599392116995 1.9265831345798043 0.3182262096033036
Ni 0.06831100248362253 0.18794920619293104 9.737458847543834 1.3708965218683553 -0.14243114471543858 -0.7880870847981847
Ni 4.749537596389153 2.387211246165907 4.670087284361851 1.5946557733403246 -2.7801952976639925 1.1617596482952506
Ni 6.0014011727082694 3.872190769187557 2.999853639858115 0.48787608082537914 1.5181911653236821 -0.2795182515101444
Ni 4.792277545393604 4.488853821687029 4.949296377730231 -0.6947203017095649 3.786632289993117 0.7478482918827959
Ni 5.048978988889275 4.4113666306769925 7.466338164963178 0.24689300927595545 0.3242191939619449 -0.011455293024793176
Ni 7.819269931086107 0.7938618340740484 1.458791488651338 0.24587690930661524 -1.162757750542462 -0.9897114520443276
Ni 6.820499394869023 6.312415631014935 3.750832497539312 -0.6859705805413928 1.0451680903507354 0.07507055588259329
Ni 9.040602301489095 1.1924464468632354 3.3192188410444112 0.006258322204885996 -0.20964955154346473 3.0996029291699068
Ni 7.732509330318322 2.2127084841217077 13.222887666563798 3.9826416250453285 0.48746290454736046 -1.1348983051280326
Ni 0.24746168724107923 2.868288073739625 10.864611889372842 -1.024282762261294 -0.8021978131679539 2.7014820028224897
Ni 3.5511176527162407 6.781096751593923 11.182403789286731 -0.4353921519940502 -0.4725685039340313 0.5255170311066046
Ni 8.916785454471608 8.047702431933166 7.590200818137735 -2.8759061555047567 0.33177129527758986 1.9345586965861132
Ni 7.441406528043916 5.271222984434291 8.547984191972924 0.5160286320001951 -0.36841799996634617 0.03456154002495338
Ni 1.2709525911631863 7.216086976238519 8.99920381851311 0.1878162577184572 -0.12151933426343589 0.21539570999862256
Ni 3.0420897211348006 5.437667602112384 9.296295074709706 0.6455474395293398 2.200674815757739 -1.0619442813678097
Ni 3.435835708026196 0.6893817290766203 11.20034110646734 -0.8934673474079129 -0.7429495690295979 1.2702882267259736
Ni 5.518333179531327 6.0878813276164445 1.585473557534499 0.06493038212479785 0.24780549378789582 -0.6921371143634208
Ni 1.9104813294161334 1.9055454822870104 9.826966882916256 1.2840186889381886 -0.2591800541734246 -1.5610257439907052
Ni 7.467889965386349 7.90182384395975 9.40937738904088 -0.44460801416536333 0.13608797610623016 -0.8226349979763833
Ni 1.3354644870686356 7.027272127158927 3.2116098950732757 0.5845133071351547 0.8789221026038864 -0.741268324672433
Ni 1.5935027224951117 5.822299098566479 7.258261359426091 0.3833903050054623 -0.27489720779836524 -1.216305344751615
Ni 5.002565199123944 7.838069151875247 12.897816326953986 -0.7630016025844667 -0.5914529716777814 2.6642053778592176
Ni 5.321516275257551 0.08907053983143166 1.188982940497061 -1.2341616562067454 -2.187101962169311 1.2948656589550216
P 3.311878638078905 0.9055942690009721 2.2112071639532664 0.47916544042525866 0.7415367478424714 -0.6817765970647033
P 6.727438110455352 8.33872110044969 2.3832999612438903 0.13891207581858658 -0.1712141303854019 0.6961992002479365
P 2.3522489956679533 9.102029292938841 9.300865407401805 0.5631332987974818 0.6862053222600182 0.682855946171811
P 8.978689203882691 6.702179286699877 10.38657509491729 0.9867174024130104 0.08279672088225741 0.23303707722946962
P 6.482010590515972 0.9153042394801766 4.99474730337757 0.3090242313890613 -1.7512997192210356 0.057103944101843586
P 4.039878696843251 2.7991207765646617 11.79332050612281 -0.6488903878596438 -0.07197109102166316 -0.010837971155768431
P 0.5289517402676135 4.000952811529487 12.98674944831421 -0.26793183222412564 -0.9585859342841169 0.8710434711867578
P 9.151247541300267 1.0077821965058607 12.026434583186278 1.9601992799723529 0.09294383661858832 0.9521345222318183
Ni 9.080388220772328 1.035452854653974 6.101651219323258 1.2581019690724269 -1.6712941879306702 -0.6092987416099507
Ni 3.0415381776109025 0.34171767101668604 0.07800788548937856 0.7095403974415329 -0.5300393444569904 -0.03331481210204585
Ni 3.286965697550283 7.836311691155029 1.7875983671111457 0.3654576317864416 -1.441797776864607 -1.7175089959238357
Ni 2.2298343779485132 5.290386784840924 4.255520996853065 1.5360788442373803 -0.5759103959574919 0.11679133266014724
Ni 2.5191049339401403 4.169968182920665 11.150101100357405 -0.6367131290671616 -0.47924257352009725 1.1545369052945667
Ni 2.6100909189927033 7.563503307122465 5.7188968404894815 -1.0954984631741713 -0.23357238090764937 -2.0435197345685645
Ni 6.523955942918195 2.687194833994608 8.732719488614734 -1.705385216077108 0.3616310589514998 0.570867434216946
Ni 7.317243797799578 2.2824366730158894 6.408525361922558 -1.1399466661852176 1.286447095874023 0.16112692135272896
Ni 8.76014709368452 2.6056131334342756 8.3522077418383 1.7238647629385344 -0.4312719591780895 0.9867891361912103
Ni 6.013198595202499 0.28804687722419864 7.209074894928756 -0.38985431546325117 -0.6070868215602965 0.5140691942809791
Ni 3.2645487251721828 5.691835684676253 -0.05246861587429567 0.22321057805735106 -0.5888134771724053 0.7137703763624804
Ni 9.063374505289366 5.312560704140695 3.632003847544742 -0.6578990191161572 0.9453902615294494 -0.20291274704026344
Ni 1.3854399392510048 7.918370149676697 11.16122451796904 0.1595796314702671 1.8430991578225355 0.7596982492428466
Ni 4.953533914668927 7.968513869374831 5.238903468753389 1.420303097325941 -1.513010392453691 2.611480793771993
Ni 3.9298410897279004 3.3717725254961213 9.362448513713401 0.8281577275668254 -1.8349418188227236 0.14591498949898096
Ni 5.348439077780039 4.922722262893188 12.685060749659085 -1.156561906144395 0.9301081385593981 0.6372283781406832
Ni 1.4775664041326455 9.04321044798346 7.301674378493604 1.3593810650295877 1.1921349181529983 -0.5998576508017088
Ni 6.21714817250567 1.6206405335099674 2.9891125634350804 0.3683143845089463 -1.3065474661683238 -0.5703141328166372
Ni 5.795413688825271 8.216773892496265 10.89982934560304 0.03209328099011892 0.9583558205511818 -0.4944017977590388
Ni 7.702071606355399 4.687456231266984 12.909773603588194 1.787242970084864 -1.5226132056507775 -1.3451705778571608
Ni 6.174754106728071 3.087942619180914 11.60271641245891 0.41775181320446764 -0.6109892419384961 -1.4388034701229735
Ni 5.771108380992469 6.7054605032573065 7.842278644227982 -0.21873557300513297 0.8955435132106512 -0.39657517912685253
Ni 3.9761707457353492 1.140498525468281 8.028135724308228 -2.1059664310395605 -0.7556194511877825 1.741240020992188
Ni 8.279042221524842 8.469558442152728 11.738496145027796 -0.6038860552348116 -2.5714800850093393 0.6694597273705633
P 6.87950520373081 6.5541038728261904 13.375907340942396 -0.20775104896917124 1.787959022315282 0.23711278996074003
P 5.185219587487452 6.406766966382808 9.937845827610435 0.4031140086866348 -0.6990333272626219 -1.6132247945917635
P 1.2092825466351111 8.990084653978148 4.7023628635247485 -0.2982456527163186 0.9608027394297775 -0.8936504099529964
P 2.6832966365460393 2.784574984646262 5.094681380990732 -1.2838106866924406 0.3902170981193086 0.4789450968843364
P 5.120221585425347 2.3533333863251094 6.848019547072479 0.17921334654079457 1.0143176806287821 -0.07154814455163161
P 8.007131264243027 3.145106833564601 3.671517734344154 0.25939602683897256 0.403774267978453 -0.8707411094549906
P 2.2827451634614593 4.8973980017704735 1.8611256625835004 1.0112696378310777 -1.012157953973302 0.991059224321474
P 7.854353708123224 3.806463607890468 10.183041512305874 -1.896094479072644 0.17655765408550236 -0.004409699031921437
