# total energy = -340889.55009855697 ev
CRYSTAL
PRIMVEC
9.07963789448391 0.00000000000000 0.00000000000000
0.00000000000000 9.07963789448391 0.00000000000000
0.00000000000000 0.00000000000000 13.28896784244084
PRIMCOORD
 96 1
Ni 6.702897395922573 2.091848693163964 10.946773714202207 -2.070441241549757 -0.03180506032573877 2.3132212570986033
Ni 5.03629354319949 0.4318539088588791 5.886813186886282 -0.8219415714537845 0.8344407323620596 -0.7638559801649618
Ni 2.7208860059801117 1.3978011730764015 4.709809739983838 0.40351124412505346 1.3257201824420328 0.09449524026610823
Ni 3.576414885889198 4.253892066832859 4.826752752077921 -0.7273931093522377 0.7624544718317449 -0.7952113545477917
Ni 3.514464516585725 2.9123483301047375 2.686910001006699 0.038897705506462044 0.05186892095514938 -0.07046236768662058
Ni 5.161601625678932 4.611039623120722 2.5606776113903544 0.34706704509439584 -0.7073385046942077 0.23857523343887943
Ni 4.766455784833684 4.919638355626427 10.958109642104212 1.484750112056417 -0.5234586059156792 -0.10236821525628176
Ni 5.759087196837514 7.876840096893286 12.225531754941246 -0.168956958920109 0.21968019630658941 0.5225384080942549
Ni 2.1118602150670642 6.548988454098865 0.04419786130667499 -0.23770980011479065 0.9555669449521349 1.141725612462511
Ni 2.9210103046490015 1.9868063624484613 0.2606482568603041 -0.7289473412132349 -1.7386892295458765 0.7823123870979366
Ni 8.251656628509386 8.669692236467935 6.91458188954928 0.3509995473795826 1.2464425304566276 0.3850957177323432
Ni 8.763938877735711 2.5430431386860888 1.1640540673479058 0.16423821328820098 -0.058884433041034065 0.7499609673504246
Ni 7.2793454460968166 0.5216524355257812 4.929635944903878 0.32409886633399665 2.1152686822770925 -1.2724800921709696
Ni 0.8509672698346229 7.3820452302374555 2.2624732483377668 0.723824675274689 0.39592109048262136 -0.5587739933875215
Ni 7.866943291596381 3.9892297020626812 3.6169118867931034 -1.3343302927085474 -0.8878983379605676 0.7331467240065632
Ni 7.836045283866684 4.273376969738509 12.438739811805402 -0.308381712709056 -1.6445922531594515 0.12742618666617408
Ni 8.180027365218297 7.366918553517597 8.956245608183835 1.467230358005099 0.038111719270056944 0.6161095938841971
Ni 7.031080907350686 0.9769599570107486 0.3254959386135403 -0.5805149846090389 -0.7248081222338808 -0.4504202499717662
Ni 1.7234696248097963 6.6015323185513335 9.126850188154286 0.8474685120802954 0.8686559447911877 -1.2104015776726702
Ni 0.18415957137205652 4.906718030913128 1.227458994640887 -1.056292225288355 1.5146245310183462 -0.049158464002521794
Ni 6.447260191212143 2.1183339968805446 6.975498996061203 1.220558463601014 0.5540171954288264 -0.1059091385300047
Ni 3.4547114196509234 4.294714118773122 0.29667262814103945 1.3042368157572763 1.3638164750931223 -0.5744307260881719
Ni 6.139732855977112 5.747919242236419 4.634089191860836 -0.15273715462713697 0.015927984084166118 1.5024238751870962
Ni 5.255258090484049 3.175312802590033 9.169308390841799 -0.3040020955841216 -0.35284302834622455 -0.34880151128699927
P 0.4191959856805161 5.607139456797412 12.294926519348325 -0.25193802789903064 1.184108448304096 0.4813362228243323
P 4.101562982001501 6.2964564855458125 12.515337452948295 -0.20739212296785572 0.00923797365850022 -0.8049167547610138
P 2.4917522642620353 8.700145341941164 0.9598330360643702 -1.1582637193268503 -0.030011972981057986 1.818108549315469
P 6.540026851504328 7.856465389474703 5.71264848090031 -0.9984704291838804 -1.4728834425258182 0.06928480243875164
P 4.883510476473779 1.4295980649569175 12.471151395170871 0.7564810278571293 -0.11873457242944713 -0.19535293241513452
P 4.280059583223392 6.266684352914112 8.06348022533609 -0.7190966736714003 3.386052617692562 -0.5209484378993157
P 4.506977893297023 1.15124360625304 3.4927396670133346 0.7309157777935154 0.7059912466376937 1.0526237752978322
P 0.2003549214712217 5.636739076309258 3.371863355786573 0.7019579571085847 1.1885477150223724 0.7264554280293166
Ni 0.6502010407671169 9.019249215482208 4.581305624968149 -0.004766053930075663 0.470038538423326 -0.35521024302682047
Ni 2.151347560237928 6.4771321998606 4.3472997495598715 -0.7238079631041405 0.672120819142494 2.190321240437557
Ni 6.181580906998613 6.049372299725 8.980804212740779 -0.19755122561803395 -1.1212987120667268 1.0621677102325258
Ni 8.699773076787794 2.601052945146573 10.222644445830994 2.75080990252334 0.31102172143506435 -0.8136739321283536
Ni 2.6081623016121487 5.537326121083738 6.684935148290584 0.053071940124315056 -0.6146232391466575 0.029235242716033522
Ni 0.8287212490475149 8.981432523682564 8.908564797783681 0.15239519790668596 0.9867217732883845 -0.043770717328047194
Ni 1.5509111067660477 1.2510923840971389 11.32000766493459 -0.16804293174627188 0.16513681384307044 0.047723531328208134
Ni 4.367968637245995 6.650017584868283 1.4997264641052732 0.12441516775399217 1.9655111791035695 -1.1216661227084745
Ni 5.8956812692105816 8.207829216428502 7.807255568054366 0.4230354302009101 -1.3310318244629336 -0.46252603209636467
Ni 5.551417719084469 3.0953484317186155 4.877463437640991 1.0984050952980051 -0.6820213660856577 -1.0449968548801938
Ni 0.9766240104089271 7.1342709919372265 6.636018599173999 -0.7311065536480829 0.8608917274647365 0.2916039790300849
Ni 5.117610780116082 4.822005009426773 6.878050874474446 0.794997952985405 -1.1500675566693033 -0.5672169819485522
Ni 0.8309557479315226 7.452494140603224 11.166733389799187 -0.5156830757353184 0.16868467909532886 0.6132515556101116
Ni 4.9062458897429995 0.3639618245221086 10.447653308056976 -0.9419179867101326 0.82883881279425 -0.3693893627406799
Ni 8.32744436595275 7.122794329647971 4.792161147655765 0.4910079415861415 -0.38278223910781817 -0.31088853829130975
Ni 7.557055250510713 6.153715498323199 7.003937329887292 -0.768822837251934 -0.6298585680391734 -1.2599842736968043
Ni 2.4823094408594835 5.414760089246192 2.4352959838440285 0.16679003317577729 -0.7930937939841567 -0.9171186682782657
Ni 2.4608814954460008 5.4129350820308915 11.152101553344176 -0.9699864628115746 -0.825395848550972 0.5033842037633073
Ni 1.0727410570814406 3.5829794640815487 3.681030473624008 1.4655874230850372 -1.1305770520448595 -0.5116317884840802
Ni 1.8132672435129096 1.0675656634858113 2.500465084778467 -1.5427637124567237 0.6551602800287555 -0.9155546662252555
Ni 1.1512254469772658 3.5055119936290753 8.036303961176303 -0.7031890013022083 -0.3970204941943872 -0.5261778046190552
Ni 4.0194285776750736 2.6240698271902936 6.611766886377638 -1.2010466188203317 -0.07632165468087501 0.9220356459639089
Ni 4.310467290507186 7.2184119962366955 5.704076394771128 -0.27005659187661235 -0.5603395381024285 0.22274469416452605
Ni 0.39269161472437264 0.25357158709112243 0.3691753525968637 0.7706321225465309 -0.7075215672392913 0.251374956306709
P 0.2351335664338512 5.485236238525623 8.035799133309782 0.18632758898807264 1.0428386708866104 -0.8483367736178615
P 8.746306220959024 1.7620036080025177 7.859348174503848 -0.04103352090254224 -0.8976836994821057 0.23075008096750585
P 2.020101394580344 3.4705281488501982 10.069090517848672 -1.299639169084265 -0.8744998051664746 1.375634807884289
P 4.299798715989881 6.292189055738889 3.58569609173736 -1.2337060567265656 0.1676490387419629 1.4508179780853465
P 6.834361472889446 4.29301622648824 10.381408270032919 -0.28723593186937624 0.12220324770433792 1.2599783601595331
P 6.455731493360778 8.048508810424101 9.953396863927846 0.03000374545094188 -1.235512513807685 1.896557791862308
P 2.4028535297097418 8.462839926124726 5.68580453148719 1.3422189514280045 -0.45122243415808744 0.13309726890902238
P 7.071630570154337 4.1819540958536106 1.6441108657854462 0.31732015284926646 -0.27137196825392623 -1.5842746872163167
Ni 5.552607151647676 2.992013072925882 0.6999856032657055 -0.596283046076573 -0.11753309592217823 -0.6450188207193794
Ni 1.7614406704535193 1.1014871906319015 6.824961323784964 -1.2492656017277193 0.42203527107116995 0.8425088540821748
Ni 7.094302425958348 0.8247352880150914 8.993521153565409 0.7460678029436053 0.5830349228174153 0.1870917208476068
Ni 2.8733240464661147 1.8563410456491654 8.802957713591603 0.5886571541001991 -0.4409081967162729 1.3087465307021717
Ni 6.46052554216515 1.8613530057628276 2.7788821929837653 0.9731064964977949 0.28090767565850333 0.031187481346397903
Ni 3.949969347838995 7.073537294110621 10.17360895345809 0.7162815728201083 0.8750497641326735 -0.13558275433503747
Ni 8.107008917330488 7.211811099492796 0.38704135606724954 1.2449692883452108 -0.325651041312465 -0.7405643566268729
Ni 7.607574355714364 3.8946834327446314 8.488035921261343 0.5196901400121824 -0.10651283355227463 -2.090694592482154
Ni 3.460059326366407 8.657207734373214 12.410314189472354 -0.030522851179205498 0.08845237650613799 -0.7234040427975026
Ni 0.11590520948359194 5.097118037404966 10.156319506993533 -0.44788077137936416 -0.9149242317301083 0.5852861807454371
Ni 8.873185080792927 2.404442466339979 5.674229809108755 -0.1985184746273097 0.18556885644517718 0.07651294475607467
Ni 3.504794702235997 2.873750789446807 11.483235947085586 0.7457466721587609 0.2847471040092516 -0.8522883020664419
Ni 1.1807524293860145 3.521473997034543 12.492746405921476 -0.11932695459780739 -0.495027861378812 -0.486244201648911
Ni 3.64926990029504 8.691465208121127 7.920464125085498 -3.2713274235328242 -2.1643674966862725 -0.02347057231811442
Ni 5.5450892114771815 8.265439518821957 3.4918625739934446 1.5286000193618319 -0.6543406123409377 -0.3016600777145063
Ni 3.238879347437404 8.473635615572451 3.4229054481325205 -1.0518640143136724 -1.178711445658241 -0.5297182136721459
Ni 3.2052211297900386 4.678110908192502 8.783529104440852 0.7013380641363987 -1.620583291839364 0.7500735816688888
Ni 7.335493926790452 6.372634647418322 11.35182180812709 0.3872955535971394 -0.52405227363562 -0.6902437539954499
Ni 8.007042104193857 8.612853703294881 2.798204570371237 -0.6887571421475944 0.8594683647546488 -1.180283418131051
Ni 4.821523788618758 0.6972508163341202 1.3493749244057185 -0.6983848950453456 -1.5594586566139015 -0.28593855321419137
Ni 5.952083979765054 5.465660539241101 0.056327349560010606 0.17290360227268287 0.3811557592479887 0.3992085029846415
Ni 7.985913786830647 8.807702732351384 11.37677810082349 0.10567953901770187 0.741238242765446 0.06134497876638468
Ni 0.281426100201073 4.965917269936818 5.572861099882361 -0.18034720303492166 -0.23948206152386503 0.7189406077095102
Ni 7.187586625610096 6.2504318010962585 2.6414618735629745 0.2272731781624989 0.12383101311574804 -1.5665191630051085
P 8.702451569964479 1.6307756016207076 3.3685538277767364 0.05555022646147853 -0.05210469111503929 0.2533426215560411
P 1.8284665573358634 3.6178089550163457 1.4365103932803434 0.19034905144263992 -2.317532739989763 -0.09194496304042875
P 4.964509926064323 1.0926708622435573 8.28640258677562 0.599648105894064 2.8890966860531018 -0.6537423166353064
P 8.641754190689422 1.699817168113981 12.259059225803036 -0.29780985073048066 0.6943834871954363 0.1322485477554819
P 6.302921187721405 7.892793020660866 1.118560541714746 -0.27069628234314025 0.7286550067837968 1.5106961424982177
P 1.8508660240032628 3.35574336668187 5.899983201641475 1.2877699284505046 -0.5289314561047923 -0.4992233875173983
P 7.120488101624655 4.163204643616813 6.077031600620379 0.051685858410065816 -0.4899265355965046 -0.5699675481104958
P 2.4451464829877096 8.66338188813642 10.324039486007262 0.6522816729293798 -0.13665798967708723 -1.1502894428721222
