# total energy = -381166.2999392427 ev
CRYSTAL
PRIMVEC
9.25637137907785 0.00000000000000 0.00000000000000
0.00000000000000 9.25637137907785 0.00000000000000
0.00000000000000 0.00000000000000 13.54763516163154
PRIMCOORD
 96 1
Ni 1.9903882928150798 6.562878422284461 10.108215857337553 0.2567642456430804 1.2036640018385205 -1.7328867639314869
Ni 2.6304941465047738 0.3160819435001927 9.19238213704593 0.677023398650434 -0.8644861296842143 0.6346570178690811
Ni 6.000174346515512 5.527247817272907 6.702285855521839 0.008177907825102046 0.7221107779073758 0.4321916427788815
Ni 1.8334557715440567 1.4578229624311985 5.449306392897633 0.18024204491562507 0.1908434745805552 0.4310593289466511
Ni 7.923148486185796 7.0757832197451584 12.844296507138685 -0.2294092506688952 -0.7520471604554918 -1.3262896817922578
Ni 2.7645449175940127 4.239084886832777 4.855526826954619 -0.7647121575176701 -0.37761843551869156 0.08375034304477834
Ni 1.4453083482541063 2.7947669703219766 3.458399743282318 0.11049212991499681 -1.0173466972630931 -0.08244833640390317
Ni 6.593998343041402 6.521687569408677 10.74173024892998 0.30350715822557406 -0.7878171189662496 -0.8479513652539848
Ni 7.446315768198565 2.782020946859065 3.1946949775344016 3.109960104034515 -0.06592822726169291 0.9437547828085552
Ni 6.13643739037718 4.378874608210328 8.870801908914677 1.7761414608550636 0.644385815121071 -0.015804314022108266
Ni 8.88588516616436 7.095925083982847 3.3204039066884365 0.10320896599002224 -0.06905983091213913 0.9328463634261676
Ni 2.546511088495337 3.3494087465729914 1.2122060721000392 -1.0991018642547135 -0.5576468217616138 -2.00168145837654
Ni 0.9482412023148619 5.874269182287102 7.111045366718261 1.807975831756841 0.5695206903810643 0.922693848373198
Ni 5.81347333471673 0.8824580218165187 12.899367288977894 0.003372773126974837 -0.37356766248808565 0.5955094011353421
Ni 4.887808422326371 3.5189206766211365 7.171319154939825 -0.7361618566838032 -0.16672626981737737 -1.9721381975017842
Ni 5.500913440546703 8.309953735617995 1.1130314572951556 0.975342070696533 -0.03636028379658899 0.48559911186574434
Ni 2.1458860765140253 3.5057673728151837 6.881223548599964 -1.3393030633327903 -0.45811093374780454 0.5694517848163417
Ni 8.105813720039894 9.05410120421192 0.39747969696845964 -1.0272932669528436 0.44614193431138643 0.10727902229433782
Ni 7.030334436010304 3.27956016774138 5.880445958944183 0.4155933721005681 3.3890533521920987 -0.9811586773783103
Ni 8.709227317370125 4.741252293431472 12.950482823303885 -0.49512196375451506 0.08749155525476544 -0.44662941547076634
Ni 8.181123558016834 6.446636909831854 6.2773776787238225 0.602427468411414 -1.6988214468166616 -1.9376409350558628
Ni 0.060988380096173064 3.988366810205023 8.494137014387068 -1.2436809085510905 0.059975352112367666 1.0891416677182082
Ni 6.71433117166729 1.9947202746456119 9.867921380580231 -0.41762454359798395 0.5993393164043935 0.9323771370992331
Ni 6.974555541756489 1.1706162696155025 5.31494090517968 2.2383376204158356 -2.3353913654377396 -1.2233568522817577
P 8.703423572481784 1.8341592557729465 13.039111654135423 -1.2785903188337657 0.3972506079273223 0.9236209881731577
Ni 4.166385345599876 5.795756639794427 9.454853954119002 1.1166550426471284 0.4449473997826531 -0.6926557058710522
P 8.918152876978965 1.7494819699060524 9.157659636527358 -1.3482805842410521 -0.36103996233472013 -1.9506743712010537
Ni 3.2386007241514148 1.5263756492622236 7.4675517355396055 0.5521613731670103 0.3126633708035454 -1.7037664495267624
P 3.590092916567633 7.001324967940033 11.672805510422785 -0.672056541563462 -1.9967711655591158 -1.3240883032655646
P 4.9265926186296385 1.0750997728008458 11.03024116448055 0.9584769195100783 -0.4982314559177742 -1.6348315742282618
P 8.709967827084744 6.989856323734843 1.2807328410910523 -0.20604897867639999 -0.4725466495571603 -1.0078323300147547
Ni 1.5836725884310117 5.506550570749254 0.23179620214490448 0.22811855688192972 -2.130132229652486 1.8351439075312006
Ni 5.501552130175563 2.246040015416495 3.8400232759864585 -1.4988464422484833 -0.08340864343464345 0.35247381793226396
Ni 1.4033029346922385 7.852022528096463 0.9816752159299931 0.009355473072970985 -0.2854197045962439 0.7282400307335652
Ni 3.390997623420385 5.628799468261723 6.9774250169006455 0.4378547546019298 0.39798594343145005 -0.6791286179188949
Ni 4.939551538635502 0.4346671691995754 5.822962966709596 -0.547683797011631 0.10163159420057336 0.5497897876110402
Ni 5.38603261469471 5.465859561930839 12.661443368944502 0.4460534883626383 0.7947907220706053 2.7487954431964723
Ni 6.644047543378339 8.802485259555187 11.124072076057303 2.3364776565233827 2.9261362553049026 -2.354713719915435
Ni 2.449874570737316 4.526467450705695 8.917528071907252 -0.1204960352052441 1.1451194686354085 0.17744057091108795
Ni 0.21593540969486918 8.761174073850777 5.519876043063856 -0.9109400502713795 -1.367890645162496 -0.09900521232131981
Ni 9.042799174692519 8.365408656871665 10.878317265791795 0.2324223264636062 -0.11399114420719077 -0.03557095512607422
Ni 9.033089241059553 7.780804006292803 7.901116470901539 0.27135371342148107 0.0913482099966943 -0.26572196905700046
Ni 0.2652422490428984 4.9448276703521765 4.354738619699405 1.3750262277660126 -0.7623403148513839 1.1422094940774652
Ni 1.553811534188926 5.683560161657935 2.543947999245606 1.0506969905887646 0.09587617977403488 0.7110815166764076
Ni 7.071664134457581 5.426973545541811 1.0711547072962033 -0.09823259582135341 -0.02252260658254831 0.03323356524214922
Ni 4.509241343469329 7.78458060583737 7.245762596550659 -2.1892012679005 -0.5542223694610972 1.3920952674331573
Ni 7.3531781588421286 5.303400986914457 4.253049974413384 -1.0408069851685624 0.20432479689644165 -0.5617675287982067
Ni 4.214388887850172 2.8388735801990808 9.168321125143612 0.2973794480612814 -0.4842850210400111 1.3893099913785363
Ni 0.3593730670540708 1.5567180348188128 11.096773185427805 0.5262089149673067 -0.6571649691636101 0.6879595859469636
Ni 3.057314689640798 1.8868094964824886 11.004446434208878 -1.1073021406773187 1.0159824699257147 1.0821148427784137
Ni 2.8450753490590306 8.494174039872798 5.4498340060693 -0.5750868716149322 -1.3296200317170714 0.7457546425785608
Ni 5.130445686693325 4.376717873666495 10.90901694728569 0.0995716263477511 -2.76299461751499 -0.6259054969286962
Ni 3.5211051802792683 7.481962054586128 2.3826770166840476 -0.71514514522282 1.1884052759072374 1.039222414290262
Ni 4.835269258074022 6.964475353266213 4.973228069182173 -0.16108809769499355 2.4162404756753224 0.34266763047511956
Ni 0.9824527511303449 0.40494681180326764 13.202116355066337 1.8035656185042874 -0.10666658552131952 -0.9399333521799361
Ni 1.1753925572748072 3.1391225003635363 12.854308198480359 0.424636713249759 -0.5258929263887846 -0.07304864035655806
P 2.2043863439690723 7.711381220547098 7.8352610907060205 0.7741069684690088 -0.7359232583104358 0.10585668802551447
Ni 5.167665556224455 0.4920538951712613 8.394046944447483 -0.3855952830765811 -0.0114087560575739 0.8817796266573394
P 6.1038086810767 6.9885048935056595 8.688856820758048 -0.06131541108002988 -0.07121801490572251 -1.0376342438675354
Ni 0.15121856318558016 1.6166530398459378 1.6197548499130558 0.5741227079294499 -1.2958290513095552 0.4191049847982524
P 4.076006134930401 2.508069377935082 5.397878918854358 -1.1490496569277502 -0.2156070546784803 0.6805247269354732
P 2.393392192254611 0.9360505611379162 1.798055704636607 -0.09456106050703714 -0.15193908420587382 -0.15765001854772204
P 5.974737837818285 3.971177728454387 2.3385657786212266 -1.2137398980172838 0.9342944087266037 -0.1697033501678303
Ni 5.525961181643753 6.391848447321344 2.731257154647519 0.8396446451605024 -0.256923396928764 0.09271372288565323
Ni 3.242284759981653 4.3737188093222805 12.372364112187958 -1.2950039843050987 0.8018892807885996 -0.36956342642469897
Ni 6.666290603931263 7.911420663580488 6.684822785176793 0.264733379891486 2.3502785669622166 -0.1920693765678563
Ni 3.5980719087426722 0.8796015055923688 3.823332187018905 -3.673914356071395 1.492116065503185 -0.7673123141446785
Ni 1.5437868839272464 8.50317123290544 3.364568831705567 0.23146561897729168 1.094036276806348 -0.014750161725981049
Ni 4.481546280142508 8.041676322382296 10.002896863175604 0.20627832107838667 1.1026944667019782 -0.07356054699597007
Ni 5.56853123386302 7.671467746929035 12.390802804082016 -1.8737245960178763 -0.4948836224914638 3.037064958536686
Ni 1.630991159195284 2.5928392275163037 9.356145860434331 0.26669693137576 -1.9110724405387152 -0.46468884407563843
Ni 3.51779139930634 7.949066326197525 -0.0960570689063299 -1.154528163543818 0.7338272950133555 1.4110828642792537
Ni 9.239173094638534 3.7431747873226278 2.0823531199109864 -0.2950510570384209 3.088056361982888 -1.2388120104945632
Ni 6.682535535795758 1.8965286864868873 7.5476045382386925 -0.0843820630915063 -0.20348276061112053 0.8313962891087809
Ni 4.928082894430313 3.1762590625517717 13.329640458658337 0.31385379156722076 -0.2685093019941505 1.1363422366634108
Ni 4.754803621209034 1.3218376097125126 1.6201343611417989 -0.45835338877591386 0.2602887138565711 0.6065810855684713
Ni 7.582967579660411 0.15790444027146316 2.7027123564231723 0.4902016436347622 0.07209861773846292 1.0160354346508373
Ni 8.687854355731881 6.263064551577345 9.443772226239702 -0.27478356503863643 -1.210042908781671 1.0258290237024914
Ni 0.8625290541217852 4.69778437318323 10.911617987658294 -0.4353044773762503 -1.0616794577421973 -0.046122248279359276
Ni 3.683554498924217 3.581428952906569 2.9264518128730015 2.6978138099422826 0.35472636141186653 0.411704064348491
Ni 5.310000779746016 9.02195382622594 3.4763228552875725 2.636476801595698 -2.5285786576601224 -0.21374506176907707
Ni 6.93888148625463 2.0259327591168805 0.9915823102744769 0.8874471093557619 0.837568479357764 0.02653609861731559
Ni 7.091370949237928 2.987438341694888 12.199103351709544 -0.43240915810632624 0.08525032462907253 0.08094989748150576
Ni 1.1272409130815864 6.718626128012091 12.182128092139006 -0.7201569966151147 2.189428296309642 -0.9295599793654119
Ni 3.378529291100457 1.2241643783540228 13.235877118593047 -0.7519147486426857 -0.2752160245903647 0.24477904825674618
Ni 7.618400969505019 9.190466068159349 8.94757610485228 -0.1624314990967654 0.07685952946221601 -0.33252180029036926
Ni 3.816642607384449 5.669231298680022 1.1347644917821342 0.41473616630659543 -1.20455463197359 -0.8921938800121281
Ni 2.3091684685879224 8.807696596671832 11.232520649400668 -0.26689850586360486 -0.4309917089335093 1.625864080622329
P 7.2094822487199535 7.866240314617183 4.388146715474524 -1.17026382911152 -0.28909458234466984 0.7239856263325853
Ni 1.0870590046919726 0.2511707131908157 7.551343186660384 0.3621545355551376 1.6302745509851988 -0.11203762002524574
P 9.13860261902159 4.192349467468769 6.45913301126608 -1.0863965008729033 -0.8506710781779929 -2.4567458919885365
Ni 8.886125831821612 1.9157819390670292 6.779277576188112 0.5476349460515666 0.7830176406950772 -0.09021718171604463
P 9.21420866088438 1.2038281303162477 4.347301125253181 -0.5842795938577937 1.0749874877050132 -1.1363856883068366
P 7.500335951880158 4.594909061079528 10.829505642315418 1.1497194293012651 -0.17009724317213934 -0.32737445176147495
P 2.694177981962167 6.265119466035419 4.736795350586598 0.05012159924673949 2.348864717333826 -0.6081214334723979
Ni 5.086116923901834 4.887789909583506 4.574372875418805 0.004482718361701958 -3.041992734855606 -0.2521959095461076
