# total energy = -381173.2976587183 ev
CRYSTAL
PRIMVEC
9.15664929106745 0.00000000000000 0.00000000000000
0.00000000000000 9.15664929106745 0.00000000000000
0.00000000000000 0.00000000000000 13.40168180576643
PRIMCOORD
 96 1
Ni 8.738959343309299 3.3111816448419003 11.38468792837289 0.4770499367441527 -0.634522549173746 1.2925799482446385
Ni 2.9477084609529594 7.569582006917087 11.080872144349755 -1.2602755796849778 -0.11391272556077157 0.47557849440494865
Ni 1.2138969640548392 3.397776074871821 13.029704652475285 0.9441754152857416 2.4067747022767327 -0.753439155707012
Ni 5.566775630988726 1.7072846846112768 0.17914159760477696 2.9791945685824626 -1.6563177691264959 -1.8837943215490527
Ni 2.223151978576137 7.333505281207938 13.532347913887623 -0.17199086065042637 0.8507299564403865 -1.3978889912967989
Ni 7.474938882375556 5.077306956224064 10.672067138027789 -1.295684298201575 1.8619227182869418 -0.6607349459030556
Ni 5.418859122296398 6.275124844553774 0.2438580460686103 -0.3781419121223294 0.5790569120062737 0.9191076736838364
Ni 4.55867435424725 5.6969007705842865 5.2344020899203025 -1.2879895006604785 -0.28389555464223365 0.21505915259481026
Ni 1.6029355120807722 8.584120407938043 2.4152914395019964 0.723909007458379 0.08240128521605164 -1.3788366026510384
Ni 0.8090210758385973 3.3973457123666497 4.024926871689874 -2.0459373428711216 -1.1923832867183788 0.6797955620789324
Ni 5.292360015723135 8.006628865892251 5.413582145451073 -1.0722387213152824 0.9003337355104429 0.24879176896056504
Ni 2.503382065986066 1.9559975860041827 3.112969494268601 0.6305044291532883 -1.815996130958156 0.6017579531482153
Ni 6.537160670308902 4.3311774086943915 4.195208495677547 -1.162054039607218 -0.41896871633070426 -0.8899351658849384
Ni 8.700757803488548 1.3064340593157444 5.564552396600309 -0.3147153682365677 -0.5002572280985513 0.534465498549144
Ni 5.254103536008109 1.4171013196881275 2.5644248668525638 -0.45905864237305455 -0.546210297789898 0.3308847789075785
Ni 3.6735468741962505 2.009911935588213 0.9628729244426723 -3.568537435895777 0.20921220689573 0.4165696199709084
Ni 6.642956593388706 6.586038862917522 4.338740800806553 0.9505095850338857 0.3833748783864946 -2.1641679790809563
Ni 7.732661926429923 3.0760388973354638 2.1723994199077596 0.34208964648446244 1.2733511819220136 0.5498005862443177
Ni 1.6036497307063762 5.115343676361982 8.070586228150155 -1.1391678790376638 -1.0897366209897297 0.31495808037499307
Ni 1.013879122289629 8.709383366890071 9.513491900515382 0.7388458312738695 0.17207853526822622 -1.0171911455218352
Ni 2.4950037321087923 4.28049535622367 2.991738207891616 0.591576127519207 1.1872570212354068 -0.5678371320310542
Ni 3.327352287057491 4.337660316219101 0.8056578386439277 -0.1098804644729269 1.5333195363246883 -0.7400213396392094
Ni 7.602069797733008 4.817624389273808 13.174134309210821 -0.32593591954273543 -2.2104794605529867 -0.35033491721239024
Ni 4.249142989889479 8.749498646361475 0.7174069708015491 -0.6043359982880366 -0.2400469328883995 0.45208966725438915
P 4.563893644203584 3.4522215101005314 2.547753355934146 -1.2544008660717558 0.34010629750584653 1.9565845660379013
Ni 8.117149619879896 0.283500842449232 7.887264620255787 1.1063300065720365 0.10395330035521451 -0.17025588023719065
P 9.003678067234963 4.095073213038104 9.504753710330592 0.4271018869607999 0.6888152490790396 -2.0866715873656903
Ni 8.233686292290892 2.2797309130326116 13.482493622490678 -2.0515518608444214 -0.2238718657904338 -2.100756090483214
P 5.667187444429365 7.808048618027295 2.1280528529121048 0.46846708017114796 -0.5144921407510107 0.5335535282578359
P 0.6065840473953809 7.911875861562166 7.492115840321325 -0.2198763714777955 0.8909371247868914 1.3759330558509981
P 6.500296001248897 3.0241298538925516 12.120266269206624 0.15706560679916173 0.4101639735548807 0.09249877866136974
Ni 5.9828079804028595 4.766301371369853 8.62686364568571 0.36496577975168754 -0.16937270630128895 -0.93201538288444
Ni 6.992914563285454 5.801817655355655 2.1557004390422034 -1.2044867548501321 -0.37081606788487753 -1.359399062751717
Ni 3.750462726184337 1.9838704257008177 7.096726240516946 0.7669433608410341 0.842275140804814 0.5042509226389768
Ni 9.086747187382096 1.6294897943147548 9.6051994033727 0.6563717838383535 1.0677624307114835 -0.48983140477953707
Ni 2.5788603240738994 8.708174689215973 5.129346024083432 0.1801065477790253 -0.7054813968808108 0.3493018479621855
Ni 8.664625666352242 6.598876484880296 0.4559919658517534 1.2245398168462653 1.2166061638214853 -0.31803363397652323
Ni 8.852749021006435 5.678569159193792 3.400087213091082 1.0944970184928506 -1.122250791567351 0.9586826077629811
Ni 3.6054580318887015 3.5372867797397363 4.792615749398824 0.6477341627680135 -0.7798402714083602 0.4186550417450274
Ni 7.68393939685509 7.599331959668194 9.729875421120864 0.4322872878164813 0.23877500815451136 0.035082445525429905
Ni 4.121151349521684 8.758627825460538 7.289576257408791 -0.32475089809569874 0.8886632411510501 1.0699159867193768
Ni 3.56545263220585 4.529785126506487 7.375307215433655 1.724282052981611 -0.519685254916176 -0.4476331741449323
Ni 4.879669843210865 1.608612634489417 11.124213311280137 2.155487934808456 1.0595230735208268 0.2772291983656516
Ni 8.954058186053603 9.090602136630547 0.07827103604692438 1.1753970365730273 -0.1343905337991492 0.4436423078179843
Ni 4.987397819239418 5.1012973767251095 11.675397800616194 0.4459323894037417 -0.5437147850615539 -0.8502980111092905
Ni 7.695971233701797 2.817500911515984 7.176841425681776 0.09040178692302496 0.34579177792639804 1.1074852032224023
Ni 8.556503954414701 5.757856583284845 7.966749827966238 -1.7682564016800322 -0.39752880128937346 1.5536284230853694
Ni 0.6297677671154566 5.659523329177695 12.036786931182219 0.49537136076115984 -1.2349700110406536 1.4421230214145098
Ni 1.8342233103387582 4.971456093249982 5.598365154533214 1.31106180909891 -0.3408578309598904 -1.579672669667931
Ni 5.790087987927472 3.8850105272692117 0.9570245726968637 0.015002901166735453 0.7924497326422546 -0.5830557487530217
Ni 6.402548772680704 0.9968569117127419 6.119730100585414 -0.848239843028681 -0.44168621253287804 0.9787158722647725
Ni 4.3428246662811585 3.4795174809072553 9.829489690429579 -0.36083684518497855 0.10326244493577698 -0.8050360539476974
Ni 7.040144559065758 8.909456148549557 3.983676167736739 -1.1421768410673168 0.5701454684492568 -2.359760024090091
Ni 1.7387560873830687 6.073513745854525 1.8672833917200664 -1.0678902145385996 0.35879024706859497 0.9116882412913139
Ni 3.201008843518012 0.6489399588883918 12.194176908977747 -0.5506397943161614 -1.564716819689047 1.2689857058644662
Ni 7.352468701382621 0.7200102061253839 1.667048537372461 0.5512596872883473 0.8822766208984161 1.8496572706560275
P 0.32409776166046783 4.303707461555789 1.6022917996528245 0.15696816198934901 1.45824332401514 0.27214381342294425
Ni 0.044200976275820474 0.9825359126044838 3.3445100160402617 -0.29687731161388226 0.3386114581278749 -0.4657429963717656
P 4.652365187287977 6.5450353884886345 7.421395377077896 1.3858881101811809 -0.5425567601977107 0.6750107390957795
Ni 7.747156901870059 8.066513350654406 5.802847778373352 0.8709244291103904 -0.5185524268633134 2.5348503496014474
P 5.814087565077564 2.4725241587003697 8.237303168664143 -1.2951412812139114 -0.18117638380443638 -0.7418733052462836
P 3.9952748950835617 9.100143364936688 9.962675897801283 0.005165346251023362 -0.3849710192290209 -1.2023740793825035
P 1.9820757224877623 0.5843727638040116 0.4829363213351038 -0.46995909133564223 -0.901773553280763 0.7409806182286852
Ni 6.619863524494187 5.726879639561548 6.384507427064975 -0.17642807048617357 0.3148488084906384 1.5781783445105917
Ni 5.47373492003028 6.792731901837413 9.663443016625775 2.354937148780151 1.3682660262240434 0.8395626269696573
Ni 0.9007917595743354 1.4467047660544945 11.795382867057992 -0.45891260371349357 -1.6711558625805931 0.8562318600952221
Ni 3.5687856524586667 5.998410910377586 9.533956095468735 -2.6117577015824636 -1.9828789809580563 -1.0075924460898067
Ni 6.860207248658866 2.0268242663765457 3.9821085494200297 0.5977953689560414 0.4092540601461016 1.744298348202538
Ni 8.33301762114408 4.418101478089976 5.548510863136269 0.7924942127269448 -0.06965658395587358 0.0328314447077241
Ni 1.967415927364795 4.233466806722383 10.413468718324605 0.3776696004716012 -1.5548255287172643 0.29516032892277555
Ni 6.983492371416914 2.6195158458390306 10.01861478248943 -0.333982958216928 0.9603404550813782 -0.011896237216953704
Ni 1.8481322602399373 0.627696533101206 7.187268101950685 -1.2574211409553182 -0.2877799772983044 0.8960248237224439
Ni 6.600204198991994 8.44255861368378 0.20331148842712857 0.11697105277112113 -1.7802254011164502 -0.3434356189893956
Ni 0.7991630274754575 2.2073476023223946 1.373256537060204 1.216587137658092 -1.95481873238673 2.921747125098271
Ni 3.8768061697238156 8.652135997053223 3.250645206667657 1.105491312720825 -1.1020365214030052 -0.8511408187255599
Ni 0.8413586976101599 3.0561140290109305 6.588119253580818 1.3755821002694826 -0.47946240284038716 1.0730943844473582
Ni 8.395548377480585 7.699038711132274 2.3364755828368224 -0.36262196210985936 1.7558464580514535 0.3592677009256458
Ni 2.6547872579649963 6.935273457539621 6.765235400416576 -0.4366123975543964 -0.051640092773794936 0.0631277816984203
Ni 2.634889859587602 1.7195362810350934 10.325191296199991 -0.4804504777852693 0.004465491970521342 -0.9010402746591645
Ni 7.192025896795091 0.5221927071259759 11.787904631781958 1.2523372986745078 1.2954945507882722 -0.8146735770374615
Ni 4.291089599170125 1.252052720630358 4.851649581464586 0.6479897304222453 -0.01919559909184436 0.0250325174885956
Ni 0.41609003630312413 7.963189722817075 4.308653883370547 0.15744433029481916 -0.22888885938905096 0.23485099050975683
Ni 6.324305206580918 8.059133091523167 7.777947049952814 -0.4083338623246774 -1.2869952550680093 -0.5446231558084362
Ni 4.444628290376819 5.884703642521864 2.7249638162550793 0.014478396121833128 0.22087910171069702 0.112306043195284
Ni 0.14482888663394872 7.85570897631277 11.385519352106284 -0.7582268069036425 0.810957561638455 2.4260734026053443
Ni 0.3633120268657274 6.475701241910802 6.0731465642277715 -1.150679222111373 0.02451264042938359 -1.027360372745353
Ni 5.132970225775917 8.408633228967606 11.69094304370193 0.91671526219226 -1.1698506528335013 0.4335342728497049
Ni 6.140403067137022 0.5294072309094774 9.545776413722477 0.05282819954462514 -1.3978604520517088 -1.6079437486984822
P 2.952414978562707 5.545834374620066 12.258102222963988 -0.6567908736536431 -0.25930192446326955 0.3785280918171546
Ni 3.4660297368622017 3.0470306331570995 12.234327899380434 -0.04274536138732638 1.2300170379107527 -0.7173730061120742
P 7.045501198757786 6.658257353944907 12.168619785824896 -0.1622101271145787 1.4168547337660244 -0.547921881164366
Ni 5.472654435442829 3.314130085834777 6.194002427993862 0.9883562235680139 0.6026395844222201 -0.21983883337164076
P 1.685226317058979 1.4670416835861064 5.160424606611142 -0.20551598899106543 1.2956069079964203 -1.0647149021344116
P 2.6218965745910428 6.695140336303004 4.1452342521780965 -0.08191046162256214 -0.5248308036728575 -0.5630669643359206
P 2.1559147046298843 2.5223454861607477 8.51398139190905 -0.39942704675335083 1.2278758231980338 -1.6688899493645515
Ni 1.0925164242984016 6.308683963308099 10.032204165338896 -0.22003012344684042 1.142011519134046 -2.4637866008854017
