# total energy = -340874.5140296189 ev
CRYSTAL
PRIMVEC
9.18069693504539 0.00000000000000 0.00000000000000

0.00000000000000 9.18069693504539 0.00000000000000

0.00000000000000 0.00000000000000 13.43687796350742

PRIMCOORD
 96 1
Ni 0.14061339101243453 5.013064499157349 2.6771637654911076 -0.872319509685704 1.9680020638462234 0.8497583365557364
Ni 1.2875376665979728 3.2448714424197855 4.380878951232045 -1.3197721923887142 -0.12250920898053094 -1.7275059592355473
Ni 5.136049115837896 2.8422611572668557 9.344381457768469 -0.002272340973944474 -0.7873401793298311 -0.12781879411890243
Ni 0.9212094958912592 7.2786126338324975 11.126030662062668 -0.2778277511815989 1.773755220011074 -0.5717182122530154
Ni 4.133122236169871 5.035364412110249 10.20927288613471 -0.2537300868024469 0.5900380936081258 -0.9994024540798465
Ni 6.884228253169399 8.631489320803375 6.548180775296176 -1.0134872143076867 -0.7312525923076438 -0.4618341482356627
Ni 3.358032713336806 7.115104420703167 11.091766464811613 -0.9705292226889222 -0.3381990531808046 0.04232087225539808
Ni 4.3255312833773125 8.356903854970408 5.976965154053253 -0.7207306097303975 -1.0582524343385193 -0.3890539310491429
Ni 4.35257761666642 4.2751843411650015 7.706479934434057 -1.7140385208767317 0.9481377423675992 0.04125026489903864
Ni 7.903808917150539 2.081080390351305 -9.08889000550464e-05 1.5200410740482273 1.190422563447582 -0.9478335808636194
Ni 6.255827906606993 3.0476241679063842 4.366743432099242 0.3742443768401361 -1.7569965124954965 -0.6089585846617125
Ni 7.051013975118896 0.042125628070967716 0.20969354540275742 -1.509085346367672 -0.8284372064804572 0.9542734229516922
Ni 0.012768513353187731 0.03152192306454564 7.07960909198773 0.05026300992061022 -0.36473412335685573 -0.9005245113650104
Ni 3.30446334648618 1.0463148535730893 4.605731663480348 -1.0422802272799792 1.199734327766811 2.672852769121571
Ni 7.359081442820627 6.09921439690608 6.934571523102918 -1.1074862316636667 -0.39792655094842433 -0.4521578014881632
Ni 8.224334590647693 5.934944185927803 10.680585080962581 -0.4418502489145681 -0.08740799440202365 -3.02910713714219
Ni 4.815670333492344 8.919487784917195 1.5762531431455589 2.498515519726155 -0.40800733222319413 -0.09588877817952518
Ni 5.498539755208951 4.874940913164605 5.402189258523324 0.09343183199860038 1.0606181063572186 1.016879013598055
Ni 3.2904076994170612 2.98983168044714 0.04457044767547872 0.2471498624817679 -0.0263347812397869 1.399644540535325
Ni 0.0609919603551213 0.47319607384719486 1.7463503424940319 -0.3099421152176404 0.7381714309146642 1.0485938282028326
Ni 7.101865855664846 3.9689805549492476 1.7358568058513129 -0.6572037928213456 -0.0383325770316114 -0.0005111353084636358
Ni 9.028214779195165 7.4006975422094685 0.947255133210064 0.20553270116161376 -0.5586104712264638 0.2737245276465028
Ni 0.1656326264094055 5.260016067094793 5.659720661655054 0.055500604170465706 0.38160441674963314 -0.3651421574285518
Ni 1.9615385350364807 8.59681382832783 8.682158505479517 0.3794824853106239 -0.9719433294276293 -0.07617201647688816
P 7.081034854227987 1.0835150377168314 2.431940922794105 -0.9501511732532023 -0.039125762356868106 -1.1607538327385558
P 5.052569038241882 6.415489407703691 6.836630011631479 0.5661486885850379 -0.3567894145884823 0.5700176846221409
P 4.051707815393291 7.861908216155465 13.274506548909336 0.853926094780181 -0.27875977607756514 -0.9479425956376579
P 7.506863122031343 5.830816720834436 0.9416897947036631 0.5515656485645404 -0.14192977959898784 0.25034548660093014
P 4.673332807587957 3.7435944442066833 2.164828544298996 0.5578257705416393 1.0191750087210834 -1.1891118150559585
P 4.828716103894185 2.8526261641519213 6.210524839312888 1.0059657091196612 -0.6174303695781496 -1.519928202619447
P 2.7901239791443704 2.7518863762424237 9.041030114102927 0.025612301251465568 0.44648440525246974 0.18371329129367717
P 8.528004504498277 4.779535110197732 8.592493392331274 -1.6623647466515241 2.0326887053913314 0.17020548661522944
Ni 6.8351666085336245 1.8103232751570193 6.7463608086222635 -1.25349738042088 -2.0799530376949344 -0.5997095552596188
Ni 2.8074112315487794 6.444234169933222 7.120443914063976 -0.058032626563700056 0.06024866037841236 -0.5034163425528234
Ni 7.545633205357854 8.564396787308196 11.055701932883709 2.040121250409977 0.44473296977900184 1.1353461912987286
Ni 6.963577017126546 7.989143495535554 8.806274184027416 0.5736110584003541 0.2152915803205905 0.08310268215845042
Ni 3.2193491048285705 5.273851377436507 12.988274450893558 -0.4699007272938811 0.6866385531426948 -1.0370120369025044
Ni 0.865089731420907 1.4970962557551937 8.717093811679463 1.2024316720933161 0.8477027395782885 0.5588161594793666
Ni 7.679845814439139 1.3908021461756657 9.205874118642159 -0.9538669315418926 -0.2836420438705309 0.06849675931981752
Ni 0.495899937467006 3.057071105093924 1.5354853401572317 2.178688284184319 0.986284942861282 -0.4063183745565454
Ni 8.33661451465509 2.779979308986711 3.121238668532787 -0.5294906710423719 -2.128514491543405 3.3829924907099995
Ni 7.658592500941419 0.10997189678781606 4.287183512111663 0.6646167974559651 1.000290770222071 0.32505248849651763
Ni 5.979415482075948 1.1726137018617029 11.071074091899082 -0.4937754770289496 0.12578736551117048 0.3457352136568498
Ni 3.912831412248575 6.756928708910482 1.7548562582416076 -0.8766639026973287 -0.28654250534677744 -0.34444014899451003
Ni 6.924347898951273 7.4236676460415625 2.243596170137611 -0.18550072221140312 1.7649509914558832 -0.314979934751864
Ni 2.624100255043819 9.10350567508925 12.036970630317404 0.029119543073775657 1.9213488827640588 -0.09820482790721151
Ni 1.4219889738006144 2.1827933321401796 6.403545320938882 1.7704061010331833 -1.2209495283918457 0.6383424371404683
Ni 5.607239207395996 5.625242554164475 2.93824167186438 0.0964906734295822 -1.6749868062909088 0.23439539102957693
Ni 2.0146764091292697 7.239089733354016 13.359723614373067 -1.0705839593206787 -0.5822584496627069 0.6121578083253005
Ni 7.231313683015972 4.302111325393431 12.68242412151135 0.5603621638102478 -1.3266532357792635 0.10679668334128058
Ni 9.180357289469129 3.3224575125576843 9.95961576679866 0.7870221338687801 0.5954024432438326 0.3148814615007867
Ni 5.981591307259085 5.731141893774068 8.898989124710841 0.4379653120378651 0.36423044424755985 0.5896336590808555
Ni 3.948617769058127 1.2478036100890595 7.557316560328566 -1.9882495012413501 1.145460654024911 -1.9746601925926897
Ni 6.867574468856281 7.031725330773881 12.738012323626835 -0.08132527854305349 -0.7587811367452157 -0.32731223106497176
Ni 0.9099016314268349 0.5765587868825233 4.436010872707859 -0.5775900976527601 0.8827684729331701 0.0975787642874384
Ni 5.342109859447543 5.19027949287074 0.27861395566571084 0.07776147245119511 -0.07187390332216653 1.499981584294191
P 6.279899694076117 5.453627785605993 11.215587442986605 -2.880855786200548 1.2893904947730632 -1.2679382384365583
P 5.025889932831784 7.74559796617593 3.872790720460688 -0.3627366333108527 0.040368890735349834 -1.338317045270437
P 1.7976447326341891 6.857402256607696 2.488308566082789 -1.0052252314092107 -0.49901487105101805 -0.12246858555058263
P 2.34165611260003 0.031746850140439445 6.472759513505043 -0.810711764176236 0.1166352666982572 0.15622228496225998
P 1.9202253986478235 6.400506510240071 9.231336781703034 1.381893387199491 -0.1928841591596678 -0.04214680857137903
P 8.498947598571588 2.055916099942125 5.510222192109966 0.854598181146541 -0.9793398790020167 -2.155961274900448
P -0.13133813285833215 8.705182775423765 9.502519881236973 0.0905953909910698 0.4635732424139564 -0.5308299586790858
P 1.3621308295219374 4.094370514237311 12.987978832450953 1.3085105034319657 -1.7040184176365685 0.480074068282457
Ni 2.4023588810004313 4.725525069892293 1.8954733215328325 0.9171076125346722 -0.10714686759184774 -0.05833036030977696
Ni 0.027302474734717423 5.5406607929314315 12.581459406525958 0.264027612073713 1.2994311668385168 1.9055345414396212
Ni 3.995365878056137 1.7171575622521091 2.1426176841067566 -0.20577926995478107 0.8107130497278167 1.1172132291434436
Ni 8.799799038450766 3.2234528763765105 7.255631513164033 -0.04804466211305274 -0.9398459346724524 0.19631735321093285
Ni 2.257827168518957 2.540767068599409 11.218328799103414 0.6634919398229024 0.66642222609582 -0.3990583505600224
Ni 9.216960728309479 6.812168962610604 8.09378416158984 0.9610909600941578 0.5408847718119266 0.5073293044539844
Ni 5.478810437409124 0.6121532671252929 4.604132386067257 0.7313839756791854 0.7048581614745151 -0.8129239413362064
Ni 1.5168990191308236 4.534135080049107 7.693889526602191 0.7010400732800056 -0.4583762715940493 0.8593364671624749
Ni 1.8689144832531108 5.029185803045901 10.915878081811146 -0.5395606536838642 -0.4461463051867607 0.23654277638988297
Ni 6.6595031526090525 3.763213593642808 7.627524104307451 -0.9497781061844996 2.368444439237966 0.9653517922530405
Ni 5.833580110623988 2.2225182079521177 0.6348213260269006 -2.4025498655621074 -0.36306984828055533 0.04278547059664244
Ni 2.5152814537960952 0.1797350950330981 1.0997657894327344 -0.9892532814609867 0.24688118220141356 -0.43461722150123855
Ni 9.049082503419925 7.60297583866531 3.5870286741300417 1.1176037797136429 -1.128250975014844 -2.4306198843254463
Ni 1.0276413159254163 1.8774249893491743 13.295240234958257 1.9709326072294573 -1.4687624783789093 -0.8751389814123702
Ni 3.727399694742329 3.217871012615554 4.096433416847651 0.22028851931454965 1.875003719840616 0.6917532486614408
Ni 5.481748260441206 7.710867389518533 10.753654248188655 -0.20272222829601216 -0.5927688622757274 -0.21981415078129243
Ni 1.5864611601123475 7.548222161904877 5.183571157590919 0.5919985597686062 -0.3958706968606601 0.60673792286131
Ni 0.2924455937286333 1.212274312794814 11.235554540838091 -0.6794672322052363 -1.291321393247189 -1.22931589807867
Ni 3.02372681367979 8.587862648776953 3.270603099902037 -0.3875920017916357 -2.1797036128227103 -0.5767349487413165
Ni 6.870640821646018 6.8269407040437935 4.567826401808905 -0.43952571454644945 -0.11894797399183384 0.47329972567310097
Ni 3.7251779660743174 0.7941330425688415 9.967166890060808 -0.34564085417083057 -0.35691411309180465 0.5717518937044282
Ni 4.361042219277607 7.891837288294804 8.30138359001254 0.3765786814002675 0.05814575510279663 1.7908641117772193
Ni 3.593288073327772 5.932272603108003 4.261532644762794 -1.0306279877530315 0.4754622805420586 0.2370009469732241
Ni 5.040413795446641 3.623979143316057 11.632735361799854 0.31150534593970225 -1.1902436146675566 1.3591874609615429
P 7.649990187875603 4.788862698324593 4.2298619944072495 -0.3440359715775559 -0.41977938515745766 -0.5544897641898708
P 8.577626171649541 7.491402828325009 5.6351310828765255 1.045982615832231 0.6123861222860227 1.820971986906193
P 5.495298969176685 0.5571250875252988 8.641162103136507 3.3509609161957514 -0.5774453445447797 1.7252372178060287
P 2.010012615065839 1.7692212947987926 2.9202906550686594 -1.0746966959374717 -0.42808379125809504 -1.2465232630958918
P 2.3117821246425434 4.59316696160001 5.565286176428163 0.7428472391237787 1.4337952182751048 1.0689320255395527
P 9.047898193510118 9.119112859947187 13.02660936918344 1.1242685933283285 -0.3331923439948326 -0.8500768962374198
P 7.61245949864075 2.589920520204936 11.205052593207496 -0.20163130922467856 -0.21779300658620557 0.8341892784728859
P 4.161150904035332 1.5610765329757612 12.245349499913305 0.13347650662531205 -0.6789715235157404 -0.7907975417508123
