# total energy = -340866.693906067 ev
CRYSTAL
PRIMVEC
9.27798328888084 0.00000000000000 0.00000000000000

0.00000000000000 9.27798328888084 0.00000000000000

0.00000000000000 0.00000000000000 13.57926637619849

PRIMCOORD
 96 1
Ni 0.6443846831774039 6.404202010287063 7.235602997399164 0.12437068766930194 0.6025030588443558 0.06053019617457318
Ni 8.71881754870075 0.944665676143425 8.290725844909051 0.5224039393989197 -1.021415468015828 0.4339793308069235
Ni 4.452838063461969 5.749816589201677 12.31151885601026 1.0765854283197525 -0.2794457464009962 0.7727363133737272
Ni 2.65390209983592 4.524380590605912 13.46280985322218 0.009495341084944939 -0.6584034695564015 1.0913949825287592
Ni 3.324301319631 0.9170581098395064 10.878336755995978 -0.5355846997552518 1.0459558763593535 0.7225154695449622
Ni 6.456854563982028 6.745307056383166 13.398377044474087 1.2753671839107776 -1.3738229514865308 0.02872667851073117
Ni 3.9168025939066218 5.377546798107972 9.440971213433496 0.28550172278708896 -1.1114110206393697 0.7035859796303108
Ni 1.3641789568256333 8.737902359793356 5.9777831268356625 -0.3687866961596745 -0.6690594066083511 -0.6893436107786838
Ni 5.326703451103848 7.087506904476803 10.575355869968242 3.6250551684768473 -1.6891384152009428 1.642191871248075
Ni 2.652658850109907 3.4813311824128994 7.322985824970141 0.6335501579581475 1.7595290491093631 0.42138452486104855
Ni 4.71863372130397 5.939699789892629 1.3742761857571277 -1.9631761032124901 -1.2448854703821528 -0.6223524894701152
Ni 7.048121866514667 3.1592274455621334 6.250088217571476 0.42538259027684805 0.05622976902700639 0.24004230490270917
Ni 2.0055288117539405 8.121018546115026 11.881518671109296 2.14378838698334 -0.7359384278190875 -1.2870991276357253
Ni 1.2223371522637614 6.012550512643794 1.222598791385206 0.6239002935732093 -0.47475111340764686 -0.4279215546486178
Ni 0.1651842820669226 7.539585905594135 10.81615664152756 -0.8676786684795831 0.5402011154813406 -2.740794941489499
Ni 2.046620998593588 2.497642309645506 1.1647821123357711 0.20422426676283537 0.2490851318312678 -1.1357958772416374
Ni 0.38818524318328007 0.915851972045613 2.432141605050667 0.5422122323740984 0.6262379405674505 -0.6439291871996264
Ni 0.6789043468386349 0.5309724742159039 10.349817380493194 -0.9374740920061662 -0.4033032418793054 1.5954337891569297
Ni 7.862088595715189 2.8123514940214016 3.7374888714833885 0.9196717737174226 1.169253899789767 1.0434007140376675
Ni 9.020936510105004 5.007141881603288 3.580281799225617 -0.852752386187054 0.48404153757063734 -1.0219021778442592
Ni 5.832882371268817 3.5667999620847968 2.229430665022506 -1.3521300398941294 -1.3044946974043534 -0.4261904308901241
Ni 7.2374576662068515 4.143723502853133 8.825572804838261 1.5234009916593956 -1.4558249443816347 0.04823749485014918
Ni 9.171954239883497 2.9662639545052385 9.724220612951438 -1.5367177633729598 -0.1327278013847456 0.27651391746618187
Ni 2.1505436865120555 1.8388405686378633 5.904821996086442 0.07838522207812307 -1.0293992575522528 -0.32749529361005536
P 8.003410833227383 1.7899177641209383 11.18099105702106 0.10500745265134173 -1.2004825187867452 0.6790201173654886
P 0.5216740796232883 9.282807581125336 12.783561293213133 0.6655529361169893 0.12235828522496348 -2.4134045488884244
P 3.0689805046298124 7.857616607894754 2.8133794945411204 -0.0722989066747271 -0.14906793330566587 0.3744834894341357
P 5.759474969535854 5.308268098823337 8.24185406929879 -1.3722772042659657 2.446906794410928 -1.3644985887618115
P 0.5197980714546325 6.681567312967411 5.17360559753004 -0.3620357505890862 -0.6295047842441804 -1.1411581699948152
P 2.7813259187692503 6.85173479971972 13.478453460408979 -0.4438423396439323 -1.9906437125051397 -0.025523341082085076
P 3.388551352113402 1.8805358243744574 13.03310749157648 -0.9160138652498612 -0.11287657098677335 -0.1335101880767249
P 3.538140272505282 4.226928454665723 2.6776546641908943 -1.326280168710561 0.40800810355414246 -0.9592263960815931
Ni 5.317444024039958 0.09733810336211195 9.549754636661353 -1.7341694872986522 1.9464107108286932 0.5865493637285769
Ni 7.92655202180728 5.284182454877588 6.596862111298879 1.0384580253204116 -0.6209350402972983 -0.7076580928171554
Ni 8.600467597170711 4.445656904596788 0.33815186409767 -0.16187974035835345 0.9767721182748403 0.2234139523174088
Ni 4.375682356584907 3.4018095898632 11.725574332341901 0.02823508358629331 -0.12383486977048995 0.7208079999355522
Ni 6.837780713242676 4.417080716864543 11.715389890369925 0.8226609661183122 0.9235448835195837 -0.2657183695125746
Ni 4.912692014358399 3.9911006820104595 5.668881959836516 0.3990760911718353 -0.03807880914959248 1.467338087227557
Ni 4.785008411900231 9.006128849189205 6.689797811713279 1.299609344287594 1.1693552012543216 -1.6639130649752505
Ni 4.898394642509246 3.218189027717464 8.542580405450249 1.3985816464884495 1.0969287678627946 -2.4010131172026066
Ni 4.658753618828674 7.41681035615881 8.417759988555122 -0.12695798878050393 -1.7285367144929071 -1.697526639264638
Ni 5.313936946454636 8.038574388910893 2.3018211998153864 -0.4367052143785189 0.47672572063551455 1.3125265665698944
Ni 7.379336582700843 8.681649948682772 9.980339334493202 1.6319108010370411 0.40861488390020595 0.32434774912000913
Ni 6.722575997959789 5.583258237848018 2.4776862959463872 2.0200823294812307 1.1491090494107759 -1.1142793433261002
Ni 3.947484883786666 2.3169628681202643 3.410119879263126 -0.21401734159385724 0.9455427279469133 1.023339167401102
Ni 6.473638435283207 1.5665596006579274 8.06373442329151 0.04993185183343659 0.8034874785136549 -1.0132239333439712
Ni 2.419568082448479 8.999161083933712 0.40803270448094864 -1.414426841050822 -0.026339409225477218 -0.06151210047186826
Ni 8.841713711915464 1.6405886272538968 6.067351847208495 0.5380233911037315 -0.574256662404153 -1.656572308339463
Ni 1.6873774956739334 4.39546301640476 9.266409673918202 0.7481848492866081 -0.9442934289208448 -0.14290499902806356
Ni 8.803776039306 8.731463439570572 0.8413646130879643 -1.6350961407435582 -0.6498609793030292 1.9870770781998037
Ni 3.27258584222206 0.7842075986319588 2.0629483931296937 0.020116568244216967 -1.6449663486694188 1.6546018148766537
Ni 3.714774513429466 9.258239482062029 4.543350354708947 -0.5399321780906702 -0.1295584025178285 -0.34304892507393825
Ni 2.9160051204320006 -0.3286948159952422 7.882044609414308 -0.5492141176132282 0.7136623900297063 1.1485773452770218
Ni 4.509470871876783 8.038908396299972 13.243396688143504 0.16368851143231808 0.8021175947493218 -0.14778829526229387
Ni 6.204818154973443 2.509675853635351 10.382312588257289 -0.13325333487091245 -0.9681162423720553 0.05366175118951404
Ni 1.6472966089845504 2.7522951098685375 11.280310009760068 1.1762339306520257 0.34761931805344 1.2595171042523985
P 2.721631375954553 5.762425368139379 7.574826468536794 1.0416749895958126 -0.5823615508994744 -1.4635287407837956
P 5.924901406959858 4.513256288953002 0.05206061837765411 -0.4592257640785382 -0.04450065351553626 0.9291329191303225
P 3.7316233306118543 8.159893295010516 10.403347631382793 -3.3875081191921663 1.033700198920452 -0.8056256079025803
P 0.30340025086069017 4.321081426453652 11.981950054013595 0.2539964530899561 0.8063905110930628 -0.5977195214127835
P 6.572319062789752 8.741446549310798 7.95344425561959 0.4463005713764379 -1.0587458290351701 -1.1367392149915132
P 0.8909860497270445 8.474556089471264 8.179456850027469 -1.2744783535479212 0.6469646315918406 0.5395508834918514
P 7.420651441133209 6.705151945829543 11.153411324666234 0.2624049888686255 -1.7925638680771452 -0.9322562952506525
P 5.8922429066944355 9.216312276749687 4.240003916149831 -0.15375145482426425 -0.85392815166271 0.25634155628336497
Ni 5.042620888709815 1.411320388600808 0.6891908466239403 0.2588267845990639 -0.4179171351377383 0.6294898718458449
Ni 8.053252158064273 8.429789821351756 6.396785190652921 0.2993355433463877 0.049107556159928324 -0.5914038636074008
Ni 7.63304302865482 8.449440589409189 12.283627383425623 -0.1978265907666077 2.7631715094124867 0.9728648128006342
Ni 0.5293645997568137 7.714698557301407 3.2560775270168705 0.1122016564069358 1.693558141535193 -0.5634816832758359
Ni 3.2495857222908144 6.880598604925893 5.536836777555967 -0.053020003840457075 -0.3536377563333781 0.8120106854933178
Ni 0.7068329313553897 4.130335373340916 5.492433278572931 -2.0667277972539115 -0.30985778303395023 2.05383191512785
Ni 5.858433936533299 2.059025661904631 4.593200029730564 -0.2670031497622692 -1.2040003021320167 0.1064441850978683
Ni 4.811543443365887 5.470679191762608 3.848295822810079 -0.6054143189538799 1.2182544980581858 0.4414764105149171
Ni 1.9326502550536853 5.909212337656213 3.420915740316776 2.4578684356287543 -0.8009400295014528 1.0468318512064037
Ni 7.912495877516907 0.018814821786435124 3.7306315142259527 1.3546103831138219 -1.3189013597479866 3.1084012441878275
Ni 1.843321834441329 6.678811752007516 9.254731476678407 0.3436186815344792 2.6011431592914107 1.4984517779132256
Ni 2.3906393313610956 5.4807458033501035 11.434515654507651 -2.0930085853273117 0.4314987304769149 -0.9601231968642496
Ni 7.029872073894755 1.2134117325889497 2.260662211497923 -1.9514284757582587 0.22636840696004243 -2.5022657307972063
Ni -0.17661939615133565 6.63575263276552 12.756267322735626 0.36906154708761596 -1.7146761544607307 2.036836409011118
Ni 1.807861383300861 1.8441939648461443 8.930118973216342 1.0205922007835844 -0.2015526334679432 -1.6415146426753922
Ni 7.037220236454475 2.5762082699431206 13.883712975762274 -0.6698237955782013 0.5409572769210748 -1.7209774140884102
Ni 1.2046533166086772 3.0863210549127884 3.2427691881587104 0.06689341938843964 -0.056496649535147866 0.5684439123771178
Ni 2.7616565947457565 3.982453601826546 4.986618983141039 1.607727261812302 0.7002011223184779 -1.4692234771757278
Ni 7.692320062233168 6.841927971657063 8.255826711741895 -0.81590230723824 -0.06856309378137869 1.1882610370198892
Ni 7.659939901458644 6.898180382767649 4.149905422945989 -0.10672674933529362 1.1389220815754448 1.4751925502749692
Ni 0.0671317740115045 1.9970394572815366 13.189391404522771 -0.22299871915686112 0.9370925402970314 -0.10552270172486342
Ni 5.4799293408434675 0.6346650681552284 12.013331903814096 0.7182533518344985 0.2045363986866155 -0.253298398581667
Ni 6.012559790626824 6.534743231518456 6.28324865671882 -0.9755716702088358 0.29088329881397645 0.005845145926867353
Ni 9.021196293629844 5.420707975163298 9.81742908606692 -0.7363500614352092 0.29059739214244146 1.4418813377173492
P 8.572540868250561 6.703008731749625 1.681873796140567 -1.3373341125318776 -0.8822133717606483 0.31746362040566617
P 1.6199915049274083 0.7835284502741665 4.138199391757101 0.0005322183543861801 -0.09790298039607655 -0.40304921688697043
P 3.4533116736624514 2.9534881718729977 9.847561191553288 -2.2374400483022305 -0.24593758734122156 0.9861479030627855
P 6.814019798702974 4.8963905981747775 4.639899829513513 -0.20993494399436746 -0.6376428399702825 0.3007943872801014
P 8.969109696899705 3.1819213920533906 7.52091674814127 0.010458476329162632 0.6244888190868277 -0.0052879878718167
P 6.39177879100996 8.83347486298487 0.6673013012613798 0.7065005821739446 1.3136946187360667 -1.2552629569617348
P 8.608808503914636 2.7943243729942098 1.7199766168479649 1.4102529121787906 -0.49447404575787096 1.0319410501375001
P 4.233181815227909 2.0297165135130197 6.768503869554647 0.8144164667213328 -0.5295436357674945 -0.6609846000200165
