# total energy = -381178.0672960691 ev
CRYSTAL
PRIMVEC
9.14007541149609 0.00000000000000 0.00000000000000
0.00000000000000 9.14007541149609 0.00000000000000
0.00000000000000 0.00000000000000 13.37742425771591
PRIMCOORD
 96 1
Ni 7.609889523742635 7.019184742680714 10.434899401477175 -0.10875997771523849 0.2490285675617195 -0.25141043753033476
Ni 3.0997194083900843 6.947563113287863 10.351290563438493 0.5968672007148172 0.5587963619850248 1.9191176794406948
Ni 2.868091622265321 1.3988885118141814 4.75368091326568 0.23388245594890042 -0.13685416484829332 -0.9614043775695184
Ni 3.085451750977853 2.457099000101084 11.587457402174078 0.04281812360679078 -1.376740382243642 -0.03839993993443709
Ni 1.5741128937807916 8.45017319865361 12.524826956029779 -0.23203254722435523 -1.0819490066245108 0.15841466462788847
Ni 8.779078805302637 1.7207105601707795 4.017748563088656 0.4549284222547649 -0.07509523847294164 -0.526239511094926
Ni 5.3159957066990735 1.005993238577694 8.029491182752855 0.28897348338577333 -0.7070299723148533 -0.22207723578385624
Ni 4.680495417003366 5.656362967669007 7.563100564704229 -0.2011091181726214 0.8019070214004125 0.5485921677585133
Ni 3.574491475411815 5.826167285032509 1.94996009872433 -1.1654473815594832 1.182090646543119 -0.502272201646051
Ni 1.7409558267742973 1.5321142481631098 0.24635884535044691 0.32146837068968503 0.33332938379332916 -0.5431558272342903
Ni 2.902312063874157 2.204595282182897 2.286616489156553 -1.0387878978560046 -1.5480424443571599 -0.8012038246858009
Ni 2.82676020213841 8.177287113003665 4.471684914647913 0.016987278586615903 0.3041026257177279 0.005666454257157983
Ni 3.6324212721310456 8.355244377459869 6.854110414241511 -0.41871289156615626 0.2113048277587006 0.203335693510295
Ni 5.07556602814127 5.399408033120611 3.7294788168426014 -0.7497647921792184 -0.9876630541557314 -0.7217698496281892
Ni 2.549377199482175 4.0039379094372265 3.4181322086911012 -0.2032035388078049 -0.17922851604944617 -0.5680819010520087
Ni 0.6165309775923493 7.922571496883197 9.870144207961099 1.0605962519803478 -0.3708242954149936 -0.6928426250708777
Ni 2.3625266418407684 6.568725275733637 8.323713859987112 -0.43984401711781673 0.07688704026604178 -1.8303490572457186
Ni 6.9284512160111325 6.807071017142186 4.545234185903826 0.5427400798531105 0.8430768107705029 -0.2914872509465625
Ni 6.385210845546083 0.6449264492660058 12.180559624965163 -0.5019130185344194 0.5488947866005967 0.32173705097003946
Ni 0.568111429135403 1.0732641921677126 9.33475333409158 0.48571404017705383 0.7389062521981598 0.9487553213469402
Ni 5.273878240103584 8.73430157681928 0.7761806713908355 0.2891645163506568 0.41613973152234135 0.705381638078153
Ni 4.609714674530389 0.9054103668553135 2.849779481569995 -0.2861992630747458 0.2439241564556186 -0.5274163050118466
Ni 1.626019380932655 5.84135809004156 13.06214455775484 -0.57651023432502 0.6418640771404817 0.563677601336726
Ni 3.288105498667785 4.671565563517299 11.531981715650353 -0.7334917660508078 1.6621379753526988 -0.5612034287646206
P 1.5471679520439199 8.745900332268429 7.980368762511795 0.4022120656976557 -0.4856448775020152 -0.9158593419498678
Ni 5.811991028372438 6.060171490713441 1.1341937615728463 -0.539098112225149 -0.11206847326318117 0.31173340279010825
P 6.875219417952945 4.412115388434925 3.9681188686731064 1.8353385400405102 0.9560814226947083 0.31418726364723953
Ni 4.7158675080894215 6.8039176911926535 5.388038693559384 -1.8359136958176898 -1.2784437659535723 1.5054194674803105
P 1.7836765383340456 7.826966310123469 2.707563567238574 1.202005126078859 -0.2188412453450618 -1.7581362825268947
P 8.701251064838097 3.6429689189303502 9.702029890505043 1.3464962386471198 0.0018506800554935869 -0.5797981610476725
P 8.384099594916893 8.610682059522405 5.012695106760249 -0.6311119808303002 -0.554893941606825 -0.6551985894658586
Ni 6.027422601214386 5.078116109126543 9.758175544542103 -0.8999311007553856 0.5209080715796834 -0.36150764599975804
Ni 0.18850308324046597 5.538812460315579 8.665868919669302 -0.6329145812566778 0.18571772331821565 -0.8434485922876249
Ni 8.745397628131546 9.118861101458743 11.610827660493957 -0.9292866710993674 -1.0964628839699697 0.11593284131459387
Ni 5.089385821867914 7.9529165466004335 11.174175191168224 0.6245147872287566 0.637727943484921 -0.10498765515699984
Ni 0.1667085738878301 4.099689337400411 0.6036443855452613 -0.6789262721001017 -0.38714642961378487 0.8976639019877636
Ni 3.934893781255297 3.8432553871393287 5.260699165649583 -0.11067159291565455 -0.021687769386078776 0.9573489765532224
Ni 1.5266759034095692 3.034888854882747 5.602037102607459 0.35467262535579563 0.23547988234300737 -1.0940948979584253
Ni 6.7579065525551325 2.838084755331078 9.478346657758058 -1.3390865764466098 -1.3718753408418567 -0.35418231598293837
Ni 0.4581106239104199 0.3946647917983118 2.1382337660768735 0.3038627417927799 0.2733224071120777 0.27648820643456895
Ni 7.620391470165859 4.0887943677428975 7.714251816566845 -0.23752596623875868 1.1695855720975727 0.38799335099511245
Ni 0.4323292137485495 1.0082325570056225 6.007145344347612 0.45487288642648116 -1.7075631975650332 1.3606797292363533
Ni 8.41520327087706 5.890358033274723 6.175660911105653 -0.679354617886772 -0.38000107681825523 0.6250295220816461
Ni 1.8190394893448856 3.4450405901271086 9.60896381664033 -0.866632486603256 0.6102474786764651 -0.08912934796850457
Ni 2.671250962412788 1.5439780657935234 7.39859840497355 -0.0835467116744045 0.550529236880226 -1.0528554316926642
Ni 7.372311548652232 7.918339642058172 2.4130730858004856 -0.14937312325091048 -0.31301381216442864 -0.8588443580174048
Ni 0.15328180339547445 7.544702507301872 1.0077344229063487 0.5232904557689311 -0.7725079994130051 0.001558859846687638
Ni 0.17314318683991886 6.895839427640319 3.59169126895335 -1.508363380599983 1.6447048674779159 2.5291335017223284
Ni 7.721700063860392 3.2505215093794484 2.378853558199172 -1.1759513664146004 -1.171766896019608 -0.5669709273760171
Ni 6.732524563680203 0.6298370990918533 3.4262924678439775 1.4384147193249872 0.7729250323457656 -0.40613454068051347
Ni 2.90670844005307 4.103235686584233 7.435920988110708 -0.32388495055097766 -0.23862948371558257 0.39044746896255983
Ni 5.011750022982912 7.62596691604764 3.0996563418710936 -0.4253409384056352 -0.9057901306393239 -2.984387425637312
Ni 5.456058219309597 3.2691946830458085 7.340272842997464 -0.8795605075188335 -0.6877911786898994 -0.3687604709074294
Ni 5.414178394669723 3.2310257289436453 11.378863519601245 0.2592659290190116 0.25249595728502966 0.27324013181091655
Ni 0.3077774087796384 4.4719006204230105 4.19893227409612 -0.9872750746886931 0.10058232700045258 -0.38055900620425426
Ni 6.832178803760634 0.8562724084863867 5.903242797306769 0.7177159912737897 0.6967203628587292 -0.2784075349444689
P 8.67660028198045 6.82755392570132 12.420577086130725 2.20727483757276 -1.163635525161725 -1.7382452000299224
Ni 7.802671990199248 3.14382941138267 5.535390416154695 0.20921349244731063 0.3365358065457688 0.681046403766898
P 1.1532855506841007 1.6139636217227047 11.464077354847863 -0.6320735734126212 -1.2115392908215392 0.1258714405845445
Ni 0.8695163774744218 3.7644862189275377 11.821883879329992 0.3167948764734157 -0.8946297431471303 0.28129488379459294
P 0.6181588249883252 2.6336578330492353 2.278309074792699 1.606845116317665 -0.04337965253721561 -0.5549106537773734
P 6.387505004425308 1.5170514042070837 1.0074976949582533 0.5044980056527762 0.16445495728469742 0.5248570289251026
P 6.979023252181455 6.460881528259638 8.350361749279465 1.0616820288453588 -0.5462285526223432 -0.6712453585160761
Ni 4.569699425234587 2.2653036617678026 0.08463801050800719 -0.1918940273322566 -0.6180785446851097 0.6017165583873185
Ni 0.4056557322455941 2.725415048143012 7.552104140211816 1.0454894782458963 1.9670510127868637 1.0308637579129214
Ni 7.852887563436146 1.3901688800580838 7.931086390954456 -1.2222582199009402 -0.09313281270094283 -0.9031071844905221
Ni 5.161857478255857 7.590613105112016 8.910087159404155 -0.6040398072038564 0.20216764134412277 1.068716824204953
Ni 2.625038742120514 3.7923086078851487 0.569448622139509 0.1451068917753888 0.7877461565189982 -0.12901409997858426
Ni 5.716431541988791 2.651362158742695 4.334191677180617 -0.05884740915551156 -0.5423945235882337 -0.7837684028181727
Ni 8.056729520904161 2.0937535900380384 11.263964548067989 0.3632688516652389 1.3214621784966272 -0.1384024831720197
Ni 6.126802639038337 6.195362343233817 12.09123823991646 -1.3698595959634086 -2.519926381301764 0.28958489171752705
Ni 4.76239049093904 3.823595085349637 2.043775658756758 0.6439338151853168 -1.2224392255634948 -0.5247426148344253
Ni 8.500004888731434 1.6258091592026864 0.17353986610429478 -0.8231633596760276 0.11634627470292866 0.8136338229190373
Ni 5.0980688933231475 8.812449219916381 4.828982336940508 0.1052355095017478 3.041703228639645 2.102561262012753
Ni 1.0617385573202924 5.852161658946913 10.80423613084433 -0.7793682168679481 0.17520551093298212 0.27262409549347244
Ni 3.603885957306584 0.1496531935347085 12.260315007292766 0.7338368080950524 2.020691423820139 -0.5653714440993811
Ni 8.590071189910246 8.177479054583202 7.595460086999079 -0.5669606429633719 -0.11160850290762714 0.6834431861338488
Ni 3.581419652425569 7.188385815079957 13.093662279122292 1.0270127595979472 -1.9534079680821324 -0.30365885331208997
Ni 3.075160026284598 8.917395563546895 1.2521345501379992 -1.5519016702022501 -0.11243845500809023 1.2065788614924704
Ni 6.830396489093508 3.664594336891489 0.05132517836812384 -0.8192884501016534 -0.0726200374595717 0.486150099273208
Ni 0.9291800464621345 7.470082933238161 5.887564826288703 1.745096675734117 0.6215569901520134 0.16563200831193411
Ni 7.082086740317468 7.682269779378417 13.358749138590397 0.7222051373933949 1.543731989907264 0.47440967090782804
Ni 3.3469950032846993 0.19477774487627408 9.145997984775152 -0.15909420719341633 -0.8168924390656511 1.9713442408455792
Ni 7.764110012862796 4.578400776840253 11.383385114810617 0.265207234204111 0.8362821564461725 0.24712929365647762
Ni 7.885298270152205 5.6325622118064524 2.2950975649495122 -0.535337359631136 -0.9011629162799578 -0.3405300153068264
Ni 7.089837524100666 0.2452903705576924 9.724972393304812 -0.8166957496738129 -0.4312004825102057 0.8371473326599453
Ni 6.236547522157271 7.974432283658981 7.013234553715075 0.3034333675648452 -0.1437804596544814 -1.7453674128970007
Ni 6.0874089148572255 5.019519086916541 6.008723835337422 1.5853537792131085 -0.4203396285363019 -1.516611222431072
P 4.922926772033482 1.1303348218166362 10.511966687683739 0.37903691313277305 -0.12368368890460635 0.12948692584994476
Ni 3.997539856786002 2.7394816239004904 9.227198412994408 0.9346571913826611 0.09378407313169654 0.413173706915482
P 3.778415693556775 5.031775927781244 9.443845615840088 -0.3655723029874349 -0.19174696023143106 -0.4485533719663566
Ni 2.4953593549554074 5.858294649416872 4.6301272045103605 -0.3183123415592067 0.48679416061511005 1.1192726827756336
P 4.513542803107267 4.7126593416885925 -0.16168518854909716 1.7981866135805613 0.04991462544225597 1.432667789538881
P 1.0976590529193107 4.854111145731953 6.576087606320153 -0.22205486718635306 1.2869291777167642 -0.07352326600013143
P 4.615893365376429 1.5416564866886504 5.884501073076288 0.0402930431920919 0.47601043973604473 1.9859259953144963
Ni 1.2190483918634736 5.592089958749848 2.175410108010575 1.0657839668288742 -0.6478164380691747 -1.1370395198407515
