# total energy = -340895.6861467049 ev
CRYSTAL
PRIMVEC
9.04519178315620 0.00000000000000 0.00000000000000

0.00000000000000 9.04519178315620 0.00000000000000

0.00000000000000 0.00000000000000 13.23855247665343

PRIMCOORD
 96 1
Ni 6.301097571179045 2.257146163510861 11.42097814082094 0.6693555976925312 -0.521244886093812 0.5467949666487745
Ni 4.58087398257974 0.3495496213433645 6.154418030216473 -0.1325002587549718 -0.45196394030980225 -0.34621086774168763
Ni 2.80737421530407 1.7068638405678966 4.849585821843554 0.489137721146622 -0.7976446465796327 -0.05723018526706272
Ni 3.4373265860876843 4.308034822377041 5.01892085427144 -0.546740202151439 -0.13792708619749794 -0.25551031863132123
Ni 5.105268967089469 4.729866379041047 2.6361532604221916 0.0006993400598697633 0.3931748951960519 0.2738173444706252
Ni 7.17818266756464 6.079408969620633 2.5261673483282805 0.8962482525871598 0.22490570637158688 -0.49329725184095047
Ni 5.186757098446918 4.573701145620427 11.391005993849463 -0.8126326353480328 -0.11741482517675907 0.17786865958744205
Ni 5.60099973933682 8.058813479067574 12.368779449856738 0.11094515829201537 -0.43619305062879077 0.44916812273221995
Ni 1.8844752233334512 6.578332694511915 0.06435382486056689 0.11983397614121298 -0.018822532023141776 1.0466994393935973
Ni 2.8858955238082347 1.4766637136895424 0.49115390528466163 -1.5175543030706318 0.8084944448099431 1.075402977975877
Ni 0.5736695704108099 -0.26992570398000637 4.71152092138546 -0.13664230594780338 0.9525595255843788 0.013788054923027869
Ni 8.723508430886149 2.375755761300875 1.3623397276918647 0.8401683788744563 0.7230479450096644 -0.012631829831397599
Ni 6.7640666593575 0.8159368874372355 4.915885267422847 -0.18798569341678592 -0.9034763949044827 -0.3678983800174503
Ni 0.6209406463667616 7.284798341258752 2.468327870476664 0.8498519247108073 0.49360526999967247 -0.47594076284037384
Ni 7.397953688498367 3.9801104451728038 3.6545287725996656 1.375801158258824 -0.4060864610513974 1.0268929461906315
Ni 7.685572691817735 4.139161094722076 12.705528316011174 0.3696241044593053 -1.2583716777940457 -0.17857648428774409
Ni 8.080105860154868 8.630125872540683 6.894280333484341 -0.7229607846124968 1.0774634600493314 0.08775277933595209
Ni 7.080150880723476 0.937606473554281 0.4503637091286449 -1.5364328851426894 -1.5323733703613351 -1.3751247010170897
Ni 1.8195850186094704 6.679168490757098 9.224345213806304 -0.052885792255437956 -0.7167595408977914 0.034863130425772215
Ni 0.3164197979752958 5.001882426805792 1.183992970847127 -0.5475621838321022 -0.5060260122615285 0.31915334940326323
Ni 6.551848373431373 1.9999280492460372 7.014195152425968 -1.4931463065399124 -0.08505440656818254 0.3183527078788388
Ni 3.431980877836796 4.305131315865138 0.5895022738327302 -0.3767370613550028 0.7917863880266429 -0.5803956854223553
Ni 6.026666457250193 5.687933076053042 4.899574977883081 -0.8407707883451455 0.23443730001110594 -0.8345361202893434
Ni 5.2291790471722415 2.780889894223527 9.323462423642571 0.1069622623848674 1.0868847533632313 0.18123423362556532
P 0.26187457891382077 5.65004276833228 12.166097509461766 0.27025071016528945 -0.32615163509796735 0.7492148332130194
P 4.144244492415814 6.149644882595502 12.508128767525708 -1.5134760192362 0.23769617326803583 0.5263271857127257
P 2.4015888285843556 8.482417893290249 1.4933882730057733 -0.8755017640684277 0.2793012504033319 -0.5788969893896417
P 6.354608924837684 7.717710257664446 5.792607651624243 -0.2831879870522478 0.6739329326505683 -0.392913156894233
P 4.757707478865471 1.050164838146589 12.832552655570733 1.0696966716197192 0.3171221779058474 -1.2872935030347186
P 4.098014518016 6.17123575500645 8.299896780510172 -1.416847534677173 0.2529199321963257 -0.3442190341226395
P 4.75847632015367 1.0453347058183753 3.9211005195247997 0.15000432907700617 -0.15258700220251786 -0.9175321016666005
P 0.1336318520422566 5.445187268389609 3.4487090552296773 0.49069838076552263 -0.5099651994149346 0.7957309744966876
Ni 1.4262819963334545 1.019890581774807 2.7859343975932735 -0.203491759472185 0.20972257087324525 -1.0846391518621643
Ni 1.8334603425635527 6.369244044888338 4.679298330737466 -0.47816733817804746 0.04681053259563551 0.31407670621130424
Ni 6.03683325263767 5.667454762212076 9.13393942802491 -0.12031682931490248 -0.10122818811456762 0.7357494517367328
Ni 8.441931615572862 2.2052086731951235 10.07792728427124 -0.0350284523590429 1.0819168678349949 0.25595666214012047
Ni 2.3184092463928683 5.1481069946295825 7.105263046234374 -0.717416714865816 -0.2537156886247437 0.10881731331573517
Ni 0.6068410016603576 8.89514998717863 8.954014285241458 -0.04459578433250384 -0.42148145545022897 0.6326338167914652
Ni 1.2683258149709125 1.0833154654553971 11.336728512460114 0.4135714565745329 1.1258451937868288 0.13134377655302543
Ni 3.7919704593547383 6.778249519826862 1.6119662126250969 0.8363526046727918 0.2574903251758275 0.172455973212303
Ni 5.753673528789855 7.677468200120957 7.870557714796698 -0.9323987343657877 1.3053480465435843 0.6458505725920555
Ni 5.374806632348725 3.025688960386033 4.689929144455349 0.015627165014295667 -0.49638463251702253 0.2544955042135617
Ni 0.7918739641549374 7.183808776755929 6.884669817381855 0.28990036607541686 -0.17840653436878307 -0.3229315854987729
Ni 4.963811215252511 4.629681836592927 6.995807182369739 0.7182019297712727 -0.17337385704088207 0.2683439800608798
Ni 8.129836323713894 7.074045376376016 9.259758043540742 0.5526331705971064 0.25837786998710344 -0.20481510626929889
Ni 4.686205239062979 0.45445394478186263 10.596719677087906 -0.417788579979674 -0.2018971612915555 -0.4395971912143332
Ni 8.091855564076873 7.041527912481017 4.59126238516205 0.2013178917493178 0.06119199812828816 0.36350179361165136
Ni 7.275698878483127 6.075528582413135 7.001710978943944 0.8392121856087741 -0.2650498826906403 -0.03077456217869539
Ni 2.34102222545754 5.0946499121206985 2.592465889388409 -0.33547419805047385 -0.2508275684436712 0.718242296090905
Ni 2.3794009735261 5.237998109007464 11.277194870216972 0.24985903388281486 0.16935547991010833 1.353844965702707
Ni 1.0391116139797776 3.1589698589932063 3.8654454554508306 -0.7125462741473922 1.0795116008276118 0.20548153620870416
Ni 3.941424160588964 2.7789813587904684 2.6106422019605917 -1.0764113646357334 -1.3262611425471675 0.055235266324221
Ni 1.2004506970103948 3.2697825016017212 8.5084571909428 -0.38218497184345146 -0.3116441855104117 -1.7298063252339502
Ni 3.606064635868262 2.7807632615407645 7.283440657995709 -0.5711561691019582 -0.3600302901232832 -0.5022511186001286
Ni 3.9358070965892993 6.7074347145879365 6.025818018275686 0.32236414303107713 1.0072489467074588 0.22386723780474346
Ni 0.5687815488561906 7.627095527956495 11.307127218345297 0.914434179467567 -0.7076020427682393 0.06983501851526683
P 0.1724872817095001 5.551332592119175 8.152167997319001 0.6097633399511951 -0.860974259876214 -1.0109058267337558
P 8.612171167163334 1.4661260654454056 8.075159044854681 -0.7553697970708216 0.740118527338706 -1.3455485300218697
P 1.8747968682937721 3.1941646996094604 10.576213323152901 0.34978958623188144 -1.0237831969170563 -0.515648365842641
P 3.970016011318334 6.109619909651034 3.915646268974401 -0.10055070243156876 0.5825654393801645 -1.2439475319489155
P 6.939751416306745 4.075057821669545 10.25842136960796 0.8710594120263578 -0.5525382968904549 0.25548872136476647
P 6.3915675778209815 7.779317057828236 10.207757442273147 -1.767546520097201 0.1027094006457844 0.18987931089507298
P 2.345056380922677 8.373730870713812 5.809844168786499 0.7422844246417732 0.05924027371855604 0.25617417746756527
P 6.949257912705533 3.924572968589971 1.5403183452374296 0.1565228469218143 0.3957192588844604 -0.34528475638299244
Ni 5.351026823564317 3.0350055077606775 0.3601994299636621 0.33870787449642314 -0.3452112228325797 0.3187851674305671
Ni 1.5966029546485592 0.9917509906267301 7.025394908697119 -0.4138133973820099 0.9242773908102341 -0.5617685572394712
Ni 6.689715184192861 0.7068202182585703 9.111645744224631 0.1476887935699521 -0.534007585076119 0.06659028632572403
Ni 2.6720671937727025 1.424536274349662 9.200423395513369 0.41488374762805325 0.15514550695831344 0.8616363189402451
Ni 6.661575593044784 1.9090238734060585 2.491548686418594 -1.8123528777786142 0.5462228961953883 1.1702093217245009
Ni 3.964751709792079 6.9690397467913066 10.462904207655644 0.8331209851093716 0.328384381083228 -0.40641376248382916
Ni 8.259535326437224 7.084483527512267 0.2520741137871922 0.03813614475008916 0.6915421610918994 0.596196657010354
Ni 7.71198465136527 3.8621792367547294 8.063019493173602 0.4410668337813243 -0.2698316203499998 0.8584815753613474
Ni 3.0346527452872687 8.495822867279786 12.462521102309752 0.47556023957250365 -0.3417906271868049 -0.516984053934929
Ni 0.3213801810629221 4.713223226449448 10.181453120505957 -1.755085154405397 0.36403889706204406 0.5266570582483188
Ni 8.604971194629142 2.2612526805090054 5.909822480865548 1.130640301182627 0.2734000544275485 -0.2740225185028958
Ni 3.6582644367411494 2.681745548812382 11.691984745200239 0.11582562631276826 0.011266059832122532 -0.44376109278403575
Ni 1.3040633670847188 3.3239631994406738 12.737407189377386 -0.772085824273922 -0.17106140685762156 -0.2336826812332685
Ni 3.137035269300475 8.258151412118465 7.955323823599362 0.6009760806768681 0.16333524185795742 0.21316990599189736
Ni 5.765423232711858 7.824524925574328 3.5404128260093826 -0.8130748650917738 0.42527846059881597 0.07287251979000998
Ni 3.0553029177691267 8.35668068449905 3.660234479477263 0.9240727309985957 -0.2253055129131668 0.26917367505102674
Ni 3.3526907280444322 4.348991450058974 9.311891814514759 0.6463043723000225 -0.030295822770063954 -0.3730585840621511
Ni 7.165709348312567 6.124725379666234 11.569607825098052 0.07181631061135374 0.35384832968228735 -1.7028884177971833
Ni 0.5079282131548348 0.11459624626561626 0.15512503638364541 0.36517866709344204 -0.20351078563557853 1.0827126242634129
Ni 4.670104797968933 0.263881706935601 1.6554410216556716 0.5348797032684272 -0.5297989463114101 0.5919396815062128
Ni 5.869424846026095 5.736578116616964 0.5065162587420368 -0.019434711685843948 -0.6931038491520644 -1.017196287728158
Ni 7.830268622256754 9.011706326469573 11.255946810568645 -0.4107188176170862 0.603085156600071 0.4391511048158501
Ni -0.03538750319788548 4.77379887476789 5.73433219553626 0.4083068657414839 -0.03323536501436211 -0.018397785780897347
Ni 7.8482685535922325 8.854663709461244 2.5269750839404708 0.48177511013396385 -0.5295662614753138 0.1699272932531783
P 8.434623100739161 1.6269224369784705 3.746232543379371 0.6484111342303801 -0.444941229135066 -0.34868838274790276
P 1.7616234306709047 3.120708698415782 1.7290209419746243 1.052727133644916 -0.14265225958730918 -0.32016584982817764
P 4.636103922647294 1.1066611050417638 8.231175937132637 0.4319702707966947 -1.3350530298071848 -0.6485168065703089
P 8.447955713195691 1.8468743617447159 12.319769888070295 0.2673865012436169 0.2681519186547317 0.5469795718557547
P 6.382440979470481 7.693297285466226 1.1965694052837348 -0.1037219010706988 1.2402618555672125 1.2610548810531637
P 1.7337732856548556 3.188701403867436 6.069307299612863 -0.0816500088723239 0.12596091497455728 0.25289524960597737
P 6.853550740112217 4.022215812191222 5.994628388511368 0.6706043824979676 -0.7013239230690115 0.2332129406857016
P 2.341754885979235 8.57896626870477 10.305312547515626 0.8937344850263704 -0.6107537288889224 -0.22608018629566226
