# total energy = -340858.8947291582 ev
CRYSTAL
PRIMVEC
9.40369949090243 0.00000000000000 0.00000000000000

0.00000000000000 9.40369949090243 0.00000000000000

0.00000000000000 0.00000000000000 13.76326474544749

PRIMCOORD
 96 1
Ni 2.6536676216673154 1.371896339601207 6.850224696061382 0.5289939339116115 0.4660119337624361 -0.4410174686006276
Ni 3.1190379104086494 3.012005000886061 12.643127494265675 -0.04266257186553298 0.4630574791198025 0.9045909681249
Ni 8.51222893163304 6.134700950462194 1.9063631326994275 3.622150593235542 0.07861019360473559 -0.2996736434120968
Ni 1.8650545608358862 3.851388636178258 7.562019874745642 -0.21156373784704208 -0.3617799258245382 0.223330391464667
Ni 2.7294520372219226 8.186240279242417 4.877178048337655 -0.5971960448091458 1.2072082675463531 3.1086429278849885
Ni 3.899084200850422 0.9946199092685539 8.941291535989668 -0.5407119936794882 -1.2636964324410689 0.40376166957296267
Ni 5.9296814904893 2.6308918610923984 8.564742011640682 -0.44650317430554715 -1.8547120594711157 -0.011501572881696322
Ni 7.473402230265937 4.454805235918679 0.9349167605013808 -1.2504051146488013 -2.315192264782045 0.302533224348079
Ni 8.461006979588625 1.6612669855183655 7.4886888844321575 0.1687345584966578 0.5134960953863286 -3.1076921339359447
Ni 5.3057366143925435 6.395474945715304 0.8887859714525309 -1.726455406483846 -1.3305654263494762 -1.7255182393815574
Ni 5.261322940901488 4.29689831123907 11.97516954228335 -0.8196224364023046 -1.2738533183694125 0.4067832300081059
Ni 8.001184873646299 1.4774058497789828 9.495964998915875 -1.457901110184373 -1.1935266562942024 4.2379688811315654
Ni 0.03736183911651705 6.61012379413936 4.220849651724035 0.11846280682529921 0.7031589193952212 -0.4590509290635707
Ni 2.8367388466353134 6.478293328615097 3.515371878470918 0.16217438878063684 -1.1130716961712444 -0.4912627379094248
Ni 0.5798697357934376 0.23372801466288778 3.7665381137820826 -0.4148251264759759 1.1712094808542408 0.425522458288822
Ni 3.2886054226658383 8.13420020532764 0.44741392424182785 0.8060637238812635 -1.2822078609816951 -0.09229694706320879
Ni 8.98348593636112 7.805569113332744 6.2494994351634645 0.5751251810520353 0.8970008144824682 -0.11411584271051316
Ni 7.695442386622233 8.758549440509748 11.080460180415404 0.49831347410861915 -0.5296490509971072 -0.5527285585243901
Ni 0.725576300535021 7.0100631406510185 0.5568617038369346 0.725038493077132 0.3511291309789114 -0.8310216793781816
Ni 0.42154622721892 5.640743414756471 11.92317178501704 0.6377770515553016 1.2101634935199352 -1.1481759960735451
Ni 6.701866288015865 6.513566606037275 2.6304216761094312 -3.4639490730597244 0.28797460980761375 2.803858188498571
Ni 5.8949536276473635 5.99434132934691 8.008417259054296 -0.05902635793553705 -0.1660007045052625 -0.20018814902024878
Ni 9.27296002297453 1.8594593595385798 1.274657383273819 -1.2775009424243289 -0.033913364917993204 0.35541413150751044
Ni 6.067107157310869 8.336407959102392 13.286120504392386 0.16147684849297997 -1.309572369037577 -0.7423808410103214
P 2.6236133975560705 5.477100233284665 12.930958754548598 -0.37808663340436177 0.31936906495849515 -0.7636808880396784
P 0.22220189999043682 8.314497338896134 2.1934373951597754 1.499773839158759 -0.9227514410840109 1.289672030569224
P 5.367735206246561 3.750261250041734 0.1685246419649678 0.503671653096739 -0.07329880869415119 2.469115469297483
P 1.075425900441248 0.22390396962877707 5.837427435351327 -0.35403062089642257 -1.168616266205768 0.9885138321918008
P 5.90409402371624 8.574236927186716 5.463465809148591 -0.26385251994842945 0.9342861811964878 1.2508987664557683
P 8.084059678744048 4.277047101258207 3.1031343735447767 -0.8034846503001775 1.1620830930729407 -0.051616952845343365
P 3.5718918749034048 1.6827262281409754 0.7438947074714121 -1.0001565586370516 0.09402961348359935 -1.2774700891863937
P 3.0716620715249032 5.708703952194509 5.690173962015783 -1.2608227104376994 2.154990940567379 1.6937628013468313
Ni 2.4701826339143067 8.647247251341819 2.7204611599776296 0.5358099283921804 -0.09767749464883177 -1.7683476758422576
Ni 7.929980059825789 3.6776458812723236 8.990866900223734 2.459115677772294 0.10064403347632345 -1.0305868501024509
Ni 5.367631765550308 2.6496710493120967 2.5249676477596457 0.8872807589812268 0.44464966603657613 -1.031404718018056
Ni 4.710134489069033 2.1294959989561386 11.035330885380272 1.0383114724402183 0.16945755270561136 -1.5551600292385475
Ni 7.765998345166248 1.2329378697351647 12.838139537061101 0.6530653451729398 -0.8078141309134668 0.6955769932829052
Ni 4.377920587503929 7.9768010804296345 7.015205083624745 -0.3932312023552841 -0.31672879912217067 0.3638627764954959
Ni 0.6520111581000174 2.387260810318261 5.445587495356257 -0.0345114035133083 -2.5406312179492825 0.7585121993545453
Ni 5.777379170806656 0.4019743071179392 3.488368214529162 -1.0371305647582396 0.733870232436149 0.577388008944283
Ni 4.946552902204457 0.11794590297725077 1.194079902002847 1.0053350175141975 0.5584191811512641 1.1452611364195953
Ni 0.904204277413982 4.597496974549478 0.1834342077748487 -0.5481651075234236 0.6929184726141356 -0.1624682658719718
Ni 1.442743812834662 0.07740091152604771 0.6412411008801773 -0.6265765548537918 0.7580324315046494 -0.7265209911599295
Ni 5.15642467120157 4.433270763698794 9.635042895767592 -0.8382004565148081 0.7300624286542846 0.43075696721488393
Ni 7.210832128377892 6.220396865457744 5.219979575349208 -0.2554041320707602 0.20216944111633567 -0.7970877456348981
Ni 0.33351067174812665 1.4413990837833763 11.53095945851546 -0.0004936518069668918 -2.532817892552451 -0.17361502651741068
Ni 7.898750373257127 2.0980030087970145 3.4137987569705412 0.24508012443693275 0.09384963626230934 0.5327505727405665
Ni 5.7867264482680385 9.049622156065245 9.331865738010592 -0.6550556361300912 0.8997187276342634 2.572724241829085
Ni 3.0969862347075012 5.460991695768219 10.722561013600782 -0.3477085353331366 0.3044127007589789 0.3137427199106532
Ni 0.8937172715538878 2.0878752242639074 8.987329228411891 0.7025310560032352 -0.30998788085391127 0.7696504753595519
Ni 0.7776248377794927 4.580664352159263 5.5129856915546664 1.1565189687216018 2.3625820669199182 -0.23805561348998358
Ni 7.928277990187449 8.403569182069386 1.074817481073289 -0.8908029132018723 -0.2609911392402344 -1.210512906439554
Ni 4.928582432155462 6.835144923287667 4.619227043722277 -0.13198218146797272 0.3370124890718712 -0.6610167388095326
Ni 3.393503692365757 1.5359814949570012 2.8815042184936277 -0.8549661060089211 -0.319438741854166 0.8623364303310632
Ni 7.997451604881542 3.6237156637260184 5.58820212364985 1.4841957822148437 0.38561379501934234 -1.405140787763206
Ni 3.52889816006091 5.504023025409351 8.142306194433989 -0.08689120266660519 -1.4925163862653974 -1.7215582262925446
P 9.26488224496716 2.925246467829006 13.15660805083415 0.4214981676207773 -1.5923083561540705 -0.33467201386415263
P 6.8482536806127845 3.9527417111066065 7.204683989540617 -1.9297638463006312 0.6177656414303813 -0.5269869307839117
P 6.956715952483593 7.293095692997784 9.337990367598719 1.0314054893490043 -0.3723520449134297 1.5154981918725514
P 3.997625569580628 2.0966582797457294 4.936814430837246 0.417016734810656 -0.4106360280952928 0.4950826258761473
P 3.2972662300520885 4.84519042357645 2.1580249429826392 0.7792180644433289 -0.8793838727316532 -0.3078682634077472
P 0.4459525893147667 4.862474423550314 9.33379255607079 0.5804085409381617 0.2246833059481356 0.050515235140732355
P 5.7793539477351175 0.20620338576000458 11.65495288074363 -0.5984671982120854 -0.6904988074290495 -2.5065916118660705
P 3.7320744949005733 2.9201496626136443 8.431554592255576 -0.4361146319823715 2.7017167445411148 -0.8946644530398076
Ni 8.10406134791946 5.719076232918758 7.1651141617440866 1.454893947926933 -0.2787029546977006 1.7682651434307803
Ni 1.9179315640203454 3.028292208696035 1.38285070933437 1.3065027289733178 -0.7632219461253889 1.3325258925099568
Ni 3.3613994617287766 4.15265496216448 4.399771964402333 0.20553527226477505 -1.5061275492909287 -1.9160500962589646
Ni 1.1426623530055169 3.459959637858301 11.169742666461024 0.48768916162555365 2.1148529348959126 -0.772557878814334
Ni 4.0573484661170856 7.8538194962848085 11.155759365067588 0.2576525617853046 0.27184299435307374 -0.5814873758246373
Ni 7.33705798890519 8.276910751357757 4.024640517961975 2.287439777259125 -1.0238580160190496 -1.1802443373629996
Ni 6.774472253085616 8.283954122402601 7.502107963846033 2.491353711870393 -0.45920930901830587 -1.9874069507353964
Ni 6.114934373778264 4.36553591505258 4.0770783683723435 0.34497905221711556 0.5985600150362079 -1.1736134623100434
Ni 1.9493963430804915 8.388927621699796 7.618806936248455 0.0734348200513832 0.9395309745351949 -0.011316453454083737
Ni 5.057112199099298 4.913762201492345 6.035810704474626 0.24284017936282049 -0.9403696683864062 1.1958388493671468
Ni 7.945815890052115 0.5597646259217723 5.413629022063995 0.37098936023794815 0.6233313084436168 0.7417568342730774
Ni 0.8795543594969584 7.132292428823098 9.76933054801284 0.1957990188136176 -0.715349290813826 0.7240856422455594
Ni 1.0667650930549974 6.2763864932294435 7.575576248174545 0.1522419601582733 -1.571824634378422 -0.6998987605867107
Ni 5.628772505090134 6.27401676091529 11.316651964389038 1.6875399603655712 1.6494071580495917 -0.2563901501331133
Ni 5.588910222234198 0.8041996930167827 7.2826801552551 -0.29996186407647696 -0.038478101470540184 -2.262548156223768
Ni 5.519210000359182 1.5844857777998682 13.143670440842833 -1.3629410144667042 1.429274447586616 2.3544630373572093
Ni 1.9276079709698044 7.557452497821102 12.363940114709612 -0.0020926208629705894 0.584424089855458 -1.256930317361829
Ni 6.206385352965329 2.322130786477684 5.2443266941372 -1.8172680556920444 -1.1237111781629614 0.49492270325951543
Ni 3.2894705630344974 0.3528813526763976 12.22828892601376 -0.08033488960532616 0.796597436262041 1.2869209501866483
Ni 9.350107974979743 9.145079111307188 8.85346756376121 -0.33165533852501594 -0.4827318176202782 -0.4385008728263609
Ni 2.2206272523547863 9.106213620615144 10.004709852335909 -0.6908613329747908 0.17446940409790596 0.35091547230620856
Ni 7.937098660467909 4.372315982506963 12.387612988232032 -1.1989097749829867 -0.11192166327267175 -0.7534599816426185
Ni 7.7621710394048975 5.49848424631 10.224481836334371 0.30253656678218865 1.6352730326410547 0.5312840154973689
Ni 1.1821484878750783 5.208643415409875 2.4847781161555655 -0.24587793774787975 -0.551101050223296 0.32808639022683495
P 2.5836946925021795 1.8361852028817174 10.74726547297583 -1.3416101141994121 -0.44931776093620684 -0.3773739236080533
P 6.807027861306246 3.3029554683459885 10.781963243978856 -0.22774137604816908 -0.6028136481062393 -0.2224068512091331
P 7.217941325320352 0.9303305761775216 1.7405984765844753 -0.8723081968317945 0.11729501176944315 -0.7051952330989597
P 0.6468569903167342 3.2957522344069354 3.5399531493804286 0.49556933570457873 -0.5869044330751505 -0.9339015441635593
P 4.765672739257084 7.735840680358749 2.4614362528611555 -1.1455789247703303 0.5274967805407949 0.9497071437372483
P 9.279730686729255 8.457950777199338 12.604218746555196 0.5441629283425661 0.4864095235821816 0.23876343819028556
P 3.3899584975941863 7.250130189254267 9.100270482430442 -0.6424451464549322 2.199279992292741 1.294057047010797
P 7.062799088340588 6.123388299772009 13.409245965142 -0.01189932254074725 1.542430497487021 -0.6486870135995861
