# total energy = -340888.908159154 ev
CRYSTAL
PRIMVEC
9.09679085649914 0.00000000000000 0.00000000000000
0.00000000000000 9.09679085649914 0.00000000000000
0.00000000000000 0.00000000000000 13.31407293620276
PRIMCOORD
 96 1
Ni 6.381971729736261 2.169066049882196 11.179067846230549 0.4895051317883698 0.44252336372219275 0.7594604222004276
Ni 4.811629149216119 0.4762679318797881 5.87234495691116 0.2951287043538917 -1.0156104312982766 0.18023047495139927
Ni 2.9487974593412805 1.6179096987615407 4.933329653075507 0.19270675304153911 0.5306579518775958 -0.09821511231985665
Ni 3.8085442392443025 4.8798550789943755 4.960850173789928 -0.20410419624520335 0.0973890168741355 -0.4002845096576397
Ni 3.8018399045447593 3.1209633189390478 3.181664383502293 -0.06222403893722831 -0.564669275826034 -0.5793099085573443
Ni 5.335213127915723 4.833788931208097 2.5569013509415375 0.4498445799739542 0.29521612186137547 -0.4182657767264087
Ni 5.015460937021634 2.713154194677825 0.5812867410688606 0.8370133781852425 -0.46190279669006906 0.6820450202347415
Ni 5.743022252176947 8.060047601771586 12.20662130365804 -0.08718687953015308 -0.20472537476897001 0.8945677795609432
Ni 1.9676267180142388 6.921547866375888 0.27043121141785625 0.0031812259414590372 -0.7631869791223953 -0.315793688902411
Ni 0.9701636246561498 9.100975160793741 0.20440124689939732 -0.6663669473778524 0.4675916195447301 -0.8305917909296148
Ni 8.132239732267616 -0.007166451663907911 6.736374505846129 -0.06227623233140243 0.0171590282777898 0.28658107189419674
Ni 0.07978340228269147 2.060004626933996 1.137006042373086 -0.09514907180002322 1.2832404160112674 0.17904313951151746
Ni 7.0183650091265495 0.7777592252489609 4.627359099996626 1.4881233994040242 0.582240709050894 0.03329475749738782
Ni 1.0365338091444365 7.938023252165516 2.4084226244837166 0.4080646678236908 -0.7612743354807147 0.5796472372921049
Ni 8.12717281988275 4.180857686439559 3.662222361846538 -0.6831531656972557 0.3063286868347692 0.30000711549211556
Ni 8.044865058198264 3.8732951949991854 12.455940683365311 -0.23519654677463364 -0.20758829813906182 -0.17696208861277266
Ni 8.362752407011747 7.4935358680555035 8.94218340279064 -1.41007164940592 -1.3063186379869696 0.0814944571310661
Ni 6.960191033002291 1.1309130120043558 0.1708386378438144 1.2580695731725946 0.10099370350625833 -1.0731026119774745
Ni 2.039918913207278 6.634280314846885 9.422369322397827 0.19290961308096455 -0.13391873636905324 -2.840052121920625
Ni 0.19205235360953318 4.757457760972184 1.3272308507436257 0.023315534797488876 0.37151875037885695 0.458237689133656
Ni 6.695992942528976 2.065781088988555 6.646358123775763 -0.10511801008727702 0.736793576730531 1.0003799875017674
Ni 3.7361792697261667 4.60950755805038 0.3228651126501046 -0.7475441303788158 0.6930956216219483 0.24364930552767716
Ni 6.310298116306544 5.823064912992796 4.806725979062723 -0.3599241035627221 0.7518044483170665 -1.1632004945068355
Ni 5.573940204605156 3.1305968202237375 9.013520434966782 -0.7928073730919895 -0.3850730920245239 -0.6699124986372657
P 0.5381670437699396 5.540509499013811 12.422908417203873 -0.11165812519863995 -0.48830622638426224 -0.37982187092791364
P 4.309122434422678 6.037567236215629 12.097632655034936 0.480953642673933 2.445281342992363 0.6687236205354871
P 2.794479502973505 8.884116768795899 1.4727094556493305 0.8909996025937106 -1.6042632145231015 -1.2983294491339057
P 6.470110534219129 7.953969926152355 5.596184586750058 -0.06095442819618534 0.3623303990113695 0.029318546458459188
P 4.801522614818301 1.0602127551728093 12.415306229268447 0.3358179545431378 1.0870076520943408 0.22985893661180412
P 4.2556424022671635 6.319531358803201 8.453543835644394 -0.49049834893957456 -0.6680929289300236 -1.1676330763568923
P 5.148847178133442 1.3894892858639425 3.8826494248113157 -0.8575145834623877 0.6315567816772026 -1.6354743500185835
P 0.5126942106279303 6.028297606556424 3.3603389968009063 -0.18069198796885008 -1.399624485930667 -0.3963196114726207
Ni 0.9283183877254868 0.37316217776169786 4.806833321192241 -0.2724878270259243 -1.4996254865063527 0.811199502445932
Ni 2.1290492678695903 6.944480875572019 4.61118227720667 0.867386334050145 0.15143591931721018 -0.17058755254499652
Ni 6.457820770068406 5.985906562187535 8.943928167234835 -0.5947529825852917 0.9555471474577931 1.732182281665294
Ni 8.637739291180663 2.676394063713301 9.987724854023933 0.43853275450556084 -0.23788566357102256 0.18384261778268984
Ni 2.7026564982826105 5.459748191737632 7.065072480652744 -0.22602207936421717 0.5471585206357803 0.19525574471563792
Ni 0.6388021095509933 0.05455345345069274 8.921174364814256 0.10213604464081764 2.413766560213533 -0.962325089611575
Ni 1.7689891976625085 1.3353542847825566 11.12678313236475 -0.2913880063645369 0.8996631918059796 0.9464343865232475
Ni 4.314298508295189 6.861690983983765 1.1221382477558086 -0.23017029720463586 1.7716147766293038 0.12801831172421824
Ni 5.700285529763848 8.07023600728514 7.853731480443078 0.46657911911981576 0.7963632087640479 0.8343147483071567
Ni 5.66874695662502 3.422158056933451 4.760779908912855 -0.02525491791204683 -1.0401922344026988 -0.548559771858681
Ni 0.9158193973901104 7.662399592652004 6.826990366419481 0.8661072102274052 0.3204918657090287 -0.277036108518239
Ni 5.444547454583036 4.902305958286739 7.1844332899602685 -0.6747536287796508 -0.42639611914302694 -1.0073080820801683
Ni 0.5791262532925492 7.464353363691685 11.07256898920482 -0.6405150193117549 -0.60737812754847 1.4300190390621244
Ni 4.700812045674959 0.8337263199646591 10.133540040183211 -0.5449784822653259 -0.4536436420050703 0.2085838292831117
Ni 8.412111593008655 7.5287495446117205 4.523296363503513 0.31014626080864655 0.15803928356634073 0.016370470938223417
Ni 7.518197267472683 6.530213029958453 6.7761575003393615 1.004224300948522 -0.596778497655753 0.3625787675767497
Ni 2.7565185956448834 5.565234575965451 2.2677725960481845 -1.2083932889933897 -0.2905048324286352 1.784269746389153
Ni 2.4209925697860624 5.42156896143372 11.301717145353384 -0.8614206033850133 -0.4731462308143722 1.1069938654082805
Ni 1.3532294783844594 3.691377575838446 3.627659105820874 0.7008135590914962 -0.5197199648088534 -0.4983008757031289
Ni 1.954900307912935 1.2719223636700534 2.754907554023053 -0.1916374312367603 1.2858122905035017 -0.7870576150924058
Ni 1.2777716000497092 3.671191797414719 7.893035074069735 -1.2073846452232173 1.197816284808492 0.924239595593763
Ni 4.107510263532616 2.927219871950078 6.729331770534887 0.5344577852396601 -0.16834195104392943 0.644900035753328
Ni 4.455817280236564 6.975300802250515 6.128840794752042 -0.5989577646952587 0.4127268491860505 -0.48959100663395677
Ni 8.518889721506943 7.073537044340565 13.312355308857965 0.867466295358461 1.1171270971875407 0.5352867088988587
P 0.43562074227603115 5.80921050085249 7.663287439418184 0.009672232982441405 -0.4264796799957687 1.4669611635041124
P 8.637302645230083 1.9014020821761461 7.799290827196286 0.0076559738833610076 0.09360486724135492 0.5094185828828453
P 1.7172193621467686 3.406484286665727 10.366310538363471 -0.00403920306638014 0.4872186497470384 -0.7798780666248311
P 4.388228125802906 6.5935630799552225 3.6725272062802454 -0.4037411007476724 0.027232353353391806 -0.7854807575235891
P 6.960827808346888 4.240696375250407 10.179247774418387 0.40586457484857846 0.0009942455924692555 1.4518770154774803
P 6.397891113351187 8.057036564070705 10.146388347279052 1.3924613925233242 -0.17438455769358352 -1.0285482224058673
P 2.7778323761076105 8.600933676262954 5.97522238158426 -0.7324872360456933 0.6626882129746845 -0.7211759247979321
P 6.795302605914204 3.9214808950039077 1.0393256141909626 0.6382025691284945 0.8733780328572055 -0.04430524967527853
Ni 2.8768873293549997 1.666832238807868 0.3133107534439577 0.19223418428049474 -1.0653988155753136 -0.19298571773453863
Ni 1.5156162880473436 1.629153331988997 6.991445786273241 0.8984092647942205 -2.186816826828724 -0.5977053803453964
Ni 7.02570611917069 0.9591110240320726 9.106506009501098 0.008629650650539977 -0.8718271434303178 -0.749228202949458
Ni 3.0284034742065487 2.131469014179059 8.91599465222549 -0.10566051285430836 -1.1012747035363162 0.1658515805219079
Ni 6.885224381361945 2.3514385085747906 2.5513486699366514 -0.49913211335517266 -0.259880679784875 -0.049689911025959585
Ni 4.1905002845148855 7.53182425984706 10.22359644813238 0.20642281707605095 -0.7036317452665818 0.21213143742505403
Ni 7.3277923426475295 6.140433744739964 11.328118760819443 -0.062442325595621496 0.22484399989571602 -0.21353937351617416
Ni 7.706582704776402 4.3012537105215864 7.913511949793849 1.2533652257183898 -1.3395899984455895 0.4754532816809941
Ni 3.2541676242381135 8.537146980315605 12.219389558996273 -0.2993913362849876 0.25929523959505024 0.4473436679289715
Ni 0.00864013174711822 5.131890760385885 9.83549188207018 0.7076349528887039 -0.006113826207221729 0.5694278735569418
Ni 8.840634109550557 2.5442176957562284 5.519641461292302 0.1491808047344463 0.4176391988860033 -0.2329452888466117
Ni 3.5402707865655665 3.0973480504451345 11.66589715204001 -0.056730105702192626 -1.1281399033582764 -0.9586196157355297
Ni 1.437593114752931 3.4258331603508396 12.908618817764971 -0.7311335502312764 0.7029437180606216 -1.5255800015885854
Ni 3.291755563150613 8.899708667947888 8.113435756341666 -0.5768982137920581 -0.5806414828845742 0.1248993064792623
Ni 6.206949477878444 8.137288451071207 3.2518024586724668 -1.066323127161796 -0.6323345403834916 0.26099628144655695
Ni 3.701602368514547 8.818719940905781 3.5189097027915266 0.1937521635869179 -0.9280494562581566 0.2238466689794532
Ni 3.359171878562166 4.315854059494133 9.300012939933504 1.0143431345500789 1.7495320857976513 -0.6647240124577907
Ni 5.407405258411754 4.274218048748123 12.062736456471953 2.9612634380253384 0.0883122513838479 -0.861278421380194
Ni 8.248187425728101 0.18434737193990888 2.271008324477801 -1.364769325924695 -2.1141150282886234 -1.3323734260924924
Ni 5.240788441102619 0.35808333760163985 1.417842162921658 -1.8721711354878274 -0.5882144101358256 0.6002883105812242
Ni 6.311216892160892 6.049565903065965 0.3294311761319639 0.29433294792547376 -1.4268735514546071 -0.5565795568393641
Ni 7.963084910370728 0.1229240222000777 11.356504386323452 0.15706072170315533 -0.6739794696177877 -0.2213943507842187
Ni 0.665528480442795 5.122666614679866 5.496674793970815 -0.6764125045393125 0.026823290840431228 0.4714053368638656
Ni 7.500549493636708 6.363414276836576 2.4669641109497142 1.034743809693618 -0.6048101097109777 -0.2565683275821904
P 8.993451095463211 1.5859799636253171 3.431489544768989 -0.23117559854069863 3.431934982046973 1.5588295076703347
P 2.361053816278206 3.4016175036748777 1.5300401592815303 -0.6343482283794107 0.1409177933947057 1.4979866653513492
P 5.051456937572643 1.1969102280765214 7.902035438726083 -0.09749057544900629 0.7736896784259321 1.173383091466792
P 8.997926716456664 1.8080235262863074 12.174321329142886 -0.9689042854909894 0.1383114661201102 1.3135331534575376
P 6.953277472118094 8.021859274677036 1.0143203560877 -1.881642308203056 0.6392536361008282 0.3519845370006712
P 2.265455643472915 3.511324798758312 5.8177305549632 -1.201209369650441 0.09441065097210193 -0.34119773079781235
P 7.296999706340943 4.212496324275395 5.856621154294933 0.5130746915781937 0.06432283044778599 -0.9874663647638929
P 2.1184697003586423 8.632745153120895 10.212945925654463 2.7048709738993804 -1.0369156205339563 -0.04134770970885137
