# total energy = -340862.2491775376 ev
CRYSTAL
PRIMVEC
9.33236971397390 0.00000000000000 0.00000000000000

0.00000000000000 9.33236971397390 0.00000000000000

0.00000000000000 0.00000000000000 13.65886640679049

PRIMCOORD
 96 1
Ni 4.934126541155702 3.4719495139798098 5.9006847420079005 0.10350155752977658 -0.7601674755697811 -0.1823007272168667
Ni 6.798883334465407 0.8050148805365529 8.851054643502602 -2.161665524374077 -0.1987177351223094 2.1300054742666346
Ni 7.5963249969525 3.6020800777280106 6.459838341567232 -0.40351252967663404 0.19761833141054352 -1.5946411180523055
Ni 9.121784823380871 7.807161894270297 10.443569413035073 -0.5328271916147727 1.1841403299832962 0.858178956519264
Ni 5.533078031499902 2.881014529248037 8.269487491522582 0.9902966351238364 0.2204618116676203 -0.04247822376886878
Ni 6.478167115749782 2.4543479167979507 10.612024286385134 0.24514543045722942 0.6013725447843385 0.16665196493601622
Ni 0.4839869606713875 2.789781282604146 6.916317209173202 -0.3095276533880411 0.5589480570715406 -0.3621085128085506
Ni 4.5545790635567815 9.271550693076161 0.18680697845697894 -0.934454588453552 0.5773895516061798 -0.12299669013991077
Ni 5.010651973078769 6.799051317120848 9.155988891739558 0.9114956656645333 1.3369381626450396 -0.9760771490903448
Ni 8.90314606495482 2.8193742270709814 12.159956459163595 -1.7626210577711259 -1.2104655981413863 0.6885054311481045
Ni 9.427653241829471 4.5953148575011955 8.734326295947659 -2.888537985336154 -3.759102717114281 -1.8108325844793458
Ni 2.7125185934710885 4.21293967186902 3.150526834874358 -0.745635086281561 1.5740874622706698 0.6755380723541592
Ni 9.121551514137202 7.025407945327433 5.5516326490303225 0.6560061729688185 0.42210109131209883 0.06635425905551799
Ni 4.7965394139798745 4.96569794800884 7.683890622285931 -0.49387395028002684 0.8863464200924155 -0.6246279157678533
Ni 7.332424245254879 6.515272617862723 6.83441913198695 -1.5488420574403197 -1.5756563494196865 -0.6173398667468722
Ni 9.00196652820279 9.294648308199282 1.9763971328787389 -0.9729591722866535 0.32641157362757334 -0.11773107086559723
Ni 6.307104778292486 1.7725996420608898 2.1468733975159404 -2.6690485648841324 -1.8364196889198305 2.150004543096381
Ni 8.662529575775254 5.590798738383339 13.41060319394951 -0.5767447189333292 0.2556501866432952 0.20278779142662495
Ni 6.478204445228769 4.029866574547702 2.0223319900090475 -0.22647485063091966 0.09260933609730503 -0.548583683118081
Ni 6.196413540726693 8.569177881198858 1.8557482567932009 0.39261310915531095 0.36502260113155205 0.8848528662660246
Ni 1.9062485092036026 5.822829447395926 4.771287887919212 0.12663274423060128 1.1294372820134613 -0.8612007740647233
Ni 2.6051216824258865 7.733594823556938 9.122743257753857 0.2943787135617446 -0.2790508249554226 -2.8845833715637808
Ni 2.1460717469546977 0.15276622656885946 10.28575437443324 -0.3058296357111636 1.5632317505030884 1.316936522712132
Ni 1.2502109131187427 4.282671138616479 12.707212220532842 1.8240411127498197 0.7110848591105172 -1.626361589084038
P 8.11208774337448 1.1243359099750438 6.754897076138213 1.4422749736113418 1.3128471831341066 -0.2738047460651349
P 0.0994662632344432 4.95271662169116 6.048241639784143 -0.3573085203167459 -0.5052127723316138 -0.0513960950837889
P 3.2579116138388895 3.953966411397665 11.322380940580752 -0.5515895598239403 -0.1139006413759135 -1.7446521319975306
P 6.151804813337394 7.867346346766865 4.92164449661947 3.026238557345143 -1.271250847749559 1.0446983498031686
P 2.7090002900765766 4.084544928893709 0.8489283463797227 -0.6196415182968554 -0.16760918664296295 -0.5844888816551224
P 1.295435576911326 1.8417618342537985 11.398228842460208 -0.9176585999421357 -0.6263184160963987 -1.8784757375496166
P 7.316447228248502 3.5994203523501964 0.05400549048726796 0.22049060802302672 0.22334658941458307 0.5079905921870671
P 0.41330359220976426 7.941930645782616 8.392116696468374 0.40536552372497286 -0.0863507567821029 -0.7487456068860847
Ni 2.2728613223335747 8.836494280223777 1.877014860972016 0.6592712168733356 0.24697605590806496 0.3467628835904157
Ni 8.087291636957456 0.024981820574982733 4.735843547621187 -0.17104803712118286 -0.1749982800181825 0.27028387739607
Ni 2.1603782697764125 8.586834724759644 12.787840162196565 0.2792981650795383 0.11407316239803579 -0.3294706721688713
Ni 6.755562474101153 4.607670915045847 11.781127574035175 1.471147433671318 -0.5834416713375307 2.7972869630389563
Ni 4.56876426557179 9.264056800169548 11.271432734422508 -0.11436781082031917 -2.1853016757357784 0.3234005547153915
Ni 7.560106069965498 4.540533847087976 4.164342289649975 0.38397445964370647 1.0118576491240638 -0.32012136974348737
Ni 7.56455761033468 8.563550462241588 7.5864214861772865 1.3105383324952722 -1.060481066558722 -0.28320367078153164
Ni 1.5359960718724117 5.913428092897039 7.370693493875235 -0.6471700627344273 0.3508383392113699 -0.8095228860744574
Ni 2.394247455629103 6.332208852911152 13.561287368827877 0.7806725375016684 -0.0311586849909915 -0.02184563512018173
Ni 4.526824595930051 2.625802213784608 3.629543375418645 0.20349047392060438 -1.2321523390862008 -0.9447153469496116
Ni 6.164851466243301 5.911962910846805 0.27974898200149334 0.21068879144125652 -0.027268863018282068 0.39030477273710845
Ni 0.7929695909044672 6.948481221505257 1.3173153177825003 -0.9508073187799626 0.1439630079789327 1.3838021741864297
Ni 1.3224807844373077 2.2380889126573127 8.94046527833496 1.2408077007683533 0.3916198920041062 1.057800177292449
Ni 5.859505660500518 6.752156159143603 11.390278596672982 0.1998413072037913 0.30396610013986364 0.38245879433012836
Ni 0.5455992657392033 3.4545819738811723 1.0443435026910721 -0.6333447268155609 -0.35586356034010325 0.7236904636896698
Ni 8.001508494245646 2.7011424347498423 8.55273144599422 0.5344387590762667 0.00790022868368317 0.9134396767647817
Ni 8.159225542965139 7.140476064304434 3.4407915311064503 0.36502697200692613 0.2910301088044858 -0.4073627566606597
Ni 4.643133920083365 7.750738386781655 3.561726910943213 -2.48374967427089 0.6708895178385542 -1.7681959807557417
Ni 6.00500663722156 1.2386667717420556 6.627760336604758 0.047560523387782605 0.5288211557791731 -0.6178957392503422
Ni 1.941655520022641 8.059266530608069 6.005325804266897 0.777120558484352 -1.0541363552876168 0.49419379551329085
Ni 8.291950505502928 2.531218646401647 2.6303293463487396 2.0645459591112445 -0.177908511686442 -0.1930062865598289
Ni 6.557184290395222 8.193074048036477 13.170192950141347 0.40792017182602647 0.8032735627306359 0.06113723363095277
Ni 3.040308748454724 5.222776737421612 9.305499054503787 0.8044688685903177 -2.2447484090381855 -0.3042214106837793
Ni 7.396509628305574 1.3416121424180742 0.43115548229825634 1.5850755858510572 -0.34888661480163785 -2.5737357138127352
P 3.2776309111136994 0.24388375182789096 5.225773361347283 -0.639181645212312 -0.0005823548660312552 -0.6023868449814658
P 2.961664868599153 6.712997535686384 2.754815692874127 -2.8581411182118517 0.34540199868714705 0.9957548300249303
P 4.231576414253212 0.742488003233559 2.1289804450005625 0.2995643715277421 0.19175107399648914 1.3639835967986056
P 0.621361309816989 0.5940734606775929 3.666271849793819 0.8380197079625697 1.1980703098008272 0.9933205095518247
P 5.284659681212083 4.470578403466596 4.05351479948588 1.0096398155371387 1.0905478040371155 -0.6836362759812613
P 4.405261147609334 9.128868092018626 8.712840381079797 -0.2913746366280982 0.17302033035620526 1.4358595570033013
P 0.11034220693726544 4.981880277149645 2.550807290500002 -0.2159317850077507 -0.08805256996455803 1.1747498899073316
P 5.224157928144126 1.4930951681467604 12.497589464519091 1.2173047325504067 1.5715220155363385 -0.5152061360988998
Ni 7.50901134560223 5.927240000122179 9.813540198197336 -0.10103638381873566 0.7274373323266118 -0.8752230564857443
Ni 2.6114770262234 2.2753623974256945 1.97505887105706 -0.5458585708774341 -2.131558420576052 -1.946148715416558
Ni 4.0486526348478415 4.885738204018982 12.96989976416339 1.9880520405185633 -0.05152130780774353 -0.648910699574618
Ni 0.3105887310664894 3.468888496702887 4.438790485635333 0.7764212184244822 0.03706425184214907 -0.2987228494630533
Ni 2.667135279392811 1.837151643598921 12.906235270988272 2.2239535837800215 0.6317197896176282 0.27069936766693375
Ni 4.890712357093982 8.471495967059987 6.77136964197814 -0.46611452077857146 -0.9400246263421618 -0.8456656545436018
Ni 4.608660146238998 2.815557287844575 0.7165440153376899 0.5548911133933476 -0.370603180543123 -0.7493336181790707
Ni 6.16639130725151 6.145001515792038 2.869851148557016 -0.4237743652494637 0.3674769762093155 0.18221845191570554
Ni 3.566047798135942 6.824491357050395 10.956091027444018 -1.0049771199541466 -0.40949985760832047 2.398581110722347
Ni 5.208302231944456 4.4320637135219005 10.34846229970932 -2.2324438806392197 0.5480247252908175 -1.66450750402614
Ni 4.374697636688841 1.639473387623993 9.770897801113668 -1.3696806471833831 0.6264474854750953 -0.06512732862695235
Ni 4.629965946370749 6.056455991635202 5.351366526924631 0.1562978753952018 0.5743921595407527 0.48370009507081857
Ni 3.466051456299885 1.51082667066552 6.941080652296111 0.27422897808674707 -1.9454851136906302 -0.37167790166454057
Ni 7.333049514027909 0.7150396373345194 11.711985913055708 -0.0350734466643654 -1.5801220985005238 0.08059894189999023
Ni 2.328090286494637 2.1036654588256223 4.120088192311049 -1.1042468987907628 -1.6145471129476128 2.4950838683367866
Ni 8.890846001628649 8.441791034156191 12.896141379870224 0.0017447506052486082 0.6168076483924861 0.8979261545102148
Ni 2.3673888954980558 3.919315322528111 5.942890384187421 0.9108194655331152 -1.0392758932360167 0.6948959080554806
Ni 1.129030091957642 0.8769590521509574 5.898035282236807 -0.7872008255384895 -0.18765016445423813 -0.6962490796492654
Ni 6.931300328801553 2.234010667077998 4.457721197666546 -0.408572974918677 0.18869994587499117 0.8280615683085933
Ni 0.9376978474104806 0.8969471216744727 0.3603937219307607 -0.8000131468118094 0.8050802769220716 -0.38057777525733166
Ni 4.153931097960538 5.438858426537062 1.6973462121343 1.4644880193732714 -0.23084289779162823 -0.7006168696996579
Ni 5.276428531095479 0.42766517601298476 4.471202739002651 0.2289711346902121 1.157701161955161 -0.6407477041478513
Ni 1.0730545382168422 6.065919014558371 9.641288916834306 0.04873577464280639 3.0953714075870624 3.817327919304761
Ni 8.920345622398015 0.9023888264737825 9.907062675140095 0.6621007159023307 -0.17567962235592324 0.5723059664356853
P 3.4380263499504986 6.69161707659666 7.132633140769295 1.4119377560803814 0.07950853704928888 0.07911078739023794
P 8.617351573831403 4.416954606901968 10.83332463666295 1.5169840323894583 -0.1115604232785111 -0.9002979971765012
P 0.7718933670684849 6.865992405314038 12.189678190332936 0.8829924160185181 -0.796791554550718 -0.2506288221693038
P 6.96449556799062 8.09688531305708 9.993427224487123 -0.2753520359475967 1.162325805211366 0.1622684911563399
P 4.414826826599717 7.2776712319509 13.061099414276192 -0.14384807966762322 -0.8860504861185514 -0.6443217946523548
P 3.3109474711094737 3.1210897409822933 8.093397806482733 -0.629650051572793 3.1821877911516743 1.3047631205743915
P 8.03408779703143 7.584314237088477 1.1970901312834632 -1.415054447332492 -1.7000941428814977 -0.8974337882548286
P 6.971597501367871 4.770828735327674 8.097317401776353 -0.7047476040385798 -0.6483005767944447 0.5358677782133094
