# total energy = -340860.28819514584 ev
CRYSTAL
PRIMVEC
9.31215935152549 0.00000000000000 0.00000000000000

0.00000000000000 9.31215935152549 0.00000000000000

0.00000000000000 0.00000000000000 13.62928649844910

PRIMCOORD
 96 1
Ni 1.897771527118701 3.2670221347195088 13.521397009266988 -1.850334756339026 -0.6296770481559866 -0.8476896269521659
Ni 2.330023342648012 0.6954702446501915 13.109711097796373 -0.555014012124457 2.0947150264954573 0.7094416670801394
Ni 5.103361346205333 1.0769791723342532 4.5577284025542015 -1.457777183011999 -0.731266990485347 0.8582506902974639
Ni 4.125174873059982 2.782175242838146 13.229444049852283 1.0619052005997582 -0.029609852446632876 0.22792726680673003
Ni 2.1260684272332377 4.050379608672645 6.165548153315571 0.8971311694127453 -1.7716494865219812 1.845231116563874
Ni 6.4421798168517315 5.8979679087266845 6.084331223798564 1.0763080062886496 -0.6935473644473863 -0.060799133565243677
Ni 2.3694137769555854 0.8479885163436135 3.682579110857184 0.9049802331435188 -0.5711533408884809 -0.7762926632664179
Ni 1.5181520365790855 7.034358658101676 10.765146818228436 -1.0997605808846351 -0.3905382289041532 -0.946639303445202
Ni 3.0283235525431373 5.377306451751485 13.060986154895438 -0.4238355575047023 -1.2699146454366388 -2.604420801601418
Ni 3.463098963272768 8.567344964622125 1.4032986560544212 -0.977811358172632 1.3562216934649998 -0.5113541093426613
Ni 7.769702638132861 5.838183845309515 13.145528456538031 -3.0915510053997077 0.7955965058013524 1.3788697698818186
Ni 6.626309144880967 3.370079802918545 12.306591359141692 -0.2854587853642955 -0.8110485786903645 1.552081904533856
Ni 4.597506222693264 0.378625883130486 7.549425369702883 1.6260404582991932 0.8298148035542741 2.788372434158146
Ni 2.359878125718953 2.803416278454122 11.16212696755756 0.12724800921709697 -0.6173221261350593 1.1551354581105138
Ni 8.930109446628238 8.831931349960447 7.685459256807352 1.377620727966066 1.9142066152923227 -0.21258292314017582
Ni 2.302468662951531 1.5756825574188476 7.946269561504606 -0.8739408473392111 -2.1808379835374696 -3.047838395003106
Ni 4.186923802112825 8.578016699306872 10.530831469486717 1.2818008553512634 1.1988966623568644 0.6894433695813417
Ni 5.8287040670293475 7.213487356527326 12.69333651406243 -2.6250721593031825 -1.4659293798054882 1.1459676755683168
Ni 6.7224013178407445 4.688346337745366 1.424383247392296 -0.6580275742742215 1.760036070652769 -1.4606318788519748
Ni 7.642982772871047 7.152353029995594 8.255041212031113 -2.7310435185296904 -1.0176218053013506 0.09155492669086168
Ni 6.699400284096133 3.581391324267831 6.75263044972 -1.289825782538269 0.2924732690089156 0.7500044189938503
Ni 4.830328832281437 2.899908874268563 8.623604375702316 1.373371465771409 0.35875836538939504 -1.2173821227555615
Ni 8.473124535703912 4.959525731946517 7.789328014091067 0.7489397251747618 -0.9964659971593418 -0.6395061184312664
Ni 6.299415100925154 9.0570434915565 6.010828487137443 -0.46395248013024615 -0.4268131520757875 1.7064841055682416
P 5.871996296130036 1.4574274450614277 0.8612825551184345 1.6594342032682905 0.4786352789534015 -2.088552863548803
P 0.24570225726921485 0.2120415946470898 10.48028041212533 -1.7314014376352118 0.3818018774724199 0.9913546440747054
P 8.603280587788301 4.02168884552805 12.076337974334951 1.3589218660049824 -1.0277905183042364 -1.4154997624000267
P 5.562916413127033 7.697188852801164 8.708282634872308 -0.1119669146883104 0.15287856530100769 1.628629044961976
P 0.6747143725395172 3.0399171910095513 8.467794255657186 -1.0654705493535135 0.7578912779410948 -0.3120676462010755
P 5.127088728383985 4.937055491288319 13.231556978822587 0.889056619934727 -0.4599387309851627 0.572161213327705
P 4.775266033685531 6.565845293826811 4.761322937399778 1.7278669421193922 -2.9159631714266427 -0.5151207754739451
P 4.231314866023985 4.59986219902419 7.045863831053687 -0.1916960523888376 0.6570988918123651 0.9667736123012316
Ni 4.033198674559767 4.154927222377405 4.396630838395634 0.5374613479526743 0.7699708348134482 -0.047718132011569436
Ni 2.143128303273776 7.8481296446904 12.568655080495637 1.9311956936511512 -1.3046415073948627 2.60886829584981
Ni 7.937116640019757 1.8183667438230304 6.139298107152541 -0.02211071585611031 -0.43687927806253796 0.3801352884032743
Ni 7.711548202612577 0.6894499335911259 13.29393820349942 -0.8389051958913165 0.8431251475099351 0.8323337133213858
Ni 4.982610575125826 2.1291507519982042 2.598927776305111 0.8726645517299486 -0.01050989839238835 0.9562426308629209
Ni 4.43756988481322 2.664599918117713 6.240223290846511 -0.7648592246184956 -1.2571203218854479 -0.22953369206190147
Ni 8.291844728454373 4.0613958932555905 4.922325517532357 -0.051972536412549196 -1.0276503931819463 0.2186209018041396
Ni 2.4682344126227203 6.281610252131755 5.642320265206763 0.9600879727509402 1.5538130282923497 0.20172335471785258
Ni 9.124845324226346 7.763454179168232 3.3379211916093783 -1.230337397364649 1.009886898550938 0.5611116403817626
Ni 8.285745264040317 6.719440051148119 10.499538889002752 -0.9099216363091943 -0.04945156976290838 1.3120326576526113
Ni 0.14011261292638874 1.5966907890495539 3.9789749015267706 0.3331558343299424 0.47828766580599563 0.9685209340096416
Ni 6.936990719302623 7.673377661187814 4.165763782283723 -1.0980885924988508 -0.25277826441213885 -0.2580485116721427
Ni 3.250083316751311 6.367915345550808 1.2408331356784104 -0.4863449888928334 -0.04873371776027736 2.619008983828238
Ni 8.876881143436254 0.7595462823397867 1.8269106500824157 0.8760057002880398 2.2686707241817383 -0.9724385238964931
Ni 2.6528759094195484 3.3772967264618954 8.997196105455338 0.25392394798080786 4.055844531591563 1.4527000255994078
Ni 1.6897844466790621 3.4864259225967564 3.9360700582575703 -0.7511609011957967 -2.3020757820047453 -0.515492299880751
Ni 4.733379940655869 6.117278575009824 10.580347014721626 2.759755541752402 0.7903545406761227 0.007190347100852133
Ni 4.4178001703841465 4.166222871742675 1.9536901131644582 0.2333713206404368 2.4277379347919608 -1.2173558975033163
Ni 1.126110125385497 4.948956431015288 1.2510373999607367 -0.19962224921444977 -0.0907907948313275 -0.2456007728270931
Ni 7.414397195814776 9.207472114678145 9.73707603833551 0.41511694668478183 -0.5606627257698021 0.024273270725067873
Ni 3.905668651429216 8.224033583625117 4.078563790345294 0.278307776141811 1.601284334400436 0.07329855158383505
Ni 8.498583979532969 7.132881304667666 6.03683362350797 0.2933068206538046 -1.349172242817386 -0.4666048301514287
Ni 9.17384590704584 1.877815569501412 11.952883883378496 0.9653368798547054 -0.06529753565622948 -1.023633044492437
Ni 4.770758948530716 7.248473139433604 6.821294588351283 -2.0757264012080965 0.5307775081745956 0.17756089853903612
P 1.2952468767633865 9.027663628615509 1.8912539467471001 2.325949503298549 -0.19866348484560625 0.9753297294013591
P 6.405918268106177 2.8482822624952315 4.548038169471351 -0.4574097939157219 0.45533079989950614 0.6239152059715449
P 2.6246321299266704 4.9914198779284185 2.905641439601835 0.795255834632482 2.2647446496544545 -1.0291166933148277
P 0.526380054069356 5.260764776725647 5.615388568974863 -0.8292435044318364 1.2107245082297278 1.1103689525281006
P 2.20212083314103 1.943885340520854 5.527180070172246 0.6898915128623538 -0.852748272421996 0.33489518561855225
P 6.745532721817107 4.472248366458943 10.44552650198838 -0.19849173515443233 0.3589517123471237 -1.862525127757631
P 2.8950665513749603 5.4137449315258435 10.84779409543094 -2.2525532497945853 -2.0608420278970963 -0.6754123454095723
P 8.227376648853586 9.214912530047354 5.348977000392028 2.2853456137342576 -0.9917279682537243 -1.129980556111441
Ni 0.31932884565049996 7.360759157608718 1.1036911016040585 -0.291312158821279 -1.2725770227601503 -1.7092051040438303
Ni 4.789066653932298 3.665405626471834 11.112966215596199 -2.308363929006302 0.7967391040462278 -1.2351828983824082
Ni 0.6481924113216916 4.784652690371591 10.26014096365463 0.18729175267355486 -1.1532960909089298 -0.6766729572895508
Ni 5.531823112854458 0.9833919702559738 12.015564959588358 -0.6629808045144389 -1.1138628246139721 2.4711438125814214
Ni 7.3224023729957395 0.8699894241675082 3.595037362668379 -1.5281948135036134 -1.023916894281443 0.808470276440227
Ni 8.318766181310922 3.0326443945097363 0.30158080102950574 0.9231252794836619 -0.19770343492518208 1.369012674582081
Ni 1.9852965134205662 7.293218065402374 3.539880511262423 0.33680397260549094 -0.6282858242354147 -1.811696475141538
Ni 1.032178373409019 8.61397094679187 5.407065319580496 -0.7986224371118698 -0.25283225757852584 -0.04482049874880023
Ni 0.4140446814493651 5.6178954022882435 12.527263463130687 4.855501323505218 1.5208018634736518 -0.038291696491346956
Ni 6.132494643487029 1.8906663494882803 10.208635409953638 0.5721923236759564 0.5936345527101324 -1.2729927701413302
Ni 2.0909243376169764 5.586420303479827 8.099925779078026 1.4899676517016145 -3.9026366079755954 -2.4184768212050094
Ni 3.022671071780797 2.393439148235383 1.641865936783101 -2.2970063379016374 -1.2166388168316338 0.575496448348525
Ni 5.379634491604178 6.80113562565884 2.4603311829307963 -0.1218288950840547 0.5698384787317992 -0.4302838842332074
Ni 0.44072494937717394 5.397476589035222 3.477458313084181 -1.1156692816950915 0.8812309532427212 -0.41848149228164055
Ni 5.871037143710725 5.263651546142987 8.447200415120259 0.02813841010742896 0.4143078205199252 0.3444812866450906
Ni 0.5173966138857822 6.732123212265593 8.745381346748891 -2.173777477146263 2.1314599473249745 0.4481998452816797
Ni 6.4774356523809224 5.058392928410705 3.829256796168168 -0.8473414995841279 -0.08413420874675834 -0.5067970860995981
Ni 9.248790165983749 8.208482277409125 12.446305411645298 -0.920644422043337 0.44958464144434834 -0.6365516637886327
Ni 3.0817660354015697 9.213515706135738 6.133451933474456 -0.6336797415574764 0.19255994305102966 -0.8437221576639857
Ni 3.187626663583249 7.141169126543255 9.069008685183404 2.0280260098083396 0.7715746889654583 -0.25451015950158107
Ni 7.400047158162773 2.9445979272808676 2.5486626022376346 0.9785472078973921 -0.8263073046216479 0.5415985100494995
Ni 8.205223021615353 2.8173286446138186 9.647967984933814 0.03154743578897792 0.4998245114365069 0.04376608934235689
Ni 7.217845447131568 8.73245886313456 1.6352012242928098 -2.941908944758127 -1.1921027793634824 -0.16443490268003938
Ni 2.0265959404073493 9.112786077789394 9.623993830530775 0.42943130642492494 0.01742205213118935 -1.1185460890222543
P 6.634503845162448 1.248658143231284 8.060714138231138 0.4621370241880622 0.707043342051292 -0.5730271608724259
P 0.47008805043122676 2.7998310970809737 2.0044730432951736 0.47877566118600773 0.5287543070969797 0.0076410614850255494
P 3.605556377938789 1.4400975163979772 9.665522336639064 0.5019112187622066 -0.5127815858178072 1.5287614846403608
P 5.1027467436842215 9.19345731476493 2.593121644912493 1.598197467944996 -0.055172531407085626 0.4242842150063467
P 1.8584742144052344 7.76054878543207 7.418611879164093 0.12240585063344726 1.1475992976344689 -1.0067959183304402
P 7.110131699227145 8.512459097055022 11.940400002472412 1.1407943588974934 1.0256212785670595 -1.9623273820589495
P 4.070372814927577 8.797243556155316 12.818234920943498 0.5228204581110479 -0.274430809684908 -0.2285008799220129
P 7.565123808037566 6.682833952504366 1.8209815981855757 0.6876464255819189 -1.323012553702883 0.6224867010551345
