# total energy = -340866.4709826551 ev
CRYSTAL
PRIMVEC
9.28861183929051 0.00000000000000 0.00000000000000
0.00000000000000 9.28861183929051 0.00000000000000
0.00000000000000 0.00000000000000 13.59482233407643
PRIMCOORD
 96 1
Ni 3.6309925654212165 0.5742284683074672 10.0165015234278 -0.5307523113636149 -0.27770870910523143 1.8188809087051192
Ni 4.3586531059640885 4.5499613495339695 2.9381810377073165 -1.7475669916514804 1.197740180154918 0.8985858995814008
Ni 1.5181956926959839 3.1935639815002395 1.2707823776165468 -0.5917915859641227 1.281192532343303 0.8188444205856994
Ni 1.1344738607812725 6.60221505214906 5.118192161360903 -0.902492947945291 1.6376399902113343 0.07591207794728216
Ni 1.6314888878223115 0.9343414362349202 0.4534467945461598 -0.8847610778831666 1.4050034908543931 0.13395164648951768
Ni 4.230219474004447 1.0697415268601955 13.292894840740127 -1.402377880306088 -1.6624205395901244 1.2979119019805132
Ni 6.617866362617852 1.4072153618466465 13.26226564414022 -0.6928325977685487 0.08547452482473666 1.4736755994098103
Ni 0.9691737295630936 9.076125276266131 9.540152728233656 0.8051707797533488 -0.8014349668600005 -0.3137496618891887
Ni 5.850292658226673 8.614193335065229 0.8690406392867271 -1.3196171548680886 -1.1200506985922387 0.5372142649388747
Ni 7.9494074061325986 8.832670767431086 5.9692277560110085 0.7993917111777266 0.3671802709045031 0.6037497867672634
Ni 8.36301999002866 0.3619939117671743 0.729582354273431 0.6876654517453125 -0.8659858541581925 0.7871825707060442
Ni 1.295343324288108 3.0466367239362273 3.721609473160326 1.091615068959365 0.44180448327829724 0.20114665627877615
Ni 5.577606888830623 5.131679225337572 5.611671013983266 0.041981229527792215 -1.7141645049316347 -2.0182946414531884
Ni 4.546292347970069 6.8058678604744465 12.765225537847986 0.8361214624985922 2.346564351335423 0.10741246254840855
Ni 2.971974864263732 5.291647693523652 5.335926504802426 0.5584181527099996 0.7327541165538348 -0.32873353689253065
Ni 1.4493763696910675 1.554829976665668 11.246492963404169 -0.26787269685141607 0.5427935587988652 -0.23657080141434098
Ni 1.1824866939048266 7.258083913989678 1.8696414571822317 -2.401622725762148 -0.32964962094889677 -0.5357507930194709
Ni 7.996992963124661 8.926560053020733 10.27356570591203 1.4478527248094355 1.4505022466171404 1.1067688938816682
Ni 4.823891792878278 2.68970324774377 11.790448917795409 0.7164759482191014 -1.3354561787828743 -1.0605983088628765
Ni 4.072006553402107 4.566467212265747 12.67627407816054 0.7968015818530472 2.0372189891615173 2.2509460532084655
Ni 2.3529725016816534 7.796368242165936 7.657297292254449 0.5062167881160959 -2.2864856408759717 2.0639947145934645
Ni 7.892932647883187 2.583292913779089 7.076199895702667 -1.0489848929936643 -2.0962708010183513 -1.0837096980693597
Ni 4.358894609864496 2.7916457595508906 9.405523592367377 -2.228167621861369 0.15801665785852143 0.20432531111707392
Ni 8.611592523830058 7.748680510446778 8.172160386396845 2.972636712859287 0.9505077852616727 -1.212488542108686
P 5.117690576336978 6.820172322267883 6.615471758559186 -0.675751731026862 3.3031918763415886 0.7636346081827752
P 8.301910214613713 6.130047061015452 9.491061487308663 1.1196125826135557 -1.216945035218143 1.8496475004640145
P 3.115372449437156 3.835732141298442 11.002425406206548 -1.146547973551819 0.12104059485480446 -1.4785426976941247
P 3.3283417351513847 0.20453058211725644 1.740898514457837 0.3400615603108401 -0.5629144979184563 -0.46494441172987017
P 1.3461055864316993 5.320934685753981 6.973980583271231 0.2039681848879713 0.22339929702938943 1.2934142712204755
P 6.431518237617904 3.074344652202345 1.2767893227086347 -0.4825657243560592 -0.4289926762256096 1.587192889304376
P 5.1522534999300795 0.9211153822429239 4.378987734378498 -0.5346506179767566 -0.8660218496024504 0.8529693872938665
P 6.003638346374623 3.1374329018783325 8.350497083931314 2.283775183923344 0.17743877113887507 -2.276474793607189
Ni 8.50220983416804 9.050590883103691 3.186204614565863 0.5237468265800593 0.644248003991626 -0.34148080925586993
Ni 6.7629916295403545 6.652550038161159 8.287648480433425 -2.6745316994858905 -0.643532208871524 -1.0424728029067594
Ni 8.28284069509298 6.085684652232691 6.422561229496208 0.04826963363966526 0.09338400947980045 -0.7801930267620886
Ni 2.357969774697802 8.18267230809271 0.12577058702705726 1.0956835826017841 -1.817239259336638 1.6323918544385176
Ni 2.4980791913810463 6.303641922351513 12.083662518726197 -1.4018806289546952 -1.570801078209914 -0.020734661444190096
Ni 8.265387393982678 4.8149375713400495 1.3851762732120447 -0.48129559939438404 0.22279688755870017 -3.5722179700711574
Ni 8.824543232321178 5.894134904762399 12.691486966163975 -0.7946444263007282 -0.02261130964161267 0.7574958422748889
Ni 8.130423868100449 4.398064684788472 8.185157011683453 -0.017597144256472918 1.3377953684390123 1.38669440813256
Ni 1.2252607501118236 3.7675258666561016 8.791771153035722 -1.9592047772695675 -1.8045128129089052 -0.1433695973693079
Ni 6.461687647945878 4.062207068212448 10.225046643458777 0.8442245512217009 0.764934043720489 0.6845909265850467
Ni 7.291950191716217 6.913903701461108 2.4493381311116447 0.572395440825698 2.3632261282618203 -0.4813228530878937
Ni 0.9068350708395283 4.558729798841115 11.306106343497737 1.8973862013008742 -0.07479030563801313 -0.7641267173278453
Ni 0.3005441731693441 4.131565130687506 5.485020795442028 -0.5761988737321883 -0.2618876829125748 0.5622043592253092
Ni 7.178926366324959 7.945961331245998 12.71709938366347 0.2725227940289177 0.13141062523521885 -1.13924784034598
Ni 5.809190552099428 0.5683190536366982 9.275896373823025 1.0565439362878448 0.3011983075867393 0.336524236581543
Ni 6.631464889933172 5.079245013114228 3.4213820416449794 0.36806010240629516 -0.8697844019686762 0.3267213915585083
Ni 4.119917211798565 3.116561391716091 1.1258809662325011 0.9141377312730707 0.13373335983112453 -1.1851173491845848
Ni 2.071248913243388 9.073533753642515 3.6868747102534716 -0.5663610617061601 0.9641397742228106 -0.181473603329881
Ni 9.063957195130156 5.382332408127107 3.241562881706462 1.212418865213015 0.7666242869387184 2.84833210254123
Ni 0.5322309400263998 7.011248350548911 10.73694574165423 -0.440416601791835 0.13229662738459796 0.02824022579261588
Ni 2.8052535754777637 1.4365580857462996 5.5081327187111375 0.12424033273902475 0.0032197924888783254 -0.08961297247314244
Ni 7.163776640880093 1.581070304306225 4.871078868434666 1.6161291127227522 -0.8563233913677639 -0.01793010211585944
Ni 6.317138274939736 7.603620263805157 10.447906442755894 -1.7953224046588887 -1.4106761157591383 1.0917893897537003
Ni 4.960536557451814 5.1664186325502035 7.844252892450043 -1.032884644997692 -1.9788284650377659 1.9624574798789105
P 8.471353066585056 7.421758538185875 0.742618920589722 0.6165050295504028 -0.33706313980414854 0.5617749849973743
P 0.5074479955386935 1.5320914555810363 2.5016237255501212 -0.1887403121946233 -1.723578342046367 -0.8331412968243458
P 6.308787813152529 5.847069510017373 11.960602348550648 -0.037157582886903746 0.34528552771394083 -0.24385576511152843
P 1.3464399764476498 5.300648358119652 0.3199350786498493 -0.9924265369826456 -0.25308782523275763 -1.050898050855977
P 1.5631061295604416 8.868822043599954 6.231689550669372 -1.2188697630446814 2.3258926819186847 -3.2263526585943465
P 7.414011836149689 3.966813027551024 5.196471006372596 0.0497503319502498 -0.7560292850316915 0.1014143359834447
P 0.20571673781272515 0.15070307816078599 12.320348416321712 -0.1254469514526162 -0.2679310608931773 -0.1262887306276212
P 2.595813962154123 7.364670731573888 9.93997636827754 0.28673739496640294 -0.5028411867756437 -1.0256356767447625
Ni 2.9488183556591627 3.7081902160480027 7.161589172859084 0.5907865417383761 -0.996873774120722 -0.3449949930567155
Ni 2.5541266734989656 2.884912708166407 12.870081887099651 -0.47122227431878205 -0.4798742935668251 -0.2879085324563687
Ni 5.8728082526340035 2.9646833041937013 3.5609462168299935 -0.5424896544052011 -0.7193931218658964 -0.3498754610774684
Ni 4.500220834661338 5.509224130568754 10.322357853544982 2.542593998102608 1.08555857835264 1.798503887710664
Ni 3.156623173349267 5.825371313426809 1.2381756356167548 0.841101432211687 -0.21400320052647015 -0.8933868718789646
Ni 3.805321227070058 0.7957590672911831 7.820679325186691 -0.6066289080872714 0.2950402584051435 -1.8109040611472296
Ni 8.893408998383865 2.4339784830456535 13.236815777342924 0.813800944624521 -0.45986674009664674 0.770144384276835
Ni 5.497065338044332 2.7679412228646245 6.07893833366089 -0.9896062939250311 -0.24248408157498236 1.224611293514149
Ni 3.794332799601464 8.526025834192955 5.777799689352078 0.6928919902515746 -0.5343600833195313 -0.8113661099307833
Ni 8.151676211336413 2.978727684863621 2.669085316676958 0.21668743222685258 -1.1336477205503832 0.9761769078930027
Ni 0.8712401825027568 2.1359069382720315 6.879142930441903 1.0150704996344067 -0.254026277886627 1.672320058092023
Ni 2.7160364614998693 5.224648938383354 9.21491013694175 -0.7962871041104738 1.8104399770266173 -1.218090975897128
Ni 8.950097394699023 1.9071655901388063 9.37547864943423 -0.07120644494149672 0.7161856706721924 0.01087653770318772
Ni 3.623385192558344 2.021229740024131 3.0977435935684787 -0.5824402266562098 -0.8656528962988058 0.5272108738692598
Ni 5.882635603658326 8.999150552316646 7.069918936569731 -0.15678844187837512 -0.47440067204676356 -0.5688372911607945
Ni 4.600129140538094 7.5395288440813175 8.774492477822637 -1.240061052410316 0.6701516112312653 -0.2653357893621753
Ni 2.7341120995843022 8.527066158687024 11.633293041187935 -0.03465024308401774 1.5957240667038388 -0.1906069330897169
Ni 2.8700602182912744 6.9858532865597835 3.267012748503759 2.679960840921262 -0.09830330115828875 1.527790121866027
Ni 6.060020218508493 7.256476984190805 4.641503402983875 0.5318691985768776 1.4730909305509339 0.36482796862224265
Ni 6.997603380175821 1.840984232815277 11.040491065216731 1.1884674966037403 0.4224199081040983 -0.9337058832129855
Ni 6.695574886880118 3.824706559383631 12.976651985183063 1.107338393231893 0.26599424888178064 -2.3779022422167566
Ni 5.95974036816957 5.603754330355638 0.6511242390587426 -0.3029129762850009 0.6391543915188024 1.6323016087175566
Ni 0.34238286619283503 1.1812884630143377 4.886509109948469 -0.08166929214603355 -0.6750019973450311 -0.16520649073874127
Ni 6.3555559723278225 0.7265802750191201 2.5494777234160986 0.07854694446696796 0.9733168127363883 0.05702603967605663
P 5.486151219468172 0.36803894016663435 11.632477501093478 -0.12032068596964439 -1.3505323563897065 -1.0310653324007664
P 8.40013728179916 7.3812416145865445 4.494597509226438 -0.20179328872383956 -1.5731117286209617 -0.47952693752973546
P 1.9203182640995244 1.5613227161420393 8.958933650870515 0.5065566879540179 1.6815868281059296 -0.7788578528904329
P 8.511489157110665 3.4709404997311486 11.521081040446512 -1.856658384564209 -0.3808911927326924 -1.5204773902546975
P 7.870695711822481 0.4175007966926404 8.21153109533039 -1.0373401096658843 0.8410448679421386 -0.6303169957328306
P 3.5910515357382446 3.355984643136623 4.964787954960162 1.2939259207495717 -0.1694534389405533 -0.4425261919356701
P 1.9055865261745957 5.087066024042848 3.2024782620087855 0.41329943386006884 0.2825387835040231 -0.0737019576698408
P 5.125539453100259 6.717254506247574 2.738813065891873 -0.9660040811250589 -0.40399975372569774 -1.1198586371860908
