# total energy = -340890.9885121724 ev
CRYSTAL
PRIMVEC
9.08555556969370 0.00000000000000 0.00000000000000
0.00000000000000 9.08555556969370 0.00000000000000
0.00000000000000 0.00000000000000 13.29762895827507
PRIMCOORD
 96 1
Ni 6.405616574769337 1.996569030866231 11.403993236249164 0.28900485084434097 -0.17876468903915022 0.09750291674418046
Ni 4.556469770298477 0.48384036484739196 6.135286768303013 -0.28391586635720784 0.35017885125050013 -0.01698342193187398
Ni 2.414141169725545 1.4605303315502896 4.729208897584437 0.8816338451080944 0.6204233907682024 0.04963566074925645
Ni 3.820103653887039 4.708134951194441 5.2929612673782405 -1.0496405242997924 -0.22127299471500603 -1.011038495656878
Ni 5.008803245173364 4.833070427292231 2.6289682251240345 0.023275168477856687 -0.2864669149138357 0.3258315327543872
Ni 7.15468429801553 6.1828478351546385 2.400993462107109 1.0730987553227325 -0.9068743648424382 1.2279712111253174
Ni 5.386653334618123 4.496096252832851 11.54800656215498 -0.6198284374966809 -0.8608611313371173 0.18072901185437262
Ni 5.777859190906295 7.659541370252159 12.548746903287258 -0.05396488425222964 0.7555749711030922 0.4733920282765912
Ni 1.9569650936754617 6.554465233405806 0.35205619688119144 -0.2025376230890318 -0.20415150454337097 0.9682303993524164
Ni 2.6270066536536314 1.68120030780388 0.3272108363301758 1.6701575032230656 -1.7054397234641274 0.5156560791521249
Ni 0.18295765175452086 0.20324024624515472 5.416749237794178 0.15774823468848315 0.34377731859953053 -1.1016279731106768
Ni 8.667038639140525 2.2300314695113337 1.1790461883807979 -0.07285349362661646 0.8685487297893623 0.06996177390111821
Ni 6.821580570274037 0.7943719380679521 5.062633345441285 -0.23241024227874812 -0.061087868450256086 0.33156252170089345
Ni 0.7912065304705069 7.454798373098229 2.5239428357341716 0.07887244612718673 -0.2732421886934455 -0.09543677824377113
Ni 7.494329625843592 3.7661990520625763 3.981575783579451 -0.21738702939703852 0.7722814852244957 -1.707008610613144
Ni 7.726083980021645 3.859162457737261 12.637933443467517 -0.048267319646820094 -1.605573962914725 -0.19688659545084158
Ni 7.9169351625472935 8.52519494393009 7.167834731300668 -0.46950503451735914 1.1275146110694518 0.4789037021234397
Ni 7.158382119175576 0.6088239943902637 0.12702787956992442 -0.8340368120554217 -0.030546505328289328 -0.11756652026327495
Ni 1.6473566129115618 6.498888889336999 9.431795299927673 0.7734526227144616 0.8651006233397617 -1.516611479541388
Ni -0.05841648877306017 4.75399883624583 1.2277901945814118 0.3036534539954512 -0.2370531403673982 1.371175743671671
Ni 6.118104165408958 2.3479710677387655 7.094139063547631 0.1277653151731477 -0.7412210163742653 -0.5233192521243375
Ni 3.5370068245850943 3.9701879480954156 0.569002912418843 -0.07500010765597406 1.0733543229769644 -0.7414814691245036
Ni 5.9756608235239215 5.9693827045519505 4.80594913504443 0.10561063345297941 -0.8349025024898267 -0.27112617079170725
Ni 5.3195655915080895 2.927002616512546 9.390373343046178 -0.25180073099021794 0.19875373056656737 0.15998123778405995
P 0.2429277705481411 5.303584099074374 12.476686635555865 0.8585350543071022 1.532103147419084 -0.9170520767063884
P 3.960611772413133 5.861982350908436 12.840802090485532 0.6165276552582222 0.8536162768492461 0.3285077940349697
P 2.4175845953266695 8.571195112316616 1.5282031844458446 0.6249706438192527 -0.31797501282444596 -0.648029068300613
P 6.439069590767596 7.811488203374074 5.816156625190885 -0.9101077841780714 0.5784164502087974 0.11449945130217701
P 4.7731784442774225 0.7480401468992606 12.64894422839101 0.8671510781108873 1.2090766882136597 0.5727901051609555
P 3.6439983282231987 6.419753699400867 8.082073313954886 1.3299383342884386 -1.7348775691092702 0.8008605824137691
P 4.71053353789285 1.052761507265153 3.88853242501482 0.12192993943829325 0.3869003750412498 -0.6497419372266616
P 0.17003617447241212 5.469649885716466 3.349473686992246 -0.08078431843791893 0.849067481136299 0.9229766697209395
Ni 1.467135530526589 1.1643321309638557 2.5868412291220984 -0.612442686555571 0.1277141502202381 0.15273381219302729
Ni 1.7799330413326913 6.435916902948097 4.66250819914619 0.9871889427327902 0.18180913229242884 -0.45641400566135587
Ni 5.99761152603663 5.704257104376719 9.51755204284032 0.8564246928323186 -0.13163971052688941 -1.3130564709314354
Ni 8.589066400330895 2.389810051625779 10.081624224193913 0.3235949301143846 -1.0993026674116102 -0.3577522927223839
Ni 2.2048008813996645 5.110543297630861 7.114458000260969 0.38803551708695755 0.8329533491832558 0.21719393954962596
Ni 0.48458265474610407 9.007083731418323 9.324111476947072 0.6800048498762611 0.16369031120453098 -0.8494857996206402
Ni 1.494655678668557 0.8157566104620594 11.405163455820206 0.6263721521524697 1.5175802712125606 0.595349221408394
Ni 4.480005733731027 7.158091381393951 1.680567953128845 -0.7729016353069978 -2.2842690928406273 -0.3163004533355004
Ni 5.622450761071904 7.573764639117025 8.0376722033673 -1.020016273675456 1.1589543176359718 0.13552053363853436
Ni 5.245273002747154 2.867655766838285 4.89965755628453 -0.41438881026950564 0.13158931690492823 -0.5366542786703467
Ni 0.7012359068354277 7.159735866971269 6.713547861955486 0.457915787017863 0.5249416182191088 0.7859242728189109
Ni 4.956534043370543 4.701775062221388 7.306115980130626 0.7973721096445364 0.3736501948995629 0.5297194992237264
Ni 8.035156413000674 7.267799466179117 9.148369573510266 0.05251349651768375 -1.1854999293349842 0.7419954326464447
Ni 4.325769340578814 0.24071907196335654 10.610390844746952 1.2920436161251942 -0.5228981054265188 -0.9411574543950242
Ni 8.223690778828995 7.136703983333141 4.674529297860828 0.2703664098075473 -0.08671765320321839 -0.6211196455042787
Ni 7.186583683993228 6.118740154306264 7.1474358416973836 0.7409713622573045 -1.3665706407994915 -0.8152834427073185
Ni 2.418329610892084 5.380893092319672 2.383028592869369 -0.3652501437613258 -0.9019828410780918 0.9395862532531625
Ni 2.2821734735346935 5.551919592360746 11.50072078764033 0.05775546164291343 -1.6257226699484582 -0.3962910722275304
Ni 0.9109178120547177 3.3829339714350457 3.7866996998894287 0.3920436098050861 0.019796723010953005 -0.5378341579110608
Ni 3.6714185352527338 2.885681509299052 2.686240842437513 -0.3713071485886831 -1.396922770728788 0.7748960400292074
Ni 1.0531340150478605 3.1990059823343504 8.111806703459479 0.03510918499830728 0.06303445065366564 0.8136394793459922
Ni 3.392519232673004 2.851011028840237 7.325769854168495 1.2226184314538362 0.14414735607559692 0.014422603183233225
Ni 4.096204605318625 7.232602023491105 6.002084345095821 -0.19871105025409003 -0.8260126561993646 -0.7077707071356198
Ni 0.7584603707038243 7.48166436123154 11.657260369156354 0.5372811136210682 -0.24941988946286722 -1.1354523778592895
P 0.15513132038627844 5.450815528800553 8.018230931332244 -0.2335083604389333 0.4390364336148568 0.1924236745834815
P 8.57815464796427 1.3254553753183176 8.025252248758495 0.06520831837653286 1.5929069089700179 -0.9641564863933589
P 2.19296240235411 3.4630685724955144 10.26860223433497 -0.5832740354114149 0.45356393780707044 0.1617874377548633
P 3.9768840026284735 6.333195610477613 3.8428820505218124 -0.294379484892693 -0.0012927506694945478 -0.6937623086716697
P 7.102451438435413 3.9627559635526195 10.1587233411031 -0.24705010367911 0.1583053927435338 0.9067992886301286
P 6.241313385928349 7.796805945401996 10.303495310907842 0.6900285526608503 0.6082430466519266 -0.047220366439544484
P 2.2044283736169574 8.460941894190903 5.511175417932665 -0.4243402650552627 0.49882049565202474 1.823109859184802
P 6.842486433884029 3.903681680548632 1.7959508759891094 0.46395659389530414 -0.6755506707596495 -0.7832333562503091
Ni 5.518194009692213 2.73720535844529 0.368271188095774 0.24937001006153825 -0.4759505330323868 0.048715977148464484
Ni 1.6970546024581339 1.2163651083191056 7.036426705339445 -0.89963593811247 -0.9332502837328057 0.018912520633786782
Ni 6.643767160143148 0.7212541116558961 9.13688088835823 -0.05618143228757421 -0.37915749787103736 0.2390254336024206
Ni 2.763526213238054 1.586092710989709 9.423763668710274 -0.38603057084178677 -0.5594725621164429 -1.2661286960316451
Ni 6.499524878234304 1.6985082913662601 2.6140342972597383 -0.6713713425709792 1.083502724264876 0.08150474154371125
Ni 4.37125163229182 6.855351580720948 10.852966095734871 -1.5921317213668902 -0.5798177014316982 -0.6373787876756185
Ni 8.53939566745135 7.1432364978640335 0.17511772576188156 -1.1886952963438302 0.1891552882448549 1.4514335001821586
Ni 7.817611867899555 3.6666395329672676 7.971489381602575 -0.3926501330408334 0.828241031309251 0.5441004505357468
Ni 3.035693119062023 8.337133026996911 12.577522675223621 0.9522170546432956 0.40082392710087744 0.26241295928842545
Ni 0.254804408927534 4.700439485537046 10.120200585037749 -0.5080700392747508 -0.14936103906605247 0.7804930745010107
Ni 8.55331473874666 2.6545358873512757 5.762819870596159 0.4618050947699401 -1.2684270051475188 1.3799750871308558
Ni 3.7671257787415064 2.4534543691346884 11.51099927677635 0.15486499960341715 0.7983925804892508 0.4540804724321728
Ni 1.392406835093215 3.2813847156467397 12.533800255645017 -1.166178346188237 0.6692512109041829 -1.0397237794067127
Ni 2.848194506580742 8.281729308485943 7.897754645960132 -0.20219180971383888 1.958611366659943 0.33198932482566695
Ni 5.946014655353818 8.140685142174977 3.5315972847357293 -0.41161870372353626 0.24455921893645624 -0.2827321304617518
Ni 3.260869530930805 8.485045873398773 3.6370615064647334 0.38702610198583665 -0.6584672329148015 -0.4581088768652755
Ni 3.8335866185099117 4.719837146904858 9.552058983296972 -1.3931941569242907 0.5031389205217206 -0.15708900383792948
Ni 7.3986223823548185 5.962868361132409 11.555161437249662 0.32599994001145144 0.6484563856460187 -0.9545811840000981
Ni 0.6982276793511736 9.290253245165673 0.3780208978914644 -0.6333352137338641 -0.7927996597825056 -0.5342549252002348
Ni 4.665205700626333 0.27913552702729993 1.5221267648098762 -0.11469742624559601 1.9136353161698851 -0.21005038652630922
Ni 5.96517609227406 5.388534044643011 0.3903036606095651 -0.08140395429978885 0.3381466026763144 0.003028502413678655
Ni 8.057843045523123 -0.18325384086955163 11.179848943505151 -1.0944075441028378 0.00554304130541626 -0.007908713324115413
Ni 0.17207043038822156 4.972506450248582 5.771303962486211 -0.7003417616614003 -0.5639359972044352 -0.459063527469061
Ni 8.1570391423914 9.113993465055346 2.326686336457092 0.2752988141121581 -1.048414365202175 0.026728931354412032
P 8.435193429405713 1.589172714363802 3.770781806345445 0.8368280016473136 0.33101050585216546 0.1505627726836375
P 1.7030692403155068 3.1666523185728614 1.578535345778587 0.055962888518864905 0.644502028983961 0.40182794288535956
P 4.650450758208849 1.1981394836334707 8.229782643909612 -0.4812824867682614 -1.057883481034875 0.23631394820852852
P 8.80376716650549 1.6761850810708436 12.105802441647734 -1.75060475003654 0.2247290715844065 2.181111548913831
P 6.645993121283716 7.8215913412855524 1.2294165090473783 -0.27777221535331514 0.578115631138927 0.3271808476934301
P 1.915562216460886 3.3655351323159075 5.836116682455028 -0.5013052097470915 -0.5576308809220137 -0.4629417794775446
P 6.713798623292138 4.2081023090216565 5.935476319325469 0.4080415278952391 -0.13077479142343285 1.2805227599697881
P 2.3874659782614254 8.40571988679345 10.258150211085542 0.49516464406699234 -1.0257832580662205 -0.5183742494142363
