# total energy = -340866.76719652803 ev
CRYSTAL
PRIMVEC
9.31131533809092 0.00000000000000 0.00000000000000
0.00000000000000 9.31131533809092 0.00000000000000
0.00000000000000 0.00000000000000 13.62805119947340
PRIMCOORD
 96 1
Ni 7.389366766959651 0.32288010301008024 5.350740861246521 1.3794166435242246 0.5442269488112821 0.5170012803261096
Ni 8.634103406039236 4.97676770852102 1.133912432377091 1.4013442968352512 0.6393778203835182 1.8377026693973124
Ni 3.4642097053641927 3.3691970432968077 4.226685387323422 -0.6533191130549587 1.075895344231263 -0.32818974857391864
Ni 8.637893111396096 4.135834883227824 4.475574984984026 1.3809279379624282 2.718407060712602 -1.229689736478321
Ni 9.313829428277486 8.202738098748393 4.236906418208503 -1.4110939200228472 -1.6443467128075486 -0.9393890496406918
Ni 6.075651903595946 8.465335814901312 3.8312133385329084 -0.7635585035292012 -0.4886240147349971 0.4619300503835787
Ni 0.6464362075162494 4.481955098277692 8.632103335497087 -0.27112719923297174 -0.3817489127472974 1.1183653404700158
Ni 1.8902621999523406 8.886831127896642 1.5673485762069173 -0.6999275569421172 1.16887183386 1.0470161993030678
Ni 8.818281224119682 7.231074405616497 11.567231065518696 0.7032468511233372 0.5528527428070801 1.4695196682599079
Ni 1.4499300959571768 6.599534440434176 7.727390793292585 1.0144511208828528 -0.03963998298912527 -0.19900621289700565
Ni 1.69919400849578 6.005537698836301 3.2214395041668085 -0.3729914782696415 0.43960361897223643 -1.1258318240503902
Ni 0.20950552702688902 7.340072663374318 1.3039016680919675 0.3352389421112162 -0.15991696020502782 -1.0519745717496078
Ni 9.437297470125147 2.0811907216783045 9.473853694280042 0.6517144875720002 -0.23764577964607458 -0.4310904392949027
Ni 6.2308994648120875 2.5795695657095403 6.5099158233624435 2.0866538467538773 -0.42040570588754694 -1.8922324250140765
Ni 3.6940595253498265 1.13174382702669 4.097395911104483 -0.7475248471051061 -0.7921460853589067 -0.7101047545854351
Ni 7.256382560800655 5.531284472936837 11.32238909665079 -2.957638439678242 0.06777942153781875 2.0784553701034847
Ni 3.294231643227764 4.545085816507491 8.1641156937122 -1.7365343879864028 2.44682760443356 -0.9330183702276575
Ni 5.657704201757779 3.885183584698626 11.182020086269366 -0.5740013518602373 0.02994306741633553 0.03585403358413179
Ni 3.5453391962102456 8.054595071161947 0.2015545948297761 -0.6022559758305562 -0.8000810239352673 -2.4812107098991203
Ni 3.8573799969944695 2.8836119465882475 6.392237557413792 -0.7500105896414373 0.019569694601811457 0.4560357963863308
Ni 5.155125954493263 8.642288052252212 1.6850678119432092 -0.20252065380816733 0.17779306915450024 1.0037638163723357
Ni 5.892721801775497 8.243540282713434 7.619184928473016 0.640741019279632 -0.9349778079468736 -0.9737549287150713
Ni 7.83596538620093 7.176593899368332 9.12279475755627 -0.1604170397698979 0.5277945142868716 1.8791416532683896
Ni 7.525339905353422 8.880946376580823 1.8420491400818277 0.8053366159072517 0.3305021987571792 -0.2783021197148562
P 3.6508736446492644 4.382370580362101 10.378537371406889 0.3320523168531185 1.1277884335561286 -0.10788708819198194
P 1.700227564502197 8.124104040422337 12.630151236096458 -0.8891175550796495 -0.7371445323120466 -0.1617524707518698
P 1.9900050102292741 1.7633862166781156 7.005704259456874 -0.1329190914599453 0.36426926790529524 0.5643085500525056
P 7.8200709708590015 2.3658935005270276 4.529964240341534 -1.4611550983452966 -2.6614049322959454 0.024473559661332044
P 6.829626354619511 6.189855186647345 7.366029817239983 -0.09486162246659145 -0.18244059522884062 1.142621384803903
P 7.679917051862699 2.6785581594412506 8.480776769184569 -0.9337783883221338 -0.2043602781200674 -1.348336634289968
P 4.205967710618215 2.8845244554948137 2.3720305884894555 0.5437106712964959 -0.9537455754726799 -0.577323988475567
P 1.7578366727157322 0.13345535871687633 3.971377499976123 0.5263037886739581 -0.14134819606390497 0.09915202231182924
Ni 3.364494829033378 7.932477170043388 3.6196509419400957 1.1159191929223684 0.28913212045082465 -1.512940201337388
Ni 3.2831884231952357 2.4735788628172384 9.026144235114751 -2.235033238632951 -1.0778560675020599 1.6078154506507343
Ni 0.7839913383919135 2.2143239088832707 12.526318896107645 -0.6340062716589597 -0.7385298426953475 0.8639024892666024
Ni 8.410967044437626 7.666266663525694 6.951600861481322 0.3536385276643264 -0.8032591645529327 -2.6471743905188605
Ni 4.644903117307409 7.909794805794451 9.639407019351161 0.5852296164758889 -0.6367231563694905 0.0020820793400093177
Ni 4.044509502048197 3.3195211757811762 0.13057536887196824 2.183425284648672 -0.17726033657948181 -0.17783806345982275
Ni 4.301222466885301 7.368583911046833 5.8791272813307325 1.1121455848125492 -0.9163082565618283 -0.8261720645953642
Ni 5.000092553530703 5.718069459321759 0.1694212454771157 -0.4956194722162238 0.10376715248633743 -0.21981749321540206
Ni 8.010878445485115 0.3209601097801415 12.865153006878042 0.38838930088195045 0.24711720947161955 1.3294220567736523
Ni 3.2395369767260176 1.8990520816645722 12.13216812296858 -0.16533196057301203 -0.4222299035804793 -0.7875939472118502
Ni 2.6137514044442884 4.5044419249037935 1.466610386316596 0.40804821276345854 1.7665731004403382 1.217326844037594
Ni 6.211215344113298 0.2593508604823111 9.523650608895526 1.1892743087757518 0.47727079450570703 1.816794972710368
Ni 6.566032327721666 6.491690785782621 5.285367047143336 0.36004365985972187 0.3394105569904025 0.08882595779547282
Ni 8.38549128557675 4.781453557254314 6.699835929633497 -0.3747488272803804 1.5740236989122698 0.5424724280140206
Ni 7.284335129550781 4.713778917122428 9.006083937274887 1.248968896422907 -0.08239537167878068 -0.12637100592878237
Ni 5.65270402540241 1.8882043992548796 12.441988175036311 0.7239084932377469 -0.554989843754741 -1.1553524592173263
Ni 1.6989705369268246 3.5154405625471363 10.866054566055372 0.09891110994561675 1.3868257915041018 -1.0421565572179212
Ni 8.005692042822284 0.42988573927805274 7.948247744890852 0.43258373601097755 1.0804294846561908 0.26523834455236256
Ni 7.840351015741672 2.5879590608607272 -0.008365285731217066 0.2920888890863034 1.0103070168074924 0.6390404916487575
Ni 3.2715585902942004 0.16324877451626998 6.175047401809461 -0.4274171042083736 0.8592413363455073 0.42864737707104883
Ni 0.13448984585483073 4.807655598714292 12.438867953254777 0.021044993595757303 -0.13853695186735496 -0.05743561640964947
Ni 0.6588304994094184 0.20233022740035753 6.215426852056563 -0.23129284084485327 0.3677700819697021 0.2239690534899304
Ni 7.286718826286302 6.858808016998889 0.06201429151656142 0.5721481007015823 0.6845533884788919 0.26387360299435203
Ni 5.913113582442645 3.945837493039173 1.47401008864362 0.9557618345717603 -0.8928212291834817 1.6660038860660082
P 3.758475205101117 6.644787433147571 1.6626629248923916 -1.23392691448812 -1.1052984799837287 2.6915282340438873
P 6.593938339894927 7.784548302710523 11.061916222666017 -0.02884006416014388 0.3082945523118884 0.14171329271280755
P 2.128985703488564 3.914653897854572 13.118661948095253 -1.4623552893009848 -0.11864509803943439 -1.3273307214622625
P 8.960111179883148 5.486078036800307 10.328331690046527 3.2578664129319117 -0.7115525427755552 -1.5124928293873243
P 4.9617113115626745 4.805327769871011 5.810946105642549 -0.1314299085089285 -0.2525100983524167 -0.6440199471412199
P 1.8133134897088212 1.2972338351532715 10.628312475159476 0.5969332780660622 -0.4963589214854096 -0.599500010351974
P 1.4937398347877384 4.381597741186132 6.645746498631004 -0.12681323567252353 0.3282118600611057 -0.6331886608536709
P 8.024426409353016 6.829775335665481 2.6202106639186264 -1.021997051550911 0.13005462542795665 0.8795494517752401
Ni 9.269190982378717 1.1011747786567148 3.269601351802769 -1.0192248881224124 -1.253729551036344 -1.8069029104076362
Ni 6.313835350840527 4.664671039844557 3.9286813944641876 -0.5149721657112227 -1.8131995420496259 0.11475604739767334
Ni 4.829350963533677 1.227547950900791 7.913046317122747 0.1547518710643206 -1.6329017041954004 -0.13247197662019766
Ni 2.6204089949360743 6.368083074204364 10.198374592515334 0.41488400473836934 -0.041559568609341326 -0.8209936057182183
Ni 5.797038725001247 6.381137538357487 2.3561128948590953 1.1379368348440402 0.1970290345659768 0.7814479822151122
Ni 5.324610516914916 3.4257167276116864 8.400876371967769 1.3952456401366808 -0.10461458808829724 1.1548410667985465
Ni 1.1685887019581525 2.384776848103729 4.615998000994613 1.5232225571000024 1.09931860825121 0.6884349829214853
Ni 5.160824479501616 5.591882513385146 9.220098934336981 -0.044679088074929506 1.3309832306131852 0.002310136190415376
Ni 5.8522734477946345 1.639331561961948 3.6679217319659223 1.4768907639129984 0.7733317808658811 -0.578183508262385
Ni 3.6131721287034746 8.545450372371695 11.410181764777853 -1.3724191291604686 0.9710478141965535 1.8629244200785786
Ni 8.510598118930082 0.09976888195997842 10.725439736948097 -2.56763474312132 1.2779984508860376 -1.564024421607713
Ni 2.746623874818807 0.09297441513220783 8.54164018212101 -1.2421256482488285 -0.3401242952279755 0.8406059806325071
Ni 5.910031537054141 8.639057025817738 12.995545873968696 -0.7211458428909452 -0.15134618781688128 -0.6965236734668907
Ni 2.0202667851919363 7.679451486094043 5.4451147670793105 -0.17634579518501242 -0.20710647340663688 0.25698047541894453
Ni 0.7324113068824779 5.9412989340771 5.2741236338302855 -1.0804672798726616 -0.9239989403378667 1.0448968389672197
Ni 3.7857014912521394 5.581025519660081 4.09573384131038 1.1689667075666512 1.0640142765229612 -0.03626026788361497
Ni 1.1130467057574513 8.541344082292145 10.513250688830674 3.0316597283607143 -0.5395611679044965 -0.7547337061487195
Ni 8.199004261283768 2.956584725167442 2.3308466405941157 -0.41426925397250586 -0.10848306990476801 0.38219782735925795
Ni 4.8424799182097855 6.230638747981641 11.64112193979368 -0.16634677499077158 0.8624107352124244 -1.1888181950749397
Ni 2.5477155558180735 6.16345760756453 12.610253886275622 -0.17669700787684406 -1.2680004591330614 0.6025082010506785
Ni 2.19302893062493 2.082931937653079 1.0874322082975172 0.10048025420494952 -0.2956701786796585 0.17396109700291976
Ni 8.947680573860024 2.600389666883852 6.507503261549266 0.3253844179146396 -1.3631952965693557 0.9330682496289867
Ni 8.014239830334814 2.509250512011687 11.349059497274038 -0.8693935942881609 0.24112191112013312 -1.1161138254316778
Ni 6.038164547903738 1.4565783751335892 1.0286154224800874 -0.10495474503653537 0.2847224214189032 1.5362169124771416
P 3.6558179531123947 7.499677920185084 7.885926179966978 -1.5022683234458385 -1.0261930919101294 -0.4396025905309719
P 0.3056653431482435 0.9395489664099808 0.6566693431113158 -0.8388874552795036 -0.2182403785362693 1.108554267916865
P 5.117079919878667 1.9841854381210702 10.27928433631858 -0.04796444369442062 -0.4974724662645626 -0.18887246689711343
P 5.376465232227859 0.3099671708506281 5.996464753136726 0.4698765589241649 0.3173384076817115 -1.2628999046817024
P 0.9580971066332493 3.994889502424805 2.68798307286193 -1.2364730779487414 -0.5338034394851129 1.0735358428601511
P 0.531071803437821 8.466779068784147 8.3513243449466 -0.32068778376991863 0.5251547626711793 0.19391465730671117
P 7.038898167630534 4.757448986222394 13.526181907847056 -0.6889646301727103 -0.8675544841968931 -2.644518698063568
P 4.186898136734051 0.730991331288076 13.716633690225915 0.19271909433671325 0.9630503978133738 0.11469716913527987
