# total energy = -340887.94806357066 ev
CRYSTAL
PRIMVEC
9.11093145342429 0.00000000000000 0.00000000000000

0.00000000000000 9.11093145342429 0.00000000000000

0.00000000000000 0.00000000000000 13.33476912915400

PRIMCOORD
 96 1
Ni 6.013287552355602 2.107440410491724 11.069471770547139 0.6326577280508652 0.23774913799315828 -0.24315256839691668
Ni 4.481475782058886 0.17413449685747281 5.785929728061801 2.2572964209065254 2.0055694805770363 0.21707438325262615
Ni 3.006270227994072 1.8488995126947356 4.789022557188589 -0.3780858620734134 -0.25608136064344283 -0.24951990537584126
Ni 3.377686453796378 4.317834344791672 4.685477733938316 0.5614651670664395 0.9825892391772497 -0.22062224850488454
Ni 3.929890889592188 2.925747817072206 2.527645673461556 -1.1170224532888762 -1.691870212309809 -0.1271058272122779
Ni 5.20839143666412 4.689314347113152 2.774352382579385 1.2616596045166983 1.3583860481061703 -0.8009652263124335
Ni 5.286135013536295 4.808193778852064 11.764066396328507 -0.2603558196490806 -1.179593334042562 -0.44482090150711784
Ni 5.707934689485458 8.022293460969092 12.294390019489112 0.16200546730294035 -0.06502114206639124 0.18399302731762504
Ni 2.075096604339583 6.682968336468512 0.32511993944132295 -0.6306080446106882 -0.46295309233145426 0.6918604636632666
Ni 2.764757660816337 1.8084651995389038 0.2534396873562609 0.5614584821982201 -1.4480581559520223 -0.8804621933974967
Ni 8.274511372436619 9.059818985810606 6.589896528759616 -0.21874200076303618 -0.33840602698528816 0.2925912826440187
Ni 8.904687158387365 2.34188289497254 1.2252917971257018 0.3353872947636224 1.4403618157490292 -0.5543666083484452
Ni 7.2843809122721295 0.8352537388179417 4.61676400108794 -2.0420927723140507 -0.3603213390011408 -0.333846946859696
Ni 0.6377861468743751 7.657910874138462 2.1727402773800697 1.0100349940930282 0.28004481343757576 0.07923857121735385
Ni 7.748400643913973 4.234897537072534 3.7940614812432916 0.49689782470801525 -1.0316913960205394 -0.4305852175237101
Ni 7.53607950065496 3.2413778104605515 12.558152392020126 0.45203438853642147 1.1970698935607706 0.056144922622683946
Ni 8.25010318745589 7.841860577296695 8.639996381955815 -0.8968455198515265 -0.931495248714912 0.6573572876800744
Ni 7.001577604395378 0.7355856168402706 -0.023997281978626654 -0.3016726761199966 1.001638542499217 0.48133468016243547
Ni 2.1493689163824716 5.9910751018206945 9.174440879348142 -0.36471818251725574 0.5883614772366512 0.8134613018969151
Ni 9.147739472956568 4.925560795993439 1.1024317994972488 -0.49273649424147403 0.814111019665772 1.3932921159547358
Ni 6.482218075973786 2.151282211957669 6.642621488253261 0.15058077040576645 -0.45962685617169874 0.2890220772355216
Ni 3.3393749876358845 4.274912747388084 0.25848349892973277 1.0922025660317187 -0.17024868114833905 0.7320151815052812
Ni 6.372568017652372 5.9853807697516554 4.557050957279171 -2.184459639450457 -0.7139500964734543 1.1554146799138294
Ni 5.782808322994837 3.0922683086335256 8.786452780585233 -1.9504645691830926 -1.023480578074973 -2.0389987067697595
P 0.26952685877114413 5.756432176851049 12.28572279053347 0.3148758050738319 0.5057581033121225 1.3952397265994099
P 4.312641113944709 6.305238235268056 12.94736682213742 -1.8483040990622428 -0.0921388242187897 -1.0884148168545125
P 2.4872478040309662 8.731725238389549 1.226047093331339 0.4176361135622098 -0.06815865925410843 0.9575029856325832
P 6.422669028928604 7.90501755314082 5.606243940756864 1.203140782345199 -0.09433866008358592 0.4054706818442695
P 4.72101127714225 1.2009665216198984 12.47809008312944 -0.4590118482955191 -1.4142823450531579 0.6071847805907414
P 4.135233059467387 6.238737547632991 8.179720331989438 -0.17076675843533815 0.7699209554121191 0.743835571178977
P 5.2354144589309515 1.1504008528468328 3.8084631303657392 -1.4894593446066284 0.5734732472709092 -0.563957337360674
P 0.4422573611136747 5.928546780236992 3.3571750141371344 -0.3625756822529562 -1.8214774657877018 0.024749696140854153
Ni 0.4371042183644772 0.19677607225710267 4.287181527490753 1.7769487872477074 -1.130924408081949 0.7746898375556722
Ni 1.9275906264231986 6.9726686193472815 4.560051186959706 0.2452511027971583 -0.6898413763507086 -0.07778332682806605
Ni 6.21092187434215 5.775264471869774 9.052014562050065 -0.622889850030824 0.668133809470288 0.030819042263385634
Ni 8.434007335957572 2.358710785102964 10.32415112360164 -0.12044589869359901 -0.428091761677895 -1.6900794389579732
Ni 2.5268256896436143 5.47207089972021 6.793331780711536 -0.03807829492896023 -0.5633292168583717 -0.18148851572821648
Ni 0.8140562460310202 0.2590820871168302 9.162359784430466 0.7065859427988993 0.027408731030256022 0.5016103996923361
Ni 1.901906911059005 1.3618837904252836 11.112716806012248 -0.4988438926907925 0.07262337989368138 0.695686522277576
Ni 4.444403402556615 7.181099394936728 1.574556615632881 -0.3240549004699387 0.21041882560932149 0.7853426892838281
Ni 5.879611968168499 8.015733590425558 7.645089971598379 -0.6821887449014574 -0.6194646263993591 0.6263212443098761
Ni 5.459206264709837 3.1120116967832976 4.666008584820989 0.39138155074105496 0.28187081090272104 -0.03119030955987532
Ni 0.982276837374872 7.269848976831941 6.896902114569477 -0.4231935530453292 1.020465445397733 -0.3454994434969598
Ni 4.885308701463817 4.998375359026654 6.716256035104417 2.388668479594325 -1.6729954868924928 -0.683945579691564
Ni 0.26323484960813887 7.38687888951483 10.858649375488696 1.0443003430338014 -0.0022754262977380166 -0.21932538407033195
Ni 4.681879827163814 0.20788958626960458 10.405346832347348 -0.6194222031971977 -0.24104632068719134 -0.6313166406419386
Ni 8.377191568305529 7.089252096395958 4.8067706513813695 1.501559213193956 0.9043706245839779 0.3843871217010928
Ni 7.416762744213146 6.035618444997545 6.94688103936615 -0.08028860974842301 1.1019611880803795 0.025320481042659618
Ni 2.6389630322127844 5.280048911420906 2.452144296784886 -0.6862816840239084 0.2972151545692752 0.3510759091434728
Ni 2.5023901718689547 5.2538094292467745 11.768400466352896 -0.2509808061920839 0.6701004462783556 -2.3787720464162194
Ni 1.0939313005845874 3.731053924672658 3.854428689920153 -0.11777272273681005 -0.12266218961862747 -0.7206012832413847
Ni 1.793313720769605 1.3337310126759552 2.4381690392477675 -0.3297228973889934 -0.43473883468076746 0.9812468662167423
Ni 1.4691741175372879 3.698746562245759 8.14352989063802 -0.9509646702934332 -0.23306047426823734 -0.32270995640627004
Ni 3.692314244740573 2.925693151484343 7.078215114206464 0.9229645855360815 0.4040401200453299 -1.3709605423370712
Ni 4.061908284280786 7.059377352628951 5.93386574193604 0.4295140959467183 -0.5755285871380411 -0.7647085579732443
Ni 0.5940436545597145 -0.04016827396156619 0.021231203232770297 1.7528323538154782 0.543381055871219 -0.20981538769736768
P 0.14136156584060885 5.898836033233574 8.306774091300097 -0.4677227458059558 -1.0045942826934313 0.237808530476184
P 8.496909205725004 1.6111042054916693 8.089444669099722 0.9892823349267091 -0.29426584213296414 -0.5906235337979505
P 2.0995685658394847 3.528308370220941 10.08831284444406 -0.23886216855167894 -0.6450244771463343 2.536485571212025
P 4.174965830912313 6.289120997779848 3.8668833330215544 -0.36795031630130826 0.5507328682506 -0.8792887419146858
P 6.804407939905664 4.017620047180629 10.198031234750303 2.0994563978351843 1.4075069740025372 2.9226048451128763
P 6.486372660651357 7.830244139875857 10.090672575653471 -0.17659236397817973 -0.36425049885221783 -0.23164482486763333
P 2.3990448780143807 8.703244467113043 5.83193446462085 -0.8792889990250017 0.4073601855574985 -1.1822539115938606
P 6.883190162947232 4.190837073255139 1.3376642017226819 1.3703051681412592 -0.1854755254004225 0.6553374290365681
Ni 5.4993672499263555 2.7665342924218774 0.4587244583642043 -1.6467396385197577 0.7541500657311077 -1.2366970210340895
Ni 1.6403685168608744 1.1986159013417994 7.051892722557406 -0.38134910620571744 0.525308000419592 -0.3496533177643333
Ni 6.676690904795604 0.7629402770068024 8.921667201070674 0.9167492007539889 -0.043508721915912166 1.1677891423187823
Ni 3.173237155189604 1.8477150916243754 8.961058312591458 -0.1323699038246946 -1.0452269686131288 1.5575074464248015
Ni 6.6477545869535755 2.117362214688818 2.2798857406842377 0.6184032750143802 0.5707144535788494 1.8281541064769289
Ni 4.169818154721902 6.844778476542323 10.458926397197914 0.49831347410861915 -0.06220089900877675 -0.048307171745820034
Ni 8.293544107944175 7.341196679924171 0.1482266525830422 -0.240575808808676 -0.5881678731686064 -0.6594846184357224
Ni 7.962507529709838 3.7290859635095983 7.983046302163013 0.47375918180802284 0.46511230476630216 1.169398395787431
Ni 3.1842887148691945 8.331336251019973 12.432805110143917 0.6871538022162166 1.1319459073679279 0.02480806018261534
Ni 0.09341437872616996 4.5403688420497135 10.566030861311186 0.1169977922439985 0.953961548138228 -2.0918826992529844
Ni 8.828701991258109 2.2118516833096225 5.768434006666321 0.7719130461414835 1.6153536680093081 0.3239122042444873
Ni 3.7804169505127434 2.9117534265793363 11.519026987640494 -0.8496086983517497 0.06267063955634368 0.24408613595477965
Ni 0.9151657173420066 3.6886607612850777 12.711074818600581 0.8895405015496809 -1.9471177641980466 -0.6261039860927475
Ni 3.3763927015502926 8.47712026291868 7.8118145480210535 -0.5924289624378055 0.052423507907038744 1.8843226832486968
Ni 5.948454165150352 8.174373126403328 3.485135311113184 -0.439362706606024 -0.22437631623067808 -0.5791186184821445
Ni 3.4722943645242186 8.75480322739895 3.683169602984262 -0.5853949384091596 -0.37364248159007907 -1.152714507373847
Ni 3.984374258828752 4.349649716927806 9.637851089685315 0.5907376907783117 0.9246594567400012 -0.7853231488998023
Ni 7.225414964830817 6.097609221633931 11.35079546317907 0.8751551793622863 -0.025488116968775457 -0.29703440601703684
Ni 8.268871705955442 0.32910323861025714 2.0302453116844394 0.07480367537445182 -1.1286620944103336 1.1554069666043456
Ni 4.868772361135328 0.5907382086802788 1.589104039656296 -0.764169911860955 -0.36426463991960495 -0.27534483685874517
Ni 6.309110381075002 5.963924526515517 0.3054731271634421 0.3039028510020959 0.10015475254473073 0.7474181463239127
Ni 7.806546607537344 0.15860218115939667 11.19239190032224 -0.6658951499477564 -1.8930955443453206 -1.6593455002092259
Ni 0.26651387378677427 4.741456207002928 6.295278165159458 -0.6543976908311181 0.6121110142477653 -1.3210423173503894
Ni 7.531241596129105 6.408446865152973 2.489920951277456 -0.08361278902564954 -0.059007845992775795 -0.816398015927736
P 8.703071359418145 1.9771996474086657 3.5319536538382565 0.46689639324991844 1.2646297428886155 -1.191424522349535
P 1.8807239957621802 3.304789892381369 1.5166967352526592 -0.4408919987663568 1.0245635267265063 0.5269604484213506
P 4.947199257855788 1.118339485565316 7.772437102897236 -1.5506456863079616 -0.17692017963124368 0.4044119015624519
P -0.1931526548749318 1.5201953328758766 12.205473707550917 1.4839957503888959 2.161098081906381 1.5669189695466885
P 6.642652465419717 8.204603196491442 1.3238028308269443 -1.061328759270998 -1.2139576704550448 0.06762746934098675
P 1.8983263150539933 3.3966098581282087 5.926758304420749 -0.3568508639540371 -0.8080900102826728 0.33629412284860793
P 7.091730269712403 4.168861506934303 5.965442407671841 -0.47997739480359275 -0.18257814924796945 -0.9348078580279127
P 2.5811997277044534 8.387915134457943 10.346594080698702 -1.327640025172565 0.4255890498606993 -1.1770289157494955
