# total energy = -340894.7498512863 ev
CRYSTAL
PRIMVEC
9.07736349753151 0.00000000000000 0.00000000000000

0.00000000000000 9.07736349753151 0.00000000000000

0.00000000000000 0.00000000000000 13.28563903260683

PRIMCOORD
 96 1
Ni 6.420310263466541 1.9672825235823632 11.483149835749295 0.5031350638669787 0.6554359022876454 -0.113039836037515
Ni 4.4128059422891095 0.417022248055799 5.971044312581259 1.1613343878323743 -0.07675385712228718 0.6758610029112168
Ni 2.943189871685665 1.8299601688050704 4.6942949839102 -0.7706946003533501 -0.39516544326351943 -0.06820108245626964
Ni 3.527027736212761 4.328286610894915 5.033158409164642 -0.37062143537556813 0.8719225313576016 -0.512561242276885
Ni 5.143470161160647 4.320271298939049 3.038917023772847 -0.06866722345941077 0.6597643544596702 -1.0631784108852271
Ni 7.119657578320253 6.103864295070771 2.62289056249118 0.18236011969989235 -0.8995495490462508 -0.18276558266842718
Ni 5.059368388486691 4.5977663006274305 11.664924039504932 0.4703869229016802 -0.6237308578748806 -1.176276610964503
Ni 5.584021843101839 7.71570449673256 12.280845845264203 0.6087963480522354 0.9235723943234094 0.8916161531317869
Ni 1.8279086846578159 6.565339299841264 0.35714614304641396 1.0569373150715216 -0.6190326810682629 -1.3480576695969688
Ni 2.703529320996209 1.6068748838363538 0.3689512542566115 0.42551937296502845 -0.38766604956268075 0.27652008811376894
Ni 0.77724834053214 8.88334391633282 4.6277733410945965 -0.4812392922351519 -0.0886207837632022 1.040576614325311
Ni 8.678603982964109 2.2090399452364906 1.4040929377710196 0.32189671647635526 0.8600093248597833 0.14518479620117575
Ni 6.9156529113937015 0.7800514303758224 4.6056127736225045 -0.2881687280962908 -1.694618207368591 2.008027198088909
Ni 0.900093208289714 7.50097946353208 2.183521661011879 -0.6341502534359917 -0.09546788859202268 2.3554940497248853
Ni 7.517327795165733 3.855483056497105 3.968951915512647 0.20011435835951988 0.27946117301996387 -0.9691454549675181
Ni 7.672968269452582 3.914150056690498 12.917720021415922 -0.0025420496955633636 -0.6875824051132029 -0.9721225353179709
Ni 8.168256453198843 8.861440238247308 6.997665982730121 -1.126561503127563 0.8775049105413856 -0.40171044347088886
Ni 6.844549923228013 0.6762472402610861 0.33323455215836895 0.8361551439500052 -0.5510380581958446 -0.3351823778416679
Ni 1.7334587176127516 6.483052999863991 9.334157557692025 1.2550698671143223 0.7981958910974124 -1.3833735712894433
Ni 9.256005996781454 5.0397340512720366 1.3616716950039176 -0.13395061804825317 -1.1047356655017233 0.12585010042830586
Ni 6.536818223776334 1.8626114452549594 6.889972142362736 0.0702790480312209 0.3316620233932353 0.7409474509979046
Ni 3.383968487713942 4.333061304087198 0.33151348404191106 0.5464990326749104 0.008393623380333932 0.05678127065510221
Ni 5.957564427808368 5.767039645654707 4.930379961123533 0.11504092562794381 -0.5229189313621252 -0.5625956811264569
Ni 5.282971083173963 2.9776384661052724 9.329255781410975 0.08825748688651253 0.2302795690889905 0.229436761472721
P 0.17621068767664494 5.634301359436544 12.467296706686502 0.7908433073870832 -0.21493702519464916 -0.3027093449146271
P 3.9833195664342163 6.189963087711082 12.605002126202796 -0.7311836867429213 0.6998887332843817 0.6047926262094809
P 2.5564941872916487 8.65201638532115 1.3290821446257155 0.41416898094921567 -0.04760706035500188 1.676718187159719
P 6.441732841287429 7.789612390214627 5.779147033068901 -0.26316500696310163 0.7212108918009257 0.3940351863138182
P 4.859040053770927 0.9341423987160509 12.690601663851519 -0.7340453245614326 -0.09172179128602913 -0.6038351473922182
P 3.9844723915966114 6.21959160212099 8.274681278151244 0.017287583435854098 0.46691901895773785 0.6749109802931216
P 4.889712464981429 0.9714049758155212 3.891602793534012 -1.1629811794071776 -0.05813701335204826 -0.8997647503808504
P 0.08225725241412422 5.739054134035299 3.390801019207918 1.372163818616553 -0.8354727731709998 0.8885974209101212
Ni 1.487089995309043 0.9611384777157647 2.7823979936219696 0.4514592327592418 0.6146767180924123 -1.7774110715961067
Ni 1.6875998772944754 6.362351297624856 5.029079042015189 1.9666290947580969 0.3302173205269087 -2.124756824273186
Ni 6.340320536450577 5.769190980800278 9.283486806991185 -1.640398269682762 0.06115805956655918 0.2162248907681373
Ni 8.662046871970336 2.3770982527686693 10.404382343333532 0.19689585142222218 0.5715361781491963 0.17247705625822554
Ni 2.446385768237672 5.0646151045801115 7.164839247322666 -1.529316585812882 0.23411565500562903 -0.4258608154648472
Ni 0.5435588795420832 9.32381390200266 9.18856027836324 0.5124563412679045 -0.5616114628363166 0.23498623053604045
Ni 1.3637104708422954 1.0161926872427531 11.63873766132794 0.8457057637529176 0.580305182591078 -1.6871913187769005
Ni 4.042331506439979 6.887685554501261 1.5923365784812962 0.22824634070904565 0.4301825827686527 -0.1445967849081897
Ni 5.69967653124419 8.18896191930454 8.00026622589279 0.45458003777641065 -0.5900692039563774 -0.37362834052269206
Ni 5.331553132537268 2.892547260811622 4.9554107909290845 0.443953668410816 -0.5744014155121333 0.4086161694517866
Ni 0.7618667481094719 7.308276114142395 6.877191214578071 0.12679189551628484 0.017896420664446598 0.9695915413660011
Ni 4.869987354131941 4.603003939357368 7.127160926975654 1.158865100356275 -0.29192305293240045 0.23813660323956407
Ni 8.224045929167989 7.28945873964125 8.940211783083795 0.2867777612860351 0.20550519035778803 0.455720322028441
Ni 4.60515527450294 0.4808933007342407 10.423101682309058 0.13685596462050623 -0.6445125705069223 0.1793357310512718
Ni 8.225117058059032 7.077320755033547 4.713160468437807 -0.3969217638329938 1.2701897534748965 0.5525856051886225
Ni 7.031225903264701 6.018845708684988 7.024515916177752 1.1710904387778733 0.23705751124277238 0.6352208607923513
Ni 2.5598346570535497 5.1676431801170155 2.7081714846816336 -0.7089181904765016 -0.046508170863868284 -0.026936933600160064
Ni 2.3071571671288593 5.262401777520516 11.446959295277216 -0.41637241635843775 0.2044808628583317 0.46228203440635873
Ni 0.8826801019194548 3.2620685734949926 3.592716077060585 0.657670705155435 0.9928134880084192 -0.29749720458606826
Ni 3.731549812857868 2.427931488275864 2.486446896499083 0.06575879156336417 0.3996077953055892 -0.11534585846287232
Ni 1.148912818733948 3.2409364713055733 8.396337919028838 -0.28455401416183895 0.851290971150179 -0.20339225777984324
Ni 3.494140448312303 2.5680496710060523 6.998821531101561 0.27140513548470674 0.38059448742788 0.3264352277766572
Ni 4.217161527130794 7.050506223303501 6.167778011357584 -0.2990923169873301 -0.4738530270734097 -0.28071715691425203
Ni 0.7929585335129081 7.498083784580866 11.27189507860853 0.29578022189496156 -0.38281874877270844 0.807332563291358
P 0.11820724275389088 5.511157846420366 7.98222405823313 0.2847239640808 -0.19095274646490984 0.23081255877432505
P 8.60980664512321 1.8105527656775022 8.048054913687643 -0.7940515299117357 -1.0200072748143918 -0.5134922387315867
P 1.8552678581968667 3.2349998755874116 10.651521733796983 -0.398437686256888 -0.289198712022702 -0.9667234757895867
P 4.078241556380418 6.228714352421835 3.9645811649953764 -1.1814694680193523 -0.38774061155435807 -0.9054152637984083
P 6.941940956041708 4.052952021715589 10.511491601492585 0.040887996463613456 -0.6110337220231864 0.7969062257517114
P 6.343869785572597 7.850457957644043 10.118076852648135 0.2657561647290455 -0.2672036958088495 0.5970831733803652
P 2.440576255608278 8.519187325468154 6.051462491153639 -0.6997882031507755 -0.432688637019958 -1.0134476193190032
P 6.951354181974022 3.888588201121166 1.639420862869835 -0.7604042741709356 0.6394179295928343 0.6600893418992567
Ni 5.357868409275724 2.8141823818591916 0.37005596939254465 -0.04857353803332925 0.5606532126881054 0.5062640964142635
Ni 1.3126775333384653 1.193836690613431 6.826573112585433 0.68127806016173 -0.097138077205594 0.3196179477445076
Ni 6.950519064533546 0.833678678363216 9.284987295174995 -0.27318716708579405 0.3417775145606824 -0.8235824494913171
Ni 2.8361405241256032 1.759528905537156 9.23617649625191 -0.13796205320049143 -0.7280325427084494 0.5439713811570503
Ni 6.363585819058601 1.9688710621919632 2.648478742414614 0.7167739390754946 0.9101160117081873 -0.9584864325917749
Ni 4.151722813778766 7.070049786883321 10.490606403589915 -0.6420854491226683 -0.6181981009821095 -1.3046811023835467
Ni 8.182299134507705 7.286817226867572 0.3302490073086696 0.4103537209681836 -0.4378236442536782 -0.46714321915340196
Ni 7.5221115657215 3.689294685842513 8.42458304324387 0.5325340858543861 0.5402458526763471 -0.9969745613646442
Ni 3.0557219467897165 8.415659994939663 12.551979430623398 1.1015685806276512 -0.15990796134396332 -1.1966916842857456
Ni 0.11541686121908525 4.92899021677422 10.117492270439804 -0.6318635142843441 -0.4298043734936275 0.8152340775266218
Ni 8.674083455949363 2.2921704400177205 5.5546329710878934 0.17538445971300762 0.5130206984118068 0.8488167985780738
Ni 3.74236095276663 2.583000088663257 11.594217732123468 -0.15637398004877587 0.05237877071203237 -0.3997497202000922
Ni 0.9511079910665771 3.2723895357756496 12.64307894280673 0.25554451430336633 0.690961605998081 0.4124471131621026
Ni 3.290035930387433 8.492209401195407 8.081534953423569 -0.825127939601566 -0.23617048065212876 0.9751957749266558
Ni 5.541521627272432 7.808402532625323 3.474566929432988 0.45586224692294397 0.9002884840948044 0.4599528720525498
Ni 3.1272424936756424 8.438026618562827 3.8084741142254788 0.2668751088248371 -0.5212695686841603 -0.10531238548627024
Ni 3.3383002720288175 4.373083399685631 9.402631741392913 0.2594083681341468 0.15822286033205654 -0.14799886861120318
Ni 7.314203632497073 5.997813457493886 11.627431805109332 -0.14135436671149204 0.407437318652337 -1.0041955045931157
Ni 0.6665008750889299 9.009364953573243 0.30348803202317665 -0.2977100919278228 0.12015484981574145 0.4710204427206211
Ni 4.895549209701272 0.35580632419625996 1.590423977995338 -1.4900512125543566 -0.9575919458019636 0.2982927039041701
Ni 5.937594228144827 5.5552738329498235 0.41032315380502943 -0.1195490979109425 0.34922857152208886 0.7720246320186834
Ni 7.995368988293481 8.826310841566443 11.158607766862655 -0.23911028000674303 0.40438464786894224 1.0074024415661877
Ni -0.04447272691435684 5.002925342346738 5.73385552796834 -0.039387757769003134 -1.3163791075467652 0.5639550233678288
Ni 7.880994208402292 8.829415299877775 2.4731884993951887 0.3841824618894545 -0.5684696234087306 0.04350126571674443
P 8.54833473961344 1.5442592305276701 3.5118994022312804 0.46299808663677683 0.1351909182132575 0.0013801681769782682
P 1.9287218835047628 3.3132921356319747 1.494860218450857 -1.1576919059837802 -0.15387538199663822 1.0512708608143637
P 4.813716777898173 1.1839151323260448 8.255457237766041 0.2917371621738395 -0.019956131406952727 -0.8075089409682222
P 8.574659093715379 1.5116805729856484 12.587265865692528 -1.0942936442327929 0.4796457224957869 -0.7921275734161455
P 6.375622403037626 7.669173931516509 1.2675122035903228 -1.6240216280969515 0.1703273569050744 0.5502973233750781
P 1.7468296740238405 3.305885007029498 5.764399948353725 -0.937138048822986 0.11874151440798258 0.6176455709127492
P 6.922197690465253 4.028524836581686 6.094906752785325 -0.5041025699865705 -0.661779585117486 0.15687071717953627
P 2.445913745336534 8.72556118426388 10.268722961546404 -0.05575668604532979 -0.5923675130722508 -0.38896188555596883
