# total energy = -381170.753437729 ev
CRYSTAL
PRIMVEC
9.25279457007835 0.00000000000000 0.00000000000000
0.00000000000000 9.25279457007835 0.00000000000000
0.00000000000000 0.00000000000000 13.54240014011523
PRIMCOORD
 96 1
Ni 7.856696044871915 6.411862895923133 11.47836203673953 0.9953812487355953 -1.3521920034803163 0.455670442627112
Ni 1.118209495191253 1.9470193297996656 9.320299413197823 -0.5711813659129389 0.44102543902042757 -2.016731667841443
Ni 8.674356261837897 9.559894980899212 13.395302381450385 1.3847542536870538 -0.9264414883410882 -0.6946799353899327
Ni 1.0651539702437833 3.549945729402872 11.481653255822858 -1.234716757379267 0.08440520301995785 -0.9066964445036771
Ni 0.9323763659542492 2.260374475922966 0.016052673566683804 -0.25239799825458464 -0.8022806026897472 -0.5313824887484461
Ni 1.2969827420538373 8.811297623753235 7.646107063350826 0.7207501501144232 -0.5379593706350154 0.27857234265710734
Ni 5.242207862066389 6.183540933313479 3.52014340287631 -2.233384133065302 0.9828170389173397 1.6431264672472026
Ni 5.1366612326496135 6.592542218498863 7.5896483605038645 0.7035361002289819 0.39587403929476983 -0.490225297783846
Ni 2.068240193478912 0.23115979475150816 5.479363467799055 2.123274069080072 0.485348429307519 2.5583042097490134
Ni 7.7695162129823006 2.9921132410817965 1.079858511619179 0.02753265820263 -0.2739790668594701 -0.9704420622917544
Ni 0.347860668208076 5.519125502566539 10.282419813071874 -0.020641330399435418 0.2146014962321014 -1.479786854513871
Ni 3.262998059421894 7.815484097171178 13.057325548566496 0.12946712835560284 -0.31527998249078604 -0.4647986301806253
Ni 2.233569129607511 -0.025210164505035854 0.9040692910550875 -1.9936778713457728 1.1701303888574495 0.6450782132024051
Ni 7.149875055904842 1.0039559859391856 2.8383243905329825 1.1512584916536108 -0.20207225341683907 0.8443073407434942
Ni 4.373462965429151 0.8637650425167752 10.26702223737165 0.37674014667879635 0.9664735645623098 1.230601963879945
Ni 4.5232379536266905 8.85894026378716 8.413690229990996 -2.0126634113093402 -0.2553056588196829 -1.3009560881234756
Ni 5.134838432088984 2.167976067809009 8.510586421620294 -0.056481994247128534 -0.26651695415447 -0.8620173564287475
Ni 8.139128351027576 3.113204565634907 3.2900717367843457 1.1275701468977355 0.29498575101812424 -0.5161433032011886
Ni 6.662215762770654 8.82718467229436 8.024373340301468 1.1160793726493166 0.048409758761955336 0.4711626247254402
Ni 9.0974310477985 1.3159324656486087 10.999490122754732 -0.11650028378228969 -0.4218696920275832 2.055338324470047
Ni 5.645833273517124 3.864142879846057 6.722135936123866 1.2302170697367008 -0.2728102433623495 -0.6623781379334335
Ni 1.238107209224966 5.93363220061271 7.461713668972878 0.07104240855980667 -0.4322579772404426 0.13033718966538196
Ni 5.274972008184106 8.987378307351134 12.825966818728421 -1.2302409809961006 -1.194158890561563 -2.288279242441285
Ni 1.984123036642943 6.056962701489031 11.87822896297337 -0.3567894145884823 -0.4776631448481193 0.43680703006370575
P 2.4036262438400784 3.8814363531852307 7.978546098592394 0.03517423390828781 0.27914312755891285 -0.4984296879715094
Ni 6.731047302722559 4.722987286128604 4.265653102422884 0.5400278231282699 -1.2601529380641845 0.8971892763441903
P 6.365728461429223 2.531231535878891 4.376104638322856 -1.3385674707183464 -0.13571696592005658 0.19810067036360074
Ni 3.4226642851793994 7.186580892574987 2.2043913667248196 -1.1000809403385312 -0.4822811032361049 0.48449225195481077
P 6.524330615793466 5.867520982309664 5.957030667910785 -0.5979887159137701 1.6201377196615132 1.6302604099178117
P 0.4189720967799773 1.334456560686075 6.703921809709653 0.4145801003447054 1.0982078916855345 -0.04611016409450123
P 1.5546175583491535 0.04641571945352046 12.059236759761806 0.2634879375201591 0.932357339604891 1.4382275430148457
Ni 6.2951851544533755 1.3487058645610497 6.259568371722246 -1.34123833268229 -0.2833569085299443 -0.7911094165642762
Ni 3.070826765798944 7.250795287959612 6.792868000112083 -0.7660491311615387 1.2696966158885616 2.474845686913041
Ni 6.03259084018599 4.640480115574613 2.1583068973224186 -1.201549526598679 -0.9997145860036267 -2.404524729900291
Ni 3.737055744311789 5.090397259029568 6.250264686627255 -1.3299108234846129 -0.5563013634773128 -0.0058410321618092955
Ni 8.569179744210082 -0.09833962760624368 5.485673873800828 -1.139568456910192 1.2647729533346992 -0.5896984508805199
Ni 8.596466235851187 5.076305252664901 5.967296643657074 1.203742934705572 0.38428839133969944 0.3414245020966378
Ni 3.4190556952370357 7.532542887305697 4.764351904942288 0.7461143399108247 0.7303218529632584 -2.9746825396447223
Ni 6.456183782651138 8.08072471072963 3.3173869120890935 -0.9132311602984015 0.6320468339397438 -0.6708452948641801
Ni 5.056680075055277 0.8204332795447671 4.0328860972278155 -0.8528158924351378 -0.6441209914954584 0.6814161284014909
Ni 6.7149196815186105 1.76106591423125 10.220030068806823 1.0483850546261364 -2.0661418428434546 -0.026954159991340675
Ni 2.4713381956303793 5.400911797172596 4.044600135348412 -1.6467257545626866 1.4567711103449879 -0.15405947298298628
Ni 8.11261909414329 6.873123965709723 4.536596213369743 -0.4685372712874511 -0.4944997567894839 -1.539733410270832
Ni 3.405648395681946 4.443469610311006 1.9398002993559935 -0.2145963540257788 -0.5883231677995481 -0.3596083720945161
Ni 2.6996879166242054 6.997574054747648 9.218081939322747 -0.6370491722503416 -0.7231461611504256 -0.4233542469929096
Ni 8.14414336576799 7.302009506757003 6.9242835930182425 -0.07941443467358582 -0.32411043629822245 1.5717449301804223
Ni 4.151220088953171 4.1061497258525215 4.098783575972737 2.454100998166522 -2.009141771309327 0.4781058888124927
Ni 5.86446756005074 6.205275748120176 12.467269277339586 -0.5392796321083357 0.7786251680543365 0.844256947121533
Ni 3.943467089014989 5.544690974388978 -0.02125922115788386 0.2681130949969963 0.3616503422252094 -0.6426348938682351
Ni 3.0321500838525854 1.6713785749714272 7.754473019320006 -1.1062487597121398 -0.5582273768554321 0.37482467482363835
Ni 0.13871142154604124 1.1425813564942935 1.9558881335426286 -0.07199037429537279 -0.2561440955605782 0.940599010788393
Ni 0.1900098407754214 3.7830791452690113 7.801925977062087 0.1542044832012828 -0.6883758475487757 0.1042885722074462
Ni 1.6012146325792647 3.4842323812729576 5.696570048106756 0.5292770123696692 1.315056789190916 0.8860648842962546
Ni 8.430017711560984 3.4062220689548344 9.929030600016201 2.0971128373036723 -0.38475967454916316 -0.6714739295871145
Ni 4.302105412517591 -0.010391813754534891 1.856771271179568 1.481524406030268 0.9157950643708357 0.04298190287816468
Ni 7.2464742328235 1.9209264486779594 12.561645932965536 -0.4544525110596109 0.9925527781478648 -1.4744034787147704
P 4.314430135089971 0.0010705483495678807 6.09049112845095 -1.2016806528599047 0.6783493165507091 0.5914730262824394
Ni 5.031364428690387 2.855865838770759 11.268333774578712 -1.0527746990533997 0.4095073138074883 0.14784588797310666
P 7.927951817041512 7.258225282122992 9.377327162920311 -0.02209040414113615 -0.055698579113884726 -0.23548965253502024
Ni 7.11225319255702 5.379399049439275 8.206166699361969 1.3178914304262337 0.34791036693129757 -0.3014194224586099
P 8.511497821900608 8.547898316344861 3.149352458783194 1.1178133246212878 0.9947114763620803 0.3264977055834764
P 3.69071774833395 5.682779682850093 10.742698236058773 1.0581123092162292 -0.6375551653524827 -0.42346300465663195
P 7.6447977928973785 4.81436788682292 13.362543787009503 -0.049426372951927776 0.5892400231868626 0.7463084581995018
Ni 8.850973607529788 0.05678532650071773 9.033417438059386 -0.8625236066412049 -1.1636910609900089 0.8798996360258072
Ni 4.232589165756109 7.886351251962366 10.679726491005583 0.29479574649450524 0.10975088087359808 1.4436628550978041
Ni 5.788391081829936 6.3380440996149865 10.049395580183477 0.5554300166159531 -0.2149313687676944 -0.3838883276878034
Ni 8.148677235182754 5.368323454154636 2.1638724533489104 1.2647235881540024 0.18315664745925878 -0.29354079104148156
Ni 6.073201356229666 8.18697455254543 5.642861275851772 0.45217862742376963 -1.1253091187777007 0.20233270616707735
Ni 2.872696672373732 3.081236159863455 10.077360301677851 1.3486531370891224 0.5585320525800446 0.10427211714721397
Ni 5.436664595986169 2.361479763872216 2.2061928858575843 -1.3969356262445942 0.9911890650311187 -0.3742292073314845
Ni 3.7895190903969214 2.2779732914880317 5.644959809695178 0.43806918460558103 -0.15901347455415193 -0.38529754933050414
Ni 0.5784680711145608 7.166659625534195 2.231787966623139 1.2011803161847183 -0.16674581020140317 0.7278255689039658
Ni 0.5775566708342459 4.566596549703398 0.08921729728784288 0.22747680953287275 -0.2213483280376317 0.4068220536658413
Ni 4.4120193610440985 4.618106857931958 8.709428980239254 -0.4875973732426957 0.17371735642322986 0.9677727429897075
Ni 5.539842509953596 3.8048972352282253 -0.24722172111291596 0.42838589587954606 -0.31584022586963023 1.284851212141813
Ni 7.191817974388777 8.53464831430008 11.25884040719188 -0.852990470339789 1.6197065456613653 -0.23243543908972872
Ni 8.163509465125342 2.8898235954078735 5.541699545854706 0.3974611812762316 -1.028977853744118 1.9017776455003503
Ni 0.8393191588559424 1.794126149780135 4.4609481395446595 -1.401312158045735 0.32941462211995526 -1.1520732742454223
Ni 2.916203313166024 3.57391972053278 12.757279622374211 1.2514523249663931 0.20300582097470202 -0.2681007537018221
Ni 9.398896352701449 6.810519556607075 13.470056635305129 -0.8750793318190283 1.077898490704221 -0.31903302177531506
Ni 1.0913486321074537 3.397755761782366 2.369595390124645 -0.4451816272806462 0.6118886138243139 -0.4855132370201574
Ni 3.3137033745094655 1.0912468513654896 12.557325803108895 0.5570109879498278 0.7806864214587393 -0.4794351491468775
Ni 6.4340418448765835 0.7360653719717775 0.7076241315491175 0.4651053627877667 1.3125183390397783 2.2279110257658727
Ni 7.039887085020544 4.154939712432222 11.415661398571752 -0.9790094922457915 0.30353004104370956 0.5962071985333152
Ni 0.3206010096716721 7.986179654239703 11.203234812018472 -0.4372099219290793 -1.0663465242005636 -1.2287039755262839
Ni 7.862099676990737 1.751507777281348 7.793516111937436 0.36202418062486036 1.0194984534987734 1.1179508786404164
Ni 2.9097356096539415 2.182373416399567 3.0906055398009866 0.9673163721785792 -1.0157487566483538 0.16733202172217634
Ni 1.6881538918060564 9.188089930504344 3.4184949758767607 0.08188089393620739 -1.6814083935465367 -2.548602409080217
P 2.90820889852448 2.277492146162383 0.8994771290335617 0.4107712681215765 -0.2966924492965858 1.2597485035369143
Ni 2.2675916558076934 0.011423500366261932 9.953786452300289 -0.5602030125245643 -0.19011199573116938 0.019524700296488954
P 0.387476508818922 4.767826329361153 3.9918795615699505 -0.6662849291870074 0.12432800735682459 0.08580594002222641
Ni 0.827252589256362 7.488527342803584 5.549269257218418 2.0917410314687976 -1.5108552937839013 -0.4415627995811363
P 6.516465740278059 3.607655410096518 9.154364419014803 -1.14773402344012 0.4371880675522084 -0.47247671555117343
P 7.115186328484532 8.084999501892122 13.576933816603216 0.06905263182328754 -1.8796178215738597 -0.5481908185550365
P 2.1234238612129035 6.129874723914225 0.855061863799372 -1.1732532507571471 0.20826758359427355 -0.35425147865797696
Ni 5.650339384547716 6.915705327029614 1.4251617073655387 0.7372818292208592 0.7357029147695137 -1.9582624679609562
