# total energy = -340858.67850967887 ev
CRYSTAL
PRIMVEC
9.36300023175334 0.00000000000000 0.00000000000000
0.00000000000000 9.36300023175334 0.00000000000000
0.00000000000000 0.00000000000000 13.70369726573834
PRIMCOORD
 96 1
Ni 4.084112559446932 0.6316307963925883 0.07789922462406328 2.21984341826639 -0.801394086319736 0.14285923339179268
Ni 7.204341709459999 7.031566268410486 8.521479877484275 -1.963936121306966 -2.3194261003577346 1.6645098180189852
Ni 4.696761745714356 4.18917478369321 3.5148608786943027 0.7826481731708005 -0.18761905410598656 -0.08891697484738235
Ni 8.467026541438333 1.7739140010426842 2.670795781681757 -0.4131680504885271 -0.3986773130715198 -1.570397415013592
Ni 2.9927799925012275 6.481789627888876 11.617624582311644 1.9885624044960784 0.9659097216390398 0.6778122131003165
Ni 7.654561569800637 5.415624805241718 5.5075160972317585 0.5034590228653006 -0.30488218419622976 0.058847923376143814
Ni 6.260953907269258 9.132829479336282 12.3663125423928 -0.38468254145432457 0.06506613637171375 0.8685554146575817
Ni 5.485266800067831 2.7441080725514087 12.53855429243598 0.6100477039608332 -0.5579862073789035 2.084295888044662
Ni 5.4060651821283185 2.550799572258327 7.873212902494343 0.31142975550676044 0.4860518831324468 -0.8021415060087218
Ni 8.37474481234366 7.476776923691704 12.856822328511369 0.754844777805287 1.1673695382828604 1.3675867407688318
Ni 7.830557882888357 4.007570033538962 3.564619606484555 -2.5755979638324544 -1.1184422164545382 -1.0575201841581852
Ni 6.65247711991362 4.676977726479671 11.51666896991408 -1.6122493180523718 0.19277925815068733 -0.46522311931255367
Ni 1.921858765797648 4.031520587823071 1.025983507670515 -0.6680512770588107 0.041884556048927865 -0.297016665405224
Ni 8.284831922277087 9.02764553608856 8.706835445483016 0.2099827665131674 0.8415776005171571 -1.0381188968134378
Ni 0.2600713725850423 3.4112124674647952 5.115836522485542 -0.45649962339662675 0.3322202098895504 1.0667152203938919
Ni 1.0152113760427328 4.89896509611295 9.63076599714295 2.275119050910243 -1.4744117062448865 -1.0003712457510192
Ni 1.8793975602939608 2.606500059919062 7.0640502609958205 0.343580372097376 1.0468218239040745 0.12614500596090533
Ni -0.03637057393143833 6.9205491760935685 9.49368793031689 1.136298527909669 1.2518829847459085 0.7956037048902039
Ni 4.6204532948091614 8.688723658068168 4.5221792456434065 -0.10993008676393971 -1.0238775564030753 0.39542075380743513
Ni 3.402973027367057 6.891926484754038 0.2812617144364083 2.1991342107434964 -1.0589741429958923 0.40171301457405006
Ni 9.306391412395124 7.504978280026236 5.483246264643863 0.4655535060687789 0.13939235788911478 -1.8872683961405823
Ni 7.148762940800706 5.772963704480576 1.8864095110771388 -0.2084521888012539 -0.7914914824940434 -1.2079430888298488
Ni 6.044612426702952 5.848410759375551 13.615308668208755 -0.08279235000688322 1.6263415344793797 -0.9153453784279267
Ni 5.943173683499656 4.949787460715819 7.166499271911101 -0.028860890095750293 0.21017379947805093 0.5461586186163562
P 9.19953149212752 7.252064921026105 1.277600091155264 -0.6328523605601746 -0.6629064996330777 0.5562358003467002
P 8.271583277119928 1.1148149712242597 12.932411701008032 0.8233862743201109 -0.35734323020942327 0.24604325968115046
P 3.000298481590414 5.250826640286834 2.1484658396857275 1.9076436173628244 0.9081645444087715 1.269609198381078
P 4.387857646050045 1.1226986173177778 11.735324984107843 0.8490998770361312 0.9613627256983055 -1.3336386659581614
P 0.5361590931600753 3.2780799688855384 2.9713040791464738 0.10908342249292825 0.9416896727494105 -1.5396166821873096
P 5.435315194475291 8.322705257726353 0.6517200494308929 0.16702117534997687 -0.8488592217802349 0.6551296839011362
P 2.0973962918799254 0.9420395301747471 0.444786511376187 -1.520021019443569 -0.513726980450212 0.31910655532572785
P 5.765023880386392 6.269858120374882 4.972345736883413 0.22711145577365402 0.5668559990647076 -1.0480022173654209
Ni 3.0283125779227253 2.907136630485301 13.132581407782503 0.32705486363852704 -0.8301788717619123 -1.2298830834360497
Ni 0.1241178020723215 0.8583006023814116 5.4906055827311615 -0.06830006992797914 -1.284868952753626 -0.40629317774556484
Ni 3.9929824793659208 6.504597896159434 6.141298511049871 -0.6671295365754898 0.7525747508241879 0.13630034922735235
Ni 3.998534738431783 4.983541076116215 9.750988791169068 -0.7165227422966369 -0.9994189091400789 0.6775928980006588
Ni 6.126782115677672 8.981982184546887 9.930631056500037 -1.0326159647173379 1.3671619945265876 -1.5987631106404787
Ni 8.970315886408498 4.426976260514081 7.604729810609519 -0.15177427649323538 -0.1486385590777311 -0.6986283785147194
Ni 1.7214718374206 4.713081454907944 11.798760246160327 2.962890174995484 -4.022512235988021 1.4597841861396987
Ni 1.2596886719427935 1.4762267755114318 9.561755068524322 -0.13380020851331798 0.09399207537744458 -1.1305266584228981
Ni 7.40440093283316 7.34585409313866 10.837281255154984 -0.9732556204811496 -1.5854417109412244 0.43411148550941364
Ni 7.070591252873412 0.7153294632854463 6.443615740136045 1.4041390859715688 0.14345110133952071 1.7379297256720327
Ni 3.444366850858082 2.10015837691269 1.909733680653817 0.23172684305847832 0.3429576509117126 0.9861265629065469
Ni 1.107137311133185 8.351805462071548 7.683251674740968 -0.9548508927217166 1.2693430892038848 0.05249447035429024
Ni 7.408614282883139 3.636963763142723 0.7670534847990117 -1.534912077622789 -0.9275352356258993 0.15368640591428367
Ni 8.261255887997422 0.3027797612916617 10.889053964269127 1.5134726768020903 -0.20154440593782708 0.5515468795114631
Ni 7.461281158507889 7.110318462344668 3.470502729368113 -0.5236146718775692 2.0296069811422144 2.6247643982547766
Ni 6.813942056828964 1.3191530856481777 0.7337577201040477 -0.8108822283158292 -1.1015881210116771 0.26252403094499305
Ni 5.399305096048129 2.6219958251028777 10.262397729835548 -0.09170944999085495 0.21560782600942868 -1.1747935986610736
Ni 0.25081604697525295 2.9344765908096155 12.158810670231352 -1.6619960504581957 2.4594211248278546 0.6646635915335005
Ni 7.5422149314679485 2.4614765511987513 11.417550378138305 -0.4527062177924655 0.13442421525056206 -0.632421186560027
Ni 2.256286403764726 8.065213391671909 5.156906386172725 0.18736220090017408 -1.6643408965412883 -0.35506060482283364
Ni 9.180636957903388 0.15671976845905553 1.138695303007535 -0.33541737667060945 -2.502686620384709 -0.8841090461214645
Ni 7.190269120293065 7.686611119180819 6.4485079076940774 -1.6516740997068975 0.34405345507905266 -3.0640358306985744
Ni 2.5282534679908784 0.6556628087776631 6.19967588044236 1.288278235545491 0.24407250910802483 -0.03038915381481863
Ni 8.328472865794769 5.12833987283386 12.859001098637213 0.24251056393754364 -0.3568516352849854 -0.013908125440659917
P 5.040168500787946 7.4540810114224785 11.012030416627908 -0.6340222124985597 0.09480634374862382 0.31357071310916323
P 0.3109096542881008 5.959615111694689 11.44340911184505 -2.798750949178993 2.334085759252438 -0.416370873696541
P 6.118186881575713 3.4273917316567184 5.473667915530242 1.0524545967098198 0.5729328013864069 0.059488128063304
P 8.977843738497796 6.871515144511913 7.337082834634613 -0.3580194303408415 -2.0167864323387783 1.4800349659689351
P 2.9063969534765266 1.614387205150331 4.1013386070512725 2.1260480322807838 0.6595355262783158 1.5127897918024527
P 5.690756563505411 2.6568074595158233 2.0903478253963144 0.28077757783854224 -0.11986431515851614 6.787712345794761e-05
P 8.192278666179195 9.188651685998462 3.865141012149428 -0.5678371320310542 0.6267035673499595 0.2531053087342544
P 6.157005880036196 5.087461014348944 9.44075140028894 0.956932972061726 0.17489903543615684 -1.186727373984182
Ni 7.226925265727891 1.8957266324876612 4.39110286188854 -1.8623369230062252 -0.5941012079339059 1.6558716827280129
Ni 1.9759862694397243 8.116073208275223 1.5602484659081215 -0.02145919831504046 1.0019663581522809 -0.5000057742093775
Ni 8.302565444487449 4.176918616547824 9.85043696054875 -1.6291725761702716 0.5234339233253308 0.8673588232463191
Ni 0.5896545942946544 7.9970413878632325 3.360242167460171 -0.8583604764024506 -1.2881507088286914 -0.8867061174246793
Ni 2.072237910581489 8.421756435901326 12.919639632556526 -0.9526186609570885 0.6563915813326954 -1.0130064180165264
Ni 9.156536595617503 4.910378593248341 1.2877346024754828 0.8105739530467911 -0.38198134047307764 1.6058940652583054
Ni 1.1954491281807658 0.7720664350584768 3.3275184820719925 0.24509426550431984 1.0884287008115834 -1.006663249407318
Ni 0.48850048629473497 2.2554999117553964 0.8113479657244458 -0.44310134771284976 1.4415985163696077 -0.49986102110139724
Ni 4.167124918431648 0.9399796701503125 9.029831796614493 -0.5123540113620854 -0.30057172974633395 -0.5626363045564052
Ni 4.058757555146164 3.161388898501315 5.7846730724194755 -2.1142235288420297 0.4415314321225687 -1.7659745476243907
Ni 4.764868208522254 6.975781513748751 8.752893915629375 0.7275404335633793 0.7128146973174305 -0.49404184331645884
Ni -0.03955773916924542 5.56521745801623 3.634412345612457 2.396901923247711 1.2960895040597935 0.8198291530964721
Ni 3.119845267008513 9.135451119367382 10.868813030629024 0.08818703865989329 -1.3309778312965466 -0.7836794426487923
Ni 3.4626996050755507 4.567842597185078 7.266056052092072 0.40112577461201243 0.3532289509307336 1.289100217226154
Ni 2.2979330282587505 4.108821516740037 4.104709287091256 1.1159179073707877 -1.19964408204585 -1.551816052466979
Ni 5.123649009778216 1.3461091629679387 5.578035405168279 -0.33267118138404 -1.7810923771024358 -0.42921816197285434
Ni 2.5515767012675457 7.135027419637772 9.474681040091426 -1.0480713800404595 0.5355862424171486 -0.7033291264244985
Ni 7.8805469404813415 2.1554188035682054 8.831142380157582 0.2323894163431417 -0.6215999275748069 -0.6885715084993497
Ni 4.60797241566111 4.280791739779998 0.7817477771733198 -0.17513763380952416 -0.7132990931530168 1.6212895738777693
Ni 4.800728498947639 6.403337049958248 2.3413314700735555 0.9980464542725844 0.9499750526866542 0.08128234112026002
Ni 1.5106732529200457 1.3778497333444548 11.880722076532583 1.7715340439900393 -2.865391372016362 0.3669956656975228
Ni 1.6114659491156782 5.8240763220868885 7.538129854519491 -0.44189524321989054 0.9695848564977817 -0.6166325562672026
Ni 1.127941897379975 6.1456111089010275 -0.10462309954106966 0.5879706695561357 1.1552902385208232 -0.3636807423916769
Ni 5.910272101109369 0.17897093822300536 2.7578276766141547 0.7576992165349467 0.1833368817908649 -0.6795443653000749
P 4.54152320387287 4.6154628157499635 12.334122548010951 -1.4806800557521016 1.3303558814418315 -0.44143912951907843
P 3.2370513023988448 7.625086845451 3.238362122414394 -0.6732531329747244 0.8456394292913565 0.3456385401779854
P 3.1164277719679734 8.166109080868763 7.492345720276386 1.7380649656983163 -0.2857763166047143 -0.545546438953654
P 9.21849156735243 2.259366830801267 6.977908787373986 -2.4890309772744876 0.19012896501203386 1.9673464325400956
P 0.9695948395016162 8.65012000861024 10.73762803607287 -0.019236993852741063 0.7973078320655043 -0.34674360031670604
P 2.8341801336198698 3.2892593910181525 8.836266750118368 0.07156459961186384 -1.1575083292180646 1.813582636420657
P 1.6661739587646405 5.5827824462245905 5.357337320650295 -0.5051019577853624 1.6640817293426309 0.7391456219024755
P 5.740857977099728 8.789160560259582 7.6221609079162915 -0.06451746295709535 0.9604240159341202 1.176264012559013
