# total energy = -340891.03803634684 ev
CRYSTAL
PRIMVEC
9.09893457696273 0.00000000000000 0.00000000000000

0.00000000000000 9.09893457696273 0.00000000000000

0.00000000000000 0.00000000000000 13.31721048778526

PRIMCOORD
 96 1
Ni 6.477595044894802 2.0413004231548846 11.577888949123473 -0.228918941296038 1.2451623781926233 -0.6561100455365345
Ni 4.694440487729029 0.19927849052861474 6.061008525454808 -0.2511846946727739 0.6296012006127286 -0.7749464336511686
Ni 2.7801611878763897 1.5231707064411992 4.956438842515144 0.43330904421277633 -1.3478818061407367 0.7448223605722785
Ni 3.3586259381586414 4.549412573379854 5.084710159394877 0.4406210044931573 -0.656471028420379 -0.2521123486933658
Ni 5.092427875496952 4.423947367848718 2.6897032223017767 0.6679098663849401 0.5841736644075488 -0.6121220699913588
Ni 7.1322360734210655 6.236955528564252 2.560566596766883 -0.41110294042938234 -0.11248550619594175 -0.30928108459487386
Ni 5.0793527068590345 4.684750122663349 11.52609872478794 -0.9447243458106762 0.0700641038069374 -0.43692581502975714
Ni 5.620702903993015 8.00864542846922 12.255149018510556 -0.17922388806375583 0.007267223085374581 1.6230160696505729
Ni 1.8779381561227564 6.512744228226936 0.5200714293005549 1.2912753705006021 -0.2684787058665312 -0.3155013544729728
Ni 2.7809800919664474 1.5713768605425813 0.4992093926596246 0.6781935076991352 0.3240883248110354 -0.14759597674582967
Ni 0.5594588962454518 9.033412907832785 4.8231603820714275 0.20156394632185287 1.093666295061439 -0.48482469559356506
Ni 8.537930438676355 2.2016145471851325 1.3853491480845297 1.316458811744765 1.3681811798197212 -0.817675597088579
Ni 6.840242171709579 0.6639483284564828 4.605371019533781 1.0157762674521795 -0.035115869866526615 1.2049194715121765
Ni 0.8825302081746185 7.4976401773390355 2.588826067021332 0.4621717340807396 0.22110972966426434 0.21209518487047987
Ni 7.8394416455946825 3.729653183495006 3.523440395110472 -0.10226537112983033 0.795941547845597 0.6100019383245624
Ni 7.9547615393434405 4.011228805394095 12.624435637708832 -0.7539443774782046 -0.8052679674528453 0.35554191533462637
Ni 7.856420257061874 9.096159158999855 6.877380382087118 0.8225013006119963 0.3612870453485197 0.3043121706253727
Ni 6.899731004385086 0.6178913426447846 0.29417855584507296 0.07442469476847827 0.24206113510495084 -0.07796433249062058
Ni 1.6228950267415292 6.500706338103091 9.130425745701592 1.020887877647132 0.9189441515227788 0.6034867629138638
Ni -0.18979103169858244 5.088997577253045 1.4952697341995083 0.7720192327020446 -1.7854406267688023 -0.09209588679599622
Ni 6.196701843070762 2.218120014066957 6.999619105503428 1.0208269425022096 -1.3285013447315959 1.596273768559722
Ni 3.6350060685530328 4.107704806137197 0.6505692554118107 -0.6134315328314015 1.3970004180442586 -0.45732263351855434
Ni 6.147067156278946 5.435703371114704 4.566857960178377 0.02633735234294819 0.5369936642876365 1.538103845087209
Ni 5.342639470746841 3.116421405122648 9.218012997493837 0.035033080344733215 -1.0022268109025192 0.7267441629143291
P 0.3303104240852746 5.59553525162525 12.647674315997795 -0.036568543152653156 -0.022071892198374892 -0.9590842140767739
P 3.992548693206451 6.356342645960296 12.730626570640316 -0.6258126801045738 -1.0351528722065784 0.5560452816024488
P 2.6612472150657136 8.619302208425065 1.4726970979037912 -1.0521800028921944 -0.33982604726126636 0.8808136631996445
P 6.4198714054800865 7.797977801834774 5.906901694427195 -1.224447257132459 0.42026326677241177 -0.15582453530320906
P 4.783864814363303 0.9881533676036623 12.488027143854229 -0.6147571936213606 -0.16943775521126947 0.8050046864891297
P 4.046814737574259 6.205327632819367 8.206637329683012 0.21508666339863602 0.4408171796643634 -0.3758981103934752
P 4.852516273913119 1.1836439717690448 3.8990262065481565 -0.5994894688290127 -1.364381603567973 -0.7909314962255153
P -0.012895919631538114 5.747614840083254 3.7319879700451035 -0.14361153817678493 -0.7531591625727481 -1.38059575143399
Ni 1.7707163139312336 1.136183930283048 2.8039922067904954 -1.0335251067951685 -0.5799755671658012 -1.1282453185878891
Ni 1.731399818674142 6.4006726540354055 4.795713446653001 0.9956149620129564 1.0318250933849262 0.6961894300559236
Ni 6.066459697014291 5.831261343415456 9.247364339868362 -0.12514587527242962 -0.10496811477297407 0.22614677786753956
Ni 8.680265068462676 2.3395452927538094 10.130707992772438 0.2850713201178897 0.727279980813141 2.0251880261389124
Ni 2.2242890915453897 5.181642926641545 7.1123094072296675 -0.5014196238377687 0.5558725034700104 -0.21923822367316434
Ni 0.5740554067040092 -0.028796307380153686 9.149389744640455 -0.03886556671694597 0.40300576524354464 0.24132117161513278
Ni 1.38198254238096 1.0735650641966548 11.318150769625916 0.006010467860138036 0.6399573470360721 0.8056502904929286
Ni 3.942777522399626 6.745540463161602 1.9600132734954814 0.25241985263145555 0.041613818886044464 -1.9964034978070524
Ni 5.79622134729533 8.068225250488068 8.097635735935764 -0.7034255427930466 -1.0891113287009049 -0.6309286611749004
Ni 5.475975254476862 2.9285466089948002 4.968904382552686 -1.13898815892669 0.7666404848886346 -1.3665228182806917
Ni 0.6480825166583363 7.385896164783529 6.778792518685101 -0.8270071589021499 -0.4163287076046959 0.9697002990297234
Ni 5.2812307629268656 4.545672911368592 7.197805723911967 -0.2137581743951996 0.8771549834011344 -0.4345069211756194
Ni 8.077615350720727 7.507075772243364 9.003765850092407 0.270543815925676 -1.3080559323930505 -0.6121873760116553
Ni 4.384903840621646 0.16834029400624412 10.303538610872497 0.6434291076347565 0.6011966813281066 0.42217436775219547
Ni 8.069908553339852 7.409362316430842 4.707646681021355 0.2345630269556928 -0.5085996865259758 -0.7558315671985887
Ni 7.526793162945081 6.0852671942826095 6.705481494862857 -0.6716073698411853 -0.6361099482655239 1.0523406968397748
Ni 2.023848667102327 5.229776289268255 2.705151393013994 0.9735001323917879 0.4479751308653834 -0.010901220293536065
Ni 2.3821283054367974 5.512907828938453 11.320494655110348 -0.5686429157618014 -1.278220851309489 1.080735960153016
Ni 1.1144010814875198 3.2184113600721376 3.83294610584112 -0.08675313442684415 0.035053392059707374 -0.08532694350327885
Ni 3.559503111449735 2.8082314002966924 3.143500743593982 0.00948762777546108 0.024062954486474688 -0.6727013742363124
Ni 1.0336662371421887 3.1227997580907627 8.182746257802302 -0.22781928047395603 2.288979096721787 0.7241023544161078
Ni 3.471734790864244 2.9759247600717913 7.1065825379598655 0.9132422160419948 -1.1973195476777316 0.3615413274511709
Ni 4.347134164201329 6.955289097428317 5.916237201053851 -0.571803315767654 -0.6301814985962308 1.0396857270799256
Ni 0.6464683657074896 7.417469466922411 11.501115780787154 -0.13262290037576516 0.3324341256725694 -0.7322383532596809
P -0.010536565958739247 5.633304928045567 8.132487384115176 0.5259415202385329 -0.7625388040154352 0.11665583552354747
P 8.474720141858255 1.6745223801524847 8.20579840793742 -0.542229201654963 -0.38343761330363 -1.9636674410266117
P 1.9113767398001025 3.255671496169752 10.593361506851899 -0.5013833712831945 0.4229724381734586 -0.745450995295213
P 4.124974583503075 6.170751682350274 3.9325057354300053 -0.6637917304515084 -0.7821200685814724 -0.15321666536671674
P 6.8860189103437905 4.070517461514255 10.659827402374695 0.7201747372269275 0.1391041372247346 -0.9179519628128384
P 6.515910657375158 7.94786454711829 10.329360476618877 -1.040456800917995 -1.0811015710225511 -0.12337438519430365
P 2.2613763478906583 8.503882226398634 6.050128019778245 1.7941584662577745 0.426640116833033 -0.8451372928439574
P 6.921668535064293 3.9491012817617364 1.4260204746639498 0.5342202153075574 0.44834228439681495 0.9829324814492812
Ni 5.486893975677628 2.7877133033735864 0.39962519594803775 -0.511093656592423 -0.5085228105414532 -0.32850830825560196
Ni 1.5047544633492405 1.1037007347107692 7.317114590472737 0.19801222441485253 -1.1551632260246558 -2.2784738263150888
Ni 6.72723340728165 0.7808195905091824 9.346151469932295 -0.7083633464142962 1.4872188853118837 -1.650334040739235
Ni 2.7651843419626725 1.6587084322800418 9.269431075415111 0.6586952897652075 0.1918012105081342 0.12089095665081762
Ni 6.562815663866782 1.9401020754924512 2.5947785898626163 -1.7072389814563953 -0.18512225582606184 -0.3851206574330077
Ni 4.195236554430005 6.888985162936666 10.622552707982146 -0.10678459915642254 0.04965442980233384 -1.5029380958193534
Ni 8.471035073452995 7.201187797803903 0.6353121623206069 -1.0143619036031561 0.39287227635396854 -1.0111014876843296
Ni 7.67226692507662 3.9415491662645397 8.614277776885846 -0.2055149605498009 0.12337618496651655 -1.5744713279726497
Ni 2.9325501401017484 8.589630583561984 12.475082999870722 2.1651470551647747 -0.8948475155848912 -1.003196116794324
Ni 0.12988182825684585 4.771171800967413 10.377955155216318 0.2452971255437453 0.17552381350434934 0.22179184333295351
Ni 8.762555830579116 2.3013843621571324 5.884142529977632 -0.9771942934139235 -0.3478088083564268 0.07849295130058094
Ni 3.7932183387521325 2.6951134486567563 11.555942319509933 -0.34643892459209363 -0.1775488143541781 0.02360838344755934
Ni 1.182197241209943 3.2422414690928094 12.82976037010237 0.30362131520593516 0.23901874873420123 -0.04450476728059432
Ni 3.2516406682598022 8.35445952676615 8.145365105878048 -0.5906932106936215 -0.5506513642803872 -0.23193150287011668
Ni 5.578556640158059 7.846729891996194 3.6240391230002964 0.17188184587638786 0.4952926850044244 0.3383008688659916
Ni 3.0673235554565372 8.26735542838704 3.764016218900684 0.3144623716854971 0.418602334130221 0.6337098234644635
Ni 3.3830838736483577 4.423801784899374 9.116416116507576 -0.508676305400182 -0.35490865262600163 1.48638764765984
Ni 7.4034298112450925 6.189923136991952 11.432931096568671 -0.004430267857211725 0.2146045815558949 0.3272350979701332
Ni 0.9390009243315471 8.829405701130806 0.16967965714020475 -1.595362312489046 1.7081779483308968 0.7488085989135361
Ni 4.728497798941086 0.09987900218400753 1.566716386376721 0.4015376653384504 0.9718862509374487 -0.08343641134878534
Ni 5.9160543124737375 5.550058777824059 0.27005182156511354 0.16821725254060707 1.1449207223610411 0.7834601275491345
Ni 7.981221240386631 0.3016942756049336 11.154708431971649 1.544950178585081 -2.3487204784464777 1.069136685351191
Ni 0.2484482217759645 4.6939309474063275 5.617198904381004 -1.2023897631117872 0.06228420275120241 0.9290491011672646
Ni 7.945407834848118 8.695087232492716 2.5684371749657684 -0.2928270528039086 0.6684847650518035 -0.18255552354015012
P 8.681393336320088 1.542223874936536 3.380440633224339 0.026149147591542066 -0.6337954411997343 2.3050716314082753
P 1.9241425446706648 3.364640333753397 1.7125395475866854 -0.3362817815534338 -1.3520084267146006 -0.7455846926595998
P 4.705786858843492 0.9318764587480471 8.100645663413443 0.04543859194877336 2.0624625942196544 1.315267105429509
P 8.611076771787154 1.6602825479198189 12.65049771532163 0.7360114471488679 0.04584585468952104 -0.9228249746344237
P 6.411473089089831 7.838295179868602 1.149008878226781 -0.13211844993552085 -1.6235313187240945 0.8297883211917128
P 1.7174602512744974 3.069762069858042 5.950302701306807 -0.10303001720999674 0.6592617037916387 0.6802131092323254
P 7.039026590103859 3.972076090955015 6.00692718945398 1.312267913591869 0.32247727157017364 -0.265307250117085
P 2.276589766097059 8.44041715941918 10.25285390705854 0.7692447552807009 -0.38390066898297753 0.30417410238561166
