# total energy = -340867.43742624624 ev
CRYSTAL
PRIMVEC
9.29947611893045 0.00000000000000 0.00000000000000
0.00000000000000 9.29947611893045 0.00000000000000
0.00000000000000 0.00000000000000 13.61072330550754
PRIMCOORD
 96 1
Ni 5.120868103466873 7.9100320691454735 11.3394742631961 -1.2886613299165226 0.14691386307714052 -0.5073802122965778
Ni 0.37034512570850325 3.797534056702174 9.307352747693704 0.0050910413696622 -1.4363760916284036 1.4730353947226502
Ni 5.830399530291887 0.9815968993563063 9.53179374326549 0.6124822815442548 0.5670159216813395 1.4017960396606888
Ni 8.925451163046361 5.148896724406486 11.327265910983254 -0.05595568943001332 0.1864096071789177 0.48379214056399256
Ni 6.374725764352394 7.013832258736899 7.112732186969409 0.7555117219653247 0.6466363017181443 0.20099753229542155
Ni 2.8289192259695235 6.477773258921687 11.609198127647568 -1.0832661827740377 0.5945478085530213 -0.513195019206142
Ni 7.460355902743687 2.2854113458050644 3.6878932335840457 -1.7007811416461938 -0.2179902101986762 -0.3408673440415871
Ni 8.47799757143043 3.728522644627566 1.9548400793396683 0.15786959075769583 -1.0454804793848316 0.002988650314678724
Ni 6.047951473975133 3.1364436008374934 1.7528573185287173 -0.9001948959397336 -1.0969994731997301 0.7564969686967294
Ni 9.026303981258074 6.902675621015866 6.765305620088269 0.12241382105324723 -0.29999348864536074 -1.0987154274495723
Ni 7.24731420496479 0.22655011674932823 7.637861512534347 0.8786950741947447 0.27819104805828865 -0.6968373480525677
Ni -0.001662746325150232 1.289976826024689 2.7432143243631644 0.761020824709012 -0.7516512105686538 -2.2830701874365196
Ni 1.8022849639023528 5.299566836040066 7.9122806824643845 0.3490372814468892 0.22665919872758383 -0.7813873041805058
Ni 2.0070222295315894 8.45268439750952 1.8122130845775788 -0.39489084944589414 0.9906218796737389 -0.2716090239653967
Ni 7.846646840106189 7.536518611932615 4.846506590288603 -0.06861631561681732 -0.8119029562708598 -0.1978733848441431
Ni 0.002006826940533669 6.2897471518287755 8.873838140791237 1.005991420151274 1.2093924196818655 2.3734542337477316
Ni 4.383029071419504 3.5913367733265806 3.752585039014178 1.9134198577249693 0.6373196523029088 0.026437111145606082
Ni 4.848663138794209 -0.0019835782503050585 7.567630009196542 2.3042041412016574 0.047928962470794874 -2.1172363475264246
Ni 5.742119603755807 7.986873640089076 3.928326538190291 -0.8335200203200032 0.4362331598381068 -0.8504913580670191
Ni 5.619385118300925 2.409224570486553 7.426745736253989 0.14023747949822946 -0.393667004341122 1.6070587749903678
Ni 7.642151360855331 1.4168867762446287 0.9410111958504161 2.5558709177171726 0.015071292510825656 0.3653547876599902
Ni 7.770121451349694 8.555703993650539 2.742356912667533 -0.21868337961095885 0.8748235070544805 -0.5403291564187727
Ni 2.4729724790934036 0.886072680944991 6.129793373213107 -0.7574202518419472 0.27945654503427353 -0.8858977625907709
Ni 5.372809509736281 4.727658355892337 6.868487957060889 0.9571857115024806 0.10516943215050274 0.24542259537801606
P 3.3524983288700176 7.6468196978532355 13.323577933900326 0.27849855199637846 0.9342201038452427 0.3606283287185983
P 0.5934404870898599 8.592650812161846 7.756873417709822 -0.20270037391914122 0.7899387932949429 0.9913204484026604
P 1.6831028783144035 5.128223989055206 10.320317709854061 0.02680246490482481 0.07345153222193156 0.032619842917550275
P 2.6714325983609153 1.3852127606771698 1.822149574781287 -1.2806189192280202 0.4570282422065871 -1.28283778125621
P 3.5403012485367347 1.629547195503776 7.9466069086131235 -0.6330081694117484 1.0279604682231973 -0.29253677525699945
P 0.8702663614323631 0.5492456569128803 11.405242018010012 0.99865374883928 0.6618757443757182 -0.34090822458185155
P 6.636580412135281 6.8722012378642034 1.8458316205957588 -0.1818009047623127 0.03476002918900465 -1.108982356593219
P 0.7709739953087946 1.5838867678947846 4.549928628727872 -0.05341492528603058 0.6236699227299581 3.442019362866169
Ni 0.842719453354287 8.524504251363743 4.651627699263906 -0.08584656345217474 0.24090131046889482 -2.1853944925599005
Ni 9.178359714829279 1.824268925382527 7.425507046038608 -1.0084151991014179 -1.0198393817779599 -0.1963860016653392
Ni 3.626247006573862 5.8146183193647065 9.220257574411672 0.22612852303509445 0.1328103337962229 0.7464807221113079
Ni 4.747215154112643 2.7711880783938376 11.217373072063047 -0.896932680248694 -0.8584031567149281 0.2131485658356587
Ni 8.713497503970165 3.288908511356722 5.289753098920765 0.3213729827624014 -0.5661044656106637 1.089721194370762
Ni 6.13620350208294 9.043508012027246 0.23551202185865305 -0.7413295169276716 -0.5684760511666339 -0.6676581553854501
Ni 1.10924150818747 7.574767357096724 12.88197836248396 0.22563795655192107 0.919128756729759 0.36954671425415064
Ni 4.760680795493054 6.082573423463581 4.955146789779291 0.6337666448443279 0.1388205445460448 -1.668706886819468
Ni 2.78259853555804 3.908169923762086 1.8943265285174224 1.910580331393645 -2.227806638977525 -0.705607895156346
Ni 1.0629208177759863 2.4088525914428955 0.5417009919598916 -0.13844233527101965 0.2476324585451413 -0.1250250334238492
Ni 8.334636848004726 2.342742615908818 10.972393253595694 0.668879429387061 1.5981961823934152 1.4939312643350529
Ni 8.451159283430522 0.587265634965141 9.70626958374556 1.146963978043315 -1.3004678356331474 -1.3768892491166802
Ni 1.664169144992223 8.22333141866623 10.1965277338628 -0.21004524431998664 -0.600235860076734 -0.2085385778674731
Ni 1.773317095877504 2.9772458696280593 7.4997122155102875 0.9555008676008899 1.14307518451187 -1.4427123182590766
Ni 8.163284701543775 7.104306861630561 13.25491153238871 -1.5610949066657438 -0.608699674573371 -0.059261613874794714
Ni 2.5540732100868886 0.593576259440795 13.060577590662971 -0.5620120407088449 -0.9287567667378263 -0.6529401324489852
Ni 8.41193409327681 9.428924798637153 12.460222013151515 -0.5624252169868637 0.5959292622815802 1.0284433213968869
Ni 2.798612233387507 8.890792015653549 8.197493754293761 -2.3000086150630707 -1.7305511738197743 -0.37571067697301747
Ni 2.7081934273503943 2.0193068374483873 3.8701136777530687 -0.9929281592094126 0.2877889761593689 -0.5735233837825543
Ni 0.04557859221938655 6.760561027386416 1.7441325500597245 -0.08656955766112834 0.6105724661160516 1.2040604659459908
Ni 3.4763673504080552 0.4029221204044416 10.138001481081295 2.863608569084326 0.2261534627357589 2.8103257985007857
Ni 6.949368290471008 4.822819894736085 0.4850578830869047 1.5352108398101303 1.9113735167189019 0.05288630647607021
Ni 2.5870212538788757 6.125685794623516 1.0813012322707258 -0.011013320391368129 -0.23545160020823322 -0.2557214062008628
Ni 4.638997150836507 1.3596206024735151 4.937915790529455 1.8649429931705044 -2.4960493175738496 0.18189886379275771
P 7.514506752024166 2.4351050124490423 8.798243629591497 0.5662839286113215 -0.01321109937363531 -0.007252310687039122
P 6.301315700086532 8.923656364160713 5.790627530943998 -0.08951552766332971 0.37018871871352377 -0.10793439649014959
P 6.093398013634022 2.840301784705451 5.422893698121973 0.5073861258338488 1.05731398168465 -1.4877235928624444
P 7.319208454627745 5.611694451573301 5.710678075090634 0.31989871220972005 -1.3103213313884594 -0.02634532276274818
P 5.107458258943011 0.7480042893629273 11.770390596478617 0.12785916043853465 -0.12121748675230093 0.8961934880898244
P 1.0525612014101173 4.60437520134806 2.550431535249479 -1.9495808810265587 1.8300950322533838 0.6912390280291837
P 5.112386981271476 4.216754438904481 9.070607615305324 1.664030307279405 0.4751066969748527 0.7683111877228381
P 4.095665960717785 5.534267013635936 2.814520847137141 -0.1276563003991092 0.5124897656090013 -0.03620498916564732
Ni 4.112088835495276 0.13354884620162172 2.852875606328693 -0.07569507684046964 2.4258600010429574 0.25726689631111177
Ni 3.2866580381425927 3.176096566891412 9.475390560875665 0.4872425610064383 1.4456575169303296 -1.0725135722432237
Ni 8.708048010980578 5.224334074460282 3.8924352102153628 1.899461338662348 0.7950930838023725 0.6267007391364819
Ni 1.7382859694410335 1.4703773627226162 9.29074760318482 -3.28593848857778 -0.7646735909702508 -0.6210173155984595
Ni 6.583415307320493 2.2907120471771876 12.738670646071974 -2.0597030291966463 -0.540115754856386 -0.6695821118810404
Ni 7.242831857488714 5.600479283407019 9.319956327640437 -1.3419664690975663 -0.15614335209520852 -0.06930665681562258
Ni 3.6581628085196987 3.0797353956318667 5.951288999690225 -0.5965694669687402 0.4873536326630058 1.1317487037554574
Ni 4.018285020160877 7.099173550828083 6.95369161690592 1.021389499873899 -1.3539614366759134 1.140812099509306
Ni 6.874916684882906 8.005732977602525 9.447108064238755 -0.8269320826898404 -0.3888014487187046 0.1915924369314378
Ni 4.194705381091667 1.8816838907711038 0.4318072230920766 1.4468831618073146 0.7684667394640959 -0.4435183806456104
Ni 1.199483624178845 4.9564347672179565 5.6409775718376505 0.128263852076121 0.11857567825407965 -0.4424035503148768
Ni 0.5601734712679365 4.9947951060951645 0.3601426704885798 -0.3189692584169152 -0.8425749314334198 -1.4282732600156112
Ni 8.403843549077253 0.436491369199337 5.316498392159759 -1.3233753363589402 1.3986538944872815 0.7336488604539624
Ni 5.411272142850494 6.47231446645601 13.40369013058529 -0.1455349804517429 0.45429027445013376 -0.48017434130574727
Ni 2.141613547003062 7.798280264954587 6.251118988040135 -1.542380618085692 -1.3315463022055067 -0.27835611288124323
Ni 2.0890715070864023 2.5586764507521536 11.2457513533037 -1.1070895104458804 -0.10807143628864613 2.590134466885733
Ni 6.645228924900324 4.052469894273027 10.934473709885221 0.2177449269570895 0.40570876599700456 -0.2121036695109121
Ni 4.486290453938901 5.108955474593733 11.492391128253374 1.9991856885378796 -0.6884396109071756 -0.02417916834936481
Ni 4.381996829573353 7.625821480838753 1.7005235868765058 1.1081115239524917 -2.1814139106455976 -0.5294850146154172
Ni 8.816052126306612 7.814479952305883 10.738207337027681 -0.9008600403275582 -1.3787473853713414 1.334372201690076
Ni 2.080209106371256 6.685086479428254 3.4916947469019735 -0.29475306618202785 -1.4295940357095638 0.23166925034766553
Ni 8.669483083629359 4.455062813223831 7.497207866598862 -1.1479574523048357 0.19521306440316058 -2.1657042132198248
Ni 6.647563093399276 5.18150068758309 3.231798568783945 -2.2748480566370435 -0.012503531783649435 -0.10974522444664327
Ni 2.7927814618781714 4.194379899428466 12.95881063395147 0.4708504928016601 -0.03600470022938315 0.18282343248955613
P 3.3128174643878254 5.162752943782738 6.109594911142491 -1.868395213385163 0.024890849704408743 1.077820586278434
P 4.667248959202314 7.684491875499675 8.982791732626207 0.4804545915503273 0.2770224816714842 1.071478189000174
P 9.234444855136779 8.941641550921567 1.1659050759078582 -0.20441555683803503 -0.31684038499937045 -1.512058570063383
P 3.12843675192276 8.33968646352238 4.323228790413472 -0.045420080006012095 -0.23427300651909977 1.1272001651528265
P 6.051345782748511 0.84158584721874 2.182275506212902 -0.18338341875808417 0.497425157966395 0.7496472927647477
P 6.8504776617145895 6.65312418010196 11.45198118484561 1.127433621319871 -0.9806771097562014 -0.028082617168829052
P 8.268303685044454 3.4226814749321477 13.119798514308508 2.86739451848932 0.30253759522345314 0.032334964687279796
P 5.122188629071858 3.9888614778075477 -0.0810905015697847 -2.093915156301981 -0.3555858811986844 -1.432663675773823
