# total energy = -381170.97608997946 ev
CRYSTAL
PRIMVEC
9.22773923055182 0.00000000000000 0.00000000000000
0.00000000000000 9.22773923055182 0.00000000000000
0.00000000000000 0.00000000000000 13.50572911808462
PRIMCOORD
 96 1
Ni 0.7605373494534658 7.6286181696841195 12.257245713827237 0.41501898765433687 -2.9089985671833514 -0.04694165885686109
Ni 4.865205554496157 6.4022516244823615 7.879971636110727 -0.6524215409413539 0.29206780604038085 1.5138485720842703
Ni 1.7139879699428906 3.899993257569456 5.9491520950177845 1.0977317233800643 -0.9738230629488455 -0.16713790343349927
Ni 7.311368494559691 0.8505760923289485 12.293157306633569 -0.91813116870318 0.6410071284568251 1.596310021114296
Ni 3.245497396384165 4.084142021873792 1.7446296008683755 0.3589036327180077 0.25899981984181847 -0.22409040955914308
Ni 2.298140774889859 6.370480518273711 0.13267182094535948 -0.3467549131706157 -2.112156619010672 -0.7687763002847147
Ni 1.3236822832431254 3.9186609740551077 0.10299079767491966 -0.27044662822617943 0.5855060100657271 0.6812832023680524
Ni 5.659630853540285 4.17985213328713 10.513507512569594 -0.23757867385356504 -0.6920664090264855 -0.7011025510868247
Ni 3.200392206971477 8.054173820286598 12.06559941138914 -1.6430251657826478 -0.3195040478744626 0.804379394200305
Ni 5.701543245175397 9.153492851610721 1.81290102964697 0.48117655731801645 -1.072821847512262 -0.8194308892167887
Ni 4.488999853357479 0.6006169373017387 11.109907373037945 3.362968996400221 -0.7125832980329148 0.5173419514949801
Ni 5.03365793435062 5.572751688581109 5.564049930476329 -0.6748155923658379 -0.18111030645319134 0.40276896664239026
Ni 4.791595878566328 7.450827317717209 10.52494714090734 -0.4334041750297439 -1.0122944795511664 -2.264894544968757
Ni 8.867765133735421 4.960334318337278 11.907218186142904 1.6158969421072882 2.4227633643955047 1.1199985051980645
Ni 5.620459100459914 2.6679055140379373 12.387954794635919 0.17922954449071068 -0.7170161369932878 0.32472338729187306
Ni 4.746739838113162 2.052452217583638 8.004359715538948 -0.7326648992741382 -1.487642603112864 -0.033729788152277396
Ni 3.917101486123286 7.483004444452488 1.163182369067029 1.9232031623639783 0.4139776908740161 -0.6751840314488501
Ni 6.476996312338902 8.475401661184792 3.943550955111336 0.38048315866099636 -0.24419026563281176 1.5754570889246868
Ni 3.838444236828329 2.6254763690052987 10.684408934418764 -0.2535017728417247 2.13903390301749 -0.6195229904411201
Ni 7.029008901507558 5.509781595996784 4.243851118796888 0.15245047662465358 1.9190235770649917 -0.07825846669227167
Ni 3.5810549061638244 0.086876396637404 2.843388508420536 -1.108116666158814 -0.39609721104916945 -0.6171665743938016
Ni 6.889051780430996 5.871638162614855 13.495964510777732 -0.8149098614179837 0.7284025244533584 -0.35929983971516183
Ni 1.4462635713278522 0.11243631156256842 7.806190324231004 0.4837959972187346 -0.7686652286281471 -1.8665208791805856
Ni 7.0854826656658325 5.580170790931313 7.135873504116079 0.8867775940925631 -0.8348184274164526 -0.4274960370754251
P 0.9420968101266237 6.059385745223396 6.395111199857251 1.0947903813635531 -0.4566752297425426 0.1294740703341383
Ni 2.1565226607498182 7.0802966762120825 2.5605786016934142 -0.7794700325531351 -1.2940297933172875 0.05119297793404732
P 0.3708886777876992 9.037629357693842 4.264852530536728 -1.0204266217399973 -0.3485595704795223 1.3305980793596246
Ni 0.49851846201147676 4.405414991307534 8.122480314474311 -1.7324805296320034 0.7145131680657759 0.06542789058650668
P 3.7883099295289973 0.34369360746893246 0.24855100201894956 0.34706524532218297 -0.3122298828105526 0.09754122618128362
P 2.285821743002392 6.494732027161157 11.05095503811939 -0.6759126820847585 -0.9848921762788134 -0.9763059772716993
P 7.540520943145059 3.5259837583702645 3.745476609517579 1.325448416837885 -1.5302259850010291 0.31868900817233503
Ni 6.693322203378516 7.052539636573505 2.1393212320296486 -0.7154076548555872 -0.4723823560651542 -1.0946147750176374
Ni 8.718100430976751 7.421750711367091 3.0710672870490274 0.9818503041286961 0.26601044683169667 -0.22369883054767925
Ni 5.302997187332929 8.179569568839996 12.63578418744618 2.97042762102311 0.1663172073044168 2.0082696531170185
Ni 5.4530494551397455 3.897778600151484 3.7401014514093776 -2.154719174963231 -0.5223419758127327 -1.9567871689670107
Ni 7.485735855267986 3.134912169313451 7.776990066175049 0.5051402672224655 0.22568655040166938 0.6596406843976124
Ni 1.2870020197579715 0.9853841349087265 2.8181995486128817 0.09776696903884452 -0.6735446960732142 -1.1114382743328792
Ni 3.0690261111287973 4.77897233128389 4.145556317621992 0.25081959802387127 0.6293559173711419 -0.28096578258994837
Ni 2.5576801687976443 7.3068561300705746 8.877167277248635 -0.36645753380586565 0.38947842018107115 1.6545089980525314
Ni 0.9899241826155681 0.00828466429106199 9.93933912148198 1.8895746756762557 -1.1431800855208505 2.9059240420230856
Ni 6.447292219720358 7.868585528660581 7.010486060527998 2.050507735850623 0.49973015195048776 0.2690764873515301
Ni 4.832133337054449 0.503764431770297 5.930973448711934 0.04536351573646381 0.8736222876575277 0.2932399719716111
Ni 2.502609021004084 0.9904963024485441 11.951192977498502 -1.2142381778099411 1.878688624891371 0.6536865236967065
Ni -0.0033994991365863636 6.19650072261356 0.7193234976789391 -0.9080483305458814 -0.012979957199435711 0.09489736080053335
Ni 6.650357849469868 6.081560002620836 11.238549440256522 1.1382060293450267 0.7460356641540894 0.5137254377883153
Ni 7.649140661757323 3.3964539826366527 0.09893797460003168 -0.2955318533295814 0.3155779733471791 2.02709552757427
Ni 6.855305938024653 6.870504024555484 9.082156890630008 0.6333863786867737 0.017067497005248025 0.35926924358754253
Ni 7.663185280882959 3.310414541948457 11.46845764068577 -1.8030483125482366 -0.5029954529653208 -2.900612142891869
Ni 3.102015278917332 0.7049208422707307 9.389533807539904 0.23431825793473837 -0.06271280564818876 -1.3367846677863107
Ni 2.040170096653137 4.336317679866822 11.362046120074007 -0.3514752014644205 -0.572809131324349 -0.2189985968585325
Ni 5.229839670625935 4.168068310275673 7.7497626987689365 -0.3750254779805348 0.865939060080657 0.7615337597896885
Ni 5.237000396277377 1.3050976164106476 3.6771101350247966 1.172474977830226 1.4063371220641523 1.2581554480181816
Ni 6.459149864645748 3.5334397716774357 5.805667209229179 0.3440745381249751 -0.15494933178710735 -0.47897055080563317
Ni 2.3299118810985093 8.100764675717175 4.495489722366059 -0.14706967192871445 -1.3562165512586772 1.0801541195076172
Ni 0.813566398552871 5.643722231087857 4.16482937380189 0.48315784941410334 0.15302897483594288 -1.1240230529764255
Ni 4.8172305381793485 2.053688734642005 1.4183847255312867 -0.7060053877050809 1.2431373773427945 -0.3392357219754351
P 8.496237896392207 8.84171522585653 9.080198764362951 -2.7262856921297303 0.18909049644519046 -1.1316913681549607
Ni 3.1101356894498946 2.502203000477456 3.3864944836732493 0.11828900025159629 -0.30645569933093675 0.8139055885231854
P 7.522102375618928 4.599714268777574 9.403930926304566 0.5148289552651392 0.8882055847883412 0.13154200860676055
Ni 4.621177990253415 6.807294010750878 3.263038405908424 -0.14124458060650513 -0.325869070860542 1.1877283044448705
P 5.116615310132139 7.711363307463082 5.532770662769252 -1.8938817876920415 -0.9652078104760088 -2.204839231548074
P 1.374453304550124 5.1261567925079 1.917462388540801 -0.4536621539478316 0.5409109970641716 1.62119984237744
P 5.10261682970271 9.086536375674047 8.985847898939893 0.4254054730949835 0.2100131055304706 -0.44894392253655585
Ni 6.748836282655671 8.917382687637225 10.482350051020507 0.3797038572928106 -0.7807666398773715 -0.9143187369356253
Ni 8.89935168515924 1.7700372580960544 10.416307121268746 -0.12539038718306791 -0.34530661075986335 -1.7242727970102305
Ni 6.547957627106407 1.977624480073923 9.700030623087367 -0.6409806460942639 -0.07102929593368412 0.5205866836845229
Ni 8.763316353260338 4.4217573175043166 5.600218054433577 -1.5919643425510905 -1.3635891895736645 0.7987977863474695
Ni 0.19481141699794519 2.059465299407214 6.859654048755271 0.1282607667523275 0.6181734183917612 0.6041894454078433
Ni 0.45624526577202024 2.1923539722247503 4.53531849048043 -0.8488808190467896 0.34102803798916753 1.359235283480343
Ni 2.666613630544121 5.213589621821569 7.737215741722204 0.5940153330883189 -0.29168445455903314 -0.37941049442210784
Ni 2.4943317389044157 1.8847657400862232 1.060074379103742 -0.46854678436914793 -0.4278919869622631 -0.5789445547981256
Ni 0.09287073604871372 1.8944548662898493 0.7257192437472563 -0.5627540610811922 -1.6319660797550086 -0.15893736990057789
Ni 0.30449786226653225 0.42653748205777986 12.284244233300157 -0.2876416519482272 2.1444532742608486 0.7203428873736755
Ni 3.700784822822913 5.177666032954222 9.950885791594931 -0.2813859008465025 0.2840284806756721 -1.0439167344421378
Ni 0.16062264310800903 3.2979201830154006 2.546438014079666 0.39589023724468597 1.1641446035876597 -0.36472152495136545
Ni 1.7884742811006678 8.624125134540824 0.9036383612896232 -0.5275916542474463 1.151614589441449 -0.9516997486872449
Ni 9.077963805918648 7.191112596763835 7.9069692328097245 0.11065693762763522 -0.7262415122462975 -1.2174708258146258
Ni 7.991895808145389 1.1042558718183506 3.0042418450095836 -0.49551559964850794 0.1907383164612586 -0.9303680770890042
Ni 8.833502537931553 9.02742347809269 6.385022512544467 -0.3495242483856368 0.8464192448801746 -0.9199471388659962
Ni 3.2044524122377585 7.374034071749046 6.708322816289577 -0.9329147547702579 0.6239560865118093 -1.9591037329153291
Ni 4.143679395460261 3.217352791697443 5.709898040284695 -1.2022900043091294 -0.8279540961964515 0.28268147972947444
Ni 2.161782472117501 2.9377153817215658 8.913970269665702 0.1906277590253233 0.29342663406112046 0.4115451701731235
Ni 7.194776009242729 1.3700701284103884 5.309642082360768 0.5641542838628285 0.0506162794949709 -0.7525557246607942
Ni 8.3916506998285 7.014632083769225 5.384936743476105 0.05306371259419893 -0.05376150999217193 0.6514869449422264
Ni 8.348797078790751 8.444497962464846 0.8124627609395819 -0.5134457017643673 1.043635712866609 -0.31309145947989947
Ni 0.0763512372584941 6.555755066765515 10.084161106686686 0.17899377433082078 -0.41517711049875594 0.8786073995769448
Ni 7.409330174347968 4.88018217528519 1.9063743370681567 0.10156088886363798 -1.2364471098068126 1.4188565946874017
Ni 4.387799237095419 5.517256064782437 12.386279959963577 0.24003664847575434 0.4292343599227704 0.3352823937546419
P 0.4785763947365669 2.6998519472921774 12.095785191996095 0.5025575940969538 0.17682350615237932 0.3434495029464666
Ni 6.93699911353008 0.8067378715141253 7.472274429262416 0.043592282768653956 0.43448532390906464 2.0375552894550135
P 7.863860926168908 7.836500679317718 12.233300653269342 -1.0582377790505 -0.6922422724827175 0.029481554398884707
Ni 3.5491453838665508 3.335338665639879 12.96735070000387 -0.31116518899146406 0.0034784454669036864 -0.016601613112423023
P 6.778844890669186 1.5026819690506779 0.9166836162554 2.2119614444151514 0.28319724302362836 -1.0807179624308871
P 4.865242465453123 5.362091629435805 1.4077294550290709 1.999440999081795 1.5832953540221828 -0.6515375956745038
P 2.4890626997974916 1.8503924114114565 7.130984647865907 0.9913926964014926 0.6757445319380104 -0.32506482979169177
Ni 2.526010567720651 0.9506047857073312 5.163010537490794 0.09794874603234743 1.338083331993076 0.5654580902759164
