# total energy = -340863.67994339357 ev
CRYSTAL
PRIMVEC
9.31722104520739 0.00000000000000 0.00000000000000
0.00000000000000 9.31722104520739 0.00000000000000
0.00000000000000 0.00000000000000 13.63669479880022
PRIMCOORD
 96 1
Ni 0.4155685540746095 1.9560573748026668 2.83744132403302 0.394228790381863 -0.25621145846340393 0.9507774939832917
Ni 0.23562972369032584 4.815792013500308 4.889928209201781 -0.9826568591903916 0.07450774140058782 -1.2700768820461157
Ni 2.167744635713006 8.323977281492704 10.96919315582091 0.8093912455925996 0.19234679859895906 -0.11891377831978876
Ni 8.558817836565112 5.462099681967186 10.93232025374993 0.9973280880493212 0.40846010348989653 0.23658314270951517
Ni 2.986588602487001 4.448702823684882 7.801512250990968 -0.0726254367762104 1.194031620955079 -0.07686775699233213
Ni 3.544419940425509 0.5803939202897619 8.874897104900258 1.1947705560036326 0.8109583329694035 -1.3742248149106397
Ni 6.563982187998852 4.199485796623714 7.225116350228347 -0.18873208466450722 0.7820416499350531 -1.5593115895130758
Ni 4.378041019690868 7.761766849688533 9.214205136887498 -1.7553191247930737 0.33379706745836707 1.034892162346024
Ni 9.095061173468002 -0.23008877236711378 2.1402653558449223 0.48214971986456323 0.01326843497413199 -0.21686946633067167
Ni 2.3076706605524198 4.04676722736397 10.406584878680432 -0.47156011727417496 -0.5894729651332751 -0.034550227171043724
Ni 1.7983540923128607 7.540026307329151 13.56537435951888 1.9364471718580778 1.2946939092638476 0.15579753872001556
Ni 6.750252070046365 4.3566766319590275 11.423786890015366 -1.1194110081257107 -2.192476596217663 0.6318982241770214
Ni 8.352199143873753 4.293394066989705 0.0943191598116837 0.26036790383393865 0.12515153169938445 -0.7147815912358141
Ni 6.304646658941705 4.5044663913146525 1.6481446506659323 1.703581844319782 -0.6988600349095513 1.083834910793314
Ni 2.5640619477764828 4.6002474230997885 3.546467865599281 -2.536727512019502 -0.5619727028304773 -0.48542453396109303
Ni 6.156838265144098 6.880795653348071 5.781085923251453 0.9774282638016004 -0.06401686917159298 0.626130982675941
Ni 6.402645189322644 8.705536115506797 11.87979777352252 0.2173507768424644 1.3071789291047358 0.6249683298264075
Ni 1.5512334399746157 2.980224940550303 5.7611899295477595 1.0406835722168206 0.3262015144992963 -0.28961574495546255
Ni 3.8196226968299407 5.559008097492206 10.862090768809887 1.6265415663053275 2.3048777702299144 1.0434194830907448
Ni 5.584630455216828 4.725359066563874 9.266842776874864 -0.38993067722714136 0.9741485646090643 -0.18302886363214282
Ni 8.552957304561916 0.9538504989302802 8.604754531215914 -0.29162403363474293 -0.1280756473247149 1.108098411326369
Ni 2.2822160128056304 8.889327616770766 2.5729580303784716 -0.05068518505969335 -0.17142753194778862 0.5311809142606014
Ni 4.386706035212286 2.7138921785290866 8.872087962771541 0.7072017220060272 -0.211861471593119 -1.1237885683681161
Ni 8.501311948610066 2.7179358524390818 5.919893881571975 -0.998167810341797 -0.031893249164170884 -0.09082601894463713
P 5.575984074137392 6.575861644762086 8.036391006669437 2.372373341978727 -0.934744351779829 -0.18145097762206167
P 7.452705312203635 6.939391656159036 12.110939391861592 0.6215896431621618 -1.3807322770118542 -0.1803160926866701
P 1.535850708118851 0.2728706559904414 0.7012000759340122 -0.2999585216423673 0.26718595519703664 -0.12668108097003344
P 0.4820851264498296 6.134188100915532 0.6160267002468702 -3.4503505084396835 -0.5829657601423767 1.9489710153567013
P 6.025884724118797 9.12824911463713 4.931969373756342 1.756675638820968 0.8842689687380965 -2.177988687014133
P 7.307328713084621 2.0936913632783507 12.561249999566593 2.3843048033089906 1.2360866411436002 0.7946523967205282
P 6.008964650799556 0.8582129523484022 8.70604763093919 -0.3421652369174043 0.1759272195903551 -0.5087138435063367
P 8.09954406226699 3.5419601940839454 3.5670868756518592 0.36804416156669517 -0.13733727513229896 -0.4610052245764641
Ni 4.316174672312142 7.898767267136844 12.33458157902519 -0.5506935303722322 0.053308738725469484 -0.36694218675176804
Ni 4.167052550354836 8.234643766633182 4.911937348626182 -0.17660599082493456 -3.2198243705575256 -1.7477958198328352
Ni 2.100874940662236 4.9884401184593115 0.12449391171239782 -0.1335101880767249 -1.450743158983353 -0.6509372430863434
Ni 5.767900192105313 8.868643386171252 6.967028397061864 -0.6152562447449662 -0.6983481282701391 2.503653869393985
Ni 0.38561555203347575 4.999481025333377 7.736519975969838 -0.08501481157949875 -0.6558735040456962 -0.2657093706515101
Ni 7.890419037129112 7.640214384642922 0.5327791941385208 0.022647819306502934 -0.10441584181392985 -0.021190518034686086
Ni 6.9429322001355285 1.2127201669378886 10.60647094748386 0.857743154533426 -0.021077132385273378 0.8429042897483807
Ni 5.874684861880551 1.9500850361475823 6.764387226011465 -0.47097981929067273 0.2617766112560072 -0.147690593342165
Ni 6.8564870237831474 4.865937296872643 4.895818556312147 1.3169493782279382 -1.716703983524037 -0.31516993927548304
Ni 5.692943149234553 9.368838395060846 0.5364473840425877 1.1002835432676406 -0.8121240711427303 0.20646678294010895
Ni 5.977053168906163 6.772604083203227 10.506418901596554 0.3083120358133852 -1.5983031402849248 0.8010665277769882
Ni 4.464132141645601 3.3837724161026186 3.4668428950121437 1.2681480404545193 -1.0555347782970403 0.9479508231677738
Ni 6.527607757250878 1.8795164043634751 4.062466744733421 0.3400628458624208 0.5123277861098403 -0.061109208606494755
Ni 6.733127017865326 9.148346360314227 2.6823925178034846 0.10533295431156055 -0.1750823550915565 -0.379986678640552
Ni 7.4718242496767004 8.288944530567402 9.657793369647656 -0.24865730026522978 1.537587824682739 -0.3681925142191014
Ni 2.961068734193276 2.4865333519122688 1.6017253239678073 0.7152801281387875 0.3017032722476159 1.057387515235063
Ni 1.3766659874915121 6.939046918982377 7.101445149129434 0.7508994200042939 0.4388166042945668 0.3781395981294842
Ni 4.214123150800217 7.589295771928352 1.6368400664378286 0.930533913242907 -0.17706930361459824 -0.16518797879598002
Ni 5.93924388612561 5.725544105481263 13.221116088019244 -0.2632683653101853 0.969195591479163 0.1524579328238213
Ni 7.082848907753952 2.873924766266586 9.07903834853017 -0.47346144806194584 0.6768979288161632 -0.4285753861825328
Ni 0.8861879083731952 1.0456251256893843 6.9355548245550365 -0.26770274693245505 -0.5038040649095452 -0.7345009240416124
Ni 2.3442500701621904 5.407006954248751 5.567603233856193 1.1092047570166703 0.9246062349045625 1.6444284738880774
Ni 5.322005947149939 1.8798611415401338 12.874335644797405 -0.04072396008192341 1.7130633014476562 -1.1538514491917677
Ni 1.654934109601908 8.760442498805418 8.703361476127553 -1.2976244526470813 -0.10913278767362496 -0.17653759948084435
P 5.24814833635609 2.72576231807133 1.5012232563066472 -0.8915868425557484 -1.8980703718520924 -0.8617419912801739
P 9.006761870138455 3.021053002931866 8.09063773072191 0.4639797338237558 -0.014300990003704403 -1.1352428329516449
P 4.670583124359126 3.5423515173655575 10.798380543397085 -0.6381570606025396 -0.28703050072678954 1.9383346186887782
P 4.0348877706007364 0.3367020052761211 10.912192261243566 0.9844586882858206 -1.0640921809487482 1.6841715581139705
P 3.5728747333313264 2.7712955770532326 6.5649642230912795 1.3012581927449267 -0.9048874163193964 0.35629679122277996
P 8.588949729249268 6.373566142610445 5.996954752942452 -0.29281214040557313 0.541041609104765 0.6636827156774698
P 4.55186309449471 4.789918090808934 5.53443858573954 0.5188067089659646 0.17978747387670974 -0.057472383184855855
P 3.133428005301567 6.7015509559276 3.3259898066841487 -0.24537400152826772 1.1179786465545583 0.4427316230782568
Ni 8.977431258459506 0.6999832468726174 13.142064126523039 -1.489986420754692 -0.1389627265508639 -0.03775099349652853
Ni 4.149871594847854 1.0232824297535128 4.834944492968938 -1.2469025008121815 4.178526518704533 1.0817101511408271
Ni 0.5997215635130192 4.227362921828103 2.0795683197005386 -0.42851419392729423 0.4849895033062034 0.30158911526725474
Ni 1.5166479156568704 6.151862869135026 11.477596636403373 0.14256998428614803 -0.9311198676533641 -0.28632473290901655
Ni 0.020322722425071816 7.063198888684414 9.456379276601742 3.164285199839641 -0.47856534494741454 1.299799605921529
Ni 3.919615112502905 7.102769126232222 6.83737088147638 -1.3807960403702542 -1.1475959552003592 0.581244920796528
Ni 1.8958122238763353 2.560540038241971 8.771844913853924 -0.9069520121579089 -1.0114917811442128 -2.084325712841333
Ni 2.2760107436257764 1.4882024399720435 10.812971311468637 -1.3241230131582422 0.4974241295251305 0.8156107441397502
Ni 3.603304777087188 0.7478933289292659 -0.07796184664028444 -2.7292712571206157 -1.33621156889166 0.3433425450549571
Ni 0.9282150970962704 6.714166473149105 2.8241186297383156 2.707937785750162 0.5042529795215057 -0.03065809120548914
Ni -0.06932291933764068 3.06141520426389 10.244675802635392 -0.0697889957686798 -0.17066957073584157 1.0835302350687015
Ni 8.813056845740306 8.189129142093261 7.617226005292389 -1.0687217093009593 -0.7164677206889855 -1.6829088893514628
Ni 4.539424604472029 0.45525339344060456 2.6404324130715433 -0.20677994330515354 1.4600464386621501 -0.66535033318788
Ni 5.355175253877087 6.078964932103227 3.6675209275997864 -1.1470722214864053 0.4331352376390734 -0.9778378405351932
Ni 7.84682376011329 2.033278502374185 1.2807992372732613 -0.9080683851505393 0.3966173452186976 0.02817080600726116
Ni 3.22350689784035 3.114010916756798 12.86283912581689 1.0611814350598563 -0.17283778203175396 -1.052841033514961
Ni 8.129983423243841 7.924352355977503 3.9796105619066844 0.40051179517709734 0.26871139070262756 2.8675899223295778
Ni 1.0778533930964644 2.3347744564145754 0.2612502179707506 -0.567500574627242 0.9682717941133129 0.9944019155414616
Ni 3.8984463864118712 5.018311128955727 1.841458351782469 0.9151620587725272 0.7655081710564042 -2.133836417976951
Ni 7.655466675404815 5.789283214279135 8.659137286694852 -1.1864255264730472 0.3106219148934844 -0.263883630296681
Ni 9.402287218417717 8.083537076604843 12.06128792120177 -1.4237116087868578 -2.0970400750842075 0.1391326764698249
Ni 7.945129758786925 0.14429207459568916 5.886102184482643 -0.8585530520292312 1.3241631223675583 0.641083233110399
Ni 1.8771125613478563 8.009576976380094 4.909046214952745 -1.963625789155399 -0.5809263611148446 -1.6613597024257776
Ni 8.211248224725354 6.184407922055793 2.734212105787861 -2.0593273910247825 -3.296575913686968 -1.1505203279360057
P 2.5995791941933053 6.218350558125175 9.068878850761832 -0.9717083305986878 0.6963046154775492 0.49010779836937535
P 1.2344013401834149 3.3755639444097483 12.129703343214908 -1.0591466640180145 0.8344744138134725 -1.1349358432341874
P 6.40621368496211 6.610167652450109 1.783788480737987 -1.4205355250517213 1.59151542793913 -0.7670881139490143
P 0.2441997035576379 0.19640981365177032 10.592643259811457 0.26405126622279684 0.9553301463509806 -1.4874816520549674
P 3.7093720208461356 6.301860809865464 13.516418885267067 0.6029314046310261 -0.9906748443988618 0.11263488728961246
P 0.12665364353805875 0.3988730257812452 4.492377297079126 1.208750929443125 -0.4627772288752223 -1.1057720771860375
P 2.3955786406003527 2.3829817578208297 3.7670008961182586 0.6004955414960239 -0.12908506242583576 0.12772983394952195
P 2.5215754200585625 8.959029747002731 6.595523776218912 1.0466171640924362 0.46635054804877746 1.4365889789701582
