# total energy = -340886.59098641423 ev
CRYSTAL
PRIMVEC
9.11800487571283 0.00000000000000 0.00000000000000
0.00000000000000 9.11800487571283 0.00000000000000
0.00000000000000 0.00000000000000 13.34512179766632
PRIMCOORD
 96 1
Ni 6.737950259475478 2.082342587281022 11.321080734939182 -0.6521703441624962 0.3977082642900312 1.1306631840007626
Ni 5.312842577783913 0.6682722504267374 5.652339633932499 -1.0345404354335601 -1.4611072758264965 0.41903865033669124
Ni 3.4895607435114187 1.8904632938025112 4.871970632221556 -1.3245415887528995 -0.009893090743995865 -0.24656442229194311
Ni 3.9032902123190323 4.599778128668087 4.84067581607078 -0.28887783834817343 0.335198575791584 -0.6278212258941703
Ni 3.96188251130653 3.2542706290743832 2.4216727839413608 -0.48417420649375975 0.30697480505920033 -0.2248658542725869
Ni 5.9592908836687 4.795559928210502 2.558993583765717 -0.694358804605088 -0.08980657654118727 -0.6296773052663026
Ni 5.529285776253448 3.1930341086884453 0.17668413844230374 0.20997659586558032 0.028602237117724937 -0.16213196557847562
Ni 5.733829978430004 8.274835562282473 12.397350876342294 0.5767089805993875 -0.10949119945430821 0.20090882923635725
Ni 1.8609391941882072 6.83647941958424 0.3361106291576175 -0.023573930665198112 -0.2776284906865993 -0.2922192440165806
Ni 0.7272858012370216 9.041057979511761 0.06409683849866406 -0.19376296222019532 0.6893382114620451 -0.053881580509803975
Ni 8.188360404548668 8.508685031957597 7.021949667473222 0.7657691380272746 1.6040685820137923 1.141989407646859
Ni 0.13815600906607078 2.437853595298848 1.3698635140747812 -0.9596951081878956 -0.06286835738944656 -0.11194351764954269
Ni 7.42999770747612 0.8975453934815987 4.846961768595208 1.1858827665956995 1.0015518963226817 0.43040858273652965
Ni 1.3045858939516417 7.692477712292974 2.6195535481938474 -0.33429354747881135 0.17229270816156134 -0.32605341895720624
Ni 8.08175269216743 4.108563854881364 3.734832337827323 1.0563508464404323 -0.7986247511047149 -0.5842132593962326
Ni 7.922415557899374 4.272004091319413 12.355887661213792 -0.7416151664888906 -1.64278193942359 -0.03946669063605461
Ni 8.467936668407159 7.31883099268378 9.37980553566396 -0.8346698176537302 -0.42970615735286644 -1.0624356191819315
Ni 7.458509708555159 0.8042736749533209 0.3135946280496611 -0.9652386637139441 -0.7349716930304439 0.11440123516141588
Ni 1.7773726799926859 6.615805466877203 9.003833724825105 0.4135118069811911 -0.2054717660166913 0.5472006867276255
Ni 0.25724900545035473 4.953547597764872 1.2741846422734413 0.17951905070667148 0.11370678019755256 0.20816653924003503
Ni 6.57723630647927 2.294627975551631 7.06909795860837 1.1584645224837469 0.2656584628089167 -1.1953305422721607
Ni 3.6100460592320536 4.758823486781833 0.16675645479188547 -0.28529680586513445 -0.1828748545527818 0.229580743249753
Ni 6.615012200457671 5.758357411401739 4.547043235978374 -0.9076613795201078 1.5161101144249371 0.9869277186516033
Ni 5.101241039874971 2.8341585568912255 9.265784885362269 0.3025041708823564 0.11941411499497499 0.49267221666244176
P 0.4064487419570818 5.6012541883151235 12.418222901180807 0.6665129860374134 2.6950215919091263 -0.41750293041845515
P 4.360749632253947 6.410841836478825 12.256774036995926 -0.4498085845296963 0.7310013955287863 1.3423945577739205
P 2.3423516127910586 9.177363033598924 1.3995025005498456 1.6264505492534183 -1.6632049831646325 -0.49294398226658975
P 6.797417886925909 8.050906481853906 5.566383290673077 -1.844603253171888 -0.9475641292523165 -0.499366855073798
P 4.838897805130449 1.3401825847775353 12.43419673382883 0.1632997606343317 0.4324731785750423 -1.5943850361774412
P 4.108126190649898 6.252644452813545 8.165600040911475 0.998449346137958 1.9078261656872755 -0.17730841620859786
P 4.959456064889662 1.5510455642958798 3.3114988745404794 0.31516993927548304 -1.130443868901105 0.2675978459234746
P 0.6286180474549621 5.655369546934917 3.6609409385486447 0.1429322527215732 1.3648451734679528 -2.045484571604419
Ni 0.9264439979650995 0.0917453645210404 4.673061357025124 0.795317541108353 0.3353492424368354 1.422988100357272
Ni 2.2008675319648825 6.886318433942421 4.739680235657611 0.5769735471146837 -0.2115213146448809 -0.22536104874145058
Ni 6.081371850233221 6.0712508648805725 9.216581395940198 -0.12078965518626296 -0.41420806171726726 -1.6285398276822791
Ni 8.77020764626812 2.2857835108740905 9.926328714901706 0.9381716322938229 1.9611966108886159 -0.27503116227306823
Ni 2.676088825293456 5.427082060201337 6.8444722626113865 -1.4120745387685616 -0.029954123159929062 -0.29900978457585276
Ni 0.8352785385507514 0.01029149204282432 8.808847927103667 0.30143382063631313 0.3941256891450954 0.7446069021273628
Ni 1.3871676636263646 1.4560815440726005 11.60913491968136 2.166399953735269 -1.1902546704111503 -1.3995738351983895
Ni 4.280675313905331 7.323034392906816 1.262918435515123 0.17134937041168555 -0.08598463169193578 0.7465889655543981
Ni 5.47883585557218 8.073519133812978 7.784983518416186 1.1534264458392072 0.665786392284034 0.07346310218615736
Ni 5.7815171436501425 3.21408758182292 4.492608747189802 0.48428939191538534 -0.431458878377915 0.7019885532362039
Ni 1.2771315814319784 7.740721075807268 6.854201173756681 0.27770510956080563 -0.3818936658552778 -0.3084922701449913
Ni 5.515061688730806 4.621570160193161 6.848302736437196 -0.16222735350575931 0.6924669868990139 0.24515057266355195
Ni 0.8156055313463589 7.496157950466049 11.209715247641718 -0.07173120709671518 0.6733114970164855 0.2962075392403673
Ni 4.641985372990081 0.43782470835077614 10.251629037542116 0.1948428255479354 1.1558368550529126 0.7896539150646723
Ni 8.576559459854103 7.470846369079604 4.44756853876955 0.22323937441275749 -0.7504628466875075 0.42325963039657427
Ni 7.1616274715441195 6.407969664959831 6.944453920888327 0.8244095733783027 -1.4602048186168852 0.2090152603935755
Ni 2.63225857611311 5.616855094565918 2.4321749018955776 0.004651125618766184 -0.5223918552140616 0.1882931973548757
Ni 2.397342299873785 5.8229128855429595 11.264163413437522 0.4597610677567178 -1.6459415680984941 0.3185098022819934
Ni 1.6446145297813612 3.6248536990633164 3.717897467471039 -0.6824633387190827 0.1607127166334458 -0.48100532184747485
Ni 1.8112004778830717 1.365229744024136 2.9174706787522067 1.0386994519072563 0.6811790726900204 -0.4769314088884173
Ni 0.7631204719887748 3.6952720503052165 7.880948695568944 0.5805239834701035 0.43993734816257135 0.6877428419504672
Ni 3.7854217639823706 3.1736857024557237 7.157202503803902 0.8229599854159699 -1.5789087949187128 -0.23619876278690288
Ni 4.385359127269083 6.880957047106963 5.900064883346059 0.9348798489164286 0.7385779223244634 -0.5180207227295595
Ni 8.292250951492887 7.349029824654927 12.982801553567484 -0.8134677296548183 -0.3432939512052087 0.30864576500372004
P 0.2184145111120956 5.838896747996287 7.770930849384202 -0.8261466106740675 0.706673360306383 0.038103491739940834
P 8.582650287075337 1.4638136121618313 7.970120047328676 0.23448357986800905 0.19479860257356127 -1.0619437671471774
P 1.6610178204565105 3.7363304260196113 10.026149896293775 0.7916776303629205 -0.9167713122411759 0.7556513328669825
P 4.448309832561596 6.386797657762667 3.5493885321523257 -0.1302104342795306 0.06947120741794488 -0.12987747642014405
P 6.661021652790525 4.072228605664872 10.357909413550235 1.240720797481502 0.406887359686138 0.12593828926673795
P 6.719139815527267 8.187211535941069 10.370107480401382 -1.3389323102569328 -1.215347865934352 -0.13846907474389702
P 3.033897570526478 8.852424695749956 5.9247938242243645 -0.6996683897434595 0.09940964684859009 -0.48905158919071895
P 7.340349484064186 3.97523127036624 1.101395715491184 -0.12843920131172074 -0.2793439307158092 1.1958275365132374
Ni 3.039441317458379 1.9582830136700822 0.3120901572539971 -0.11265442767363823 -1.1859969235760606 -0.31347763917472465
Ni 1.8691727525426596 1.7478941704024928 7.177153610155372 -0.0015940839599972547 -2.2709114405867985 -0.7263248159887233
Ni 6.762012674201282 0.8829766453766773 9.182244813380732 0.5574136227048851 -0.13839322720063907 -1.1820379389283129
Ni 2.634465133280084 1.8420558062014178 9.536917876755398 -0.297224667650972 -0.8301873564023444 -1.9557078198599027
Ni 6.893147819554254 1.9876794612168756 2.4535010033742366 0.5176581971838181 1.4345904604828905 0.14028941578208742
Ni 4.2011754298605135 7.2954068382955315 10.294840174195032 -0.26170590591907184 -0.8986532624842265 0.09901781072681012
Ni 6.754782096377271 6.095969775953574 11.377156464595751 0.40218301223193315 0.9709673386676052 0.37429862711683926
Ni 7.500525474775885 3.958025595266737 8.409307897400371 0.08382284815392661 0.6906384183307073 -0.43747577399595616
Ni 3.375157137007195 8.674997439914643 12.802162024633308 -0.9684324880608935 0.3449206881753543 -1.1051398429186774
Ni 9.08184281508149 4.89997931943441 10.10588684846397 -0.8356455513034383 1.1397368641672565 0.42422713651616617
Ni 8.899537426666296 2.4468348300487213 5.988556943746535 0.27203299887669274 0.6819231499448966 0.16127604533608353
Ni 3.36732477086492 2.8632905822981747 11.371818784572831 0.7965041052172862 0.2016192250398205 0.9830849478667456
Ni 1.3261317393465153 3.708730225422793 12.46268867529726 -0.2116159312412162 -0.5812258946331345 0.004763225716598248
Ni 3.2068205319796217 8.432868821860952 8.370848153060304 -0.09430626418375371 1.1876303454144255 -0.9037003379898308
Ni 6.4602887766296515 8.604323784537721 3.390074192896325 -1.8059132928008577 -1.1397394352704178 -1.223453782870938
Ni 3.8754711796064805 8.666235037280503 3.4195672912942334 -0.7524189419726138 -0.03137440054622339 0.3668838227100068
Ni 3.3870287792857083 4.487389601229571 8.982360823468808 -0.14464615008888637 -0.2612366795921372 1.7981753007266514
Ni 4.811799094798852 4.5810862187825645 11.23608542938802 -0.019606718487333974 0.2477777258737539 -0.19574862519165645
Ni 8.496339253428332 0.20963296066782866 2.4737055902597636 1.3743901368439104 -0.42986839396234355 0.025129705188092207
Ni 5.140968186885324 0.9035641884647371 1.129947835791441 -0.21026095987521853 -1.5552541316142503 1.2303749354708036
Ni 5.989517069654314 5.8088802761215845 0.29856815610266507 0.6242425074039765 0.0015604025085844094 0.2863944098046874
Ni 8.377139576387627 0.2953668246095884 10.908249389606556 0.5946156856764792 -1.518011188102392 1.4520742190899507
Ni 0.531923429916428 4.993365924823447 5.667860301740858 -0.7476567446972802 -0.12089532752619178 0.8015727779894454
Ni 7.914911439930698 6.693910296184222 2.2720873558306542 0.46481097147579953 -1.0317099079633005 0.378820940467225
P 9.03679075325497 1.924993178064207 3.853697384091052 -0.06444212963446967 0.14677270951358595 -1.3950288961401847
P 2.0226743637245037 3.512018389388513 1.2151838566699082 0.663622808973812 1.6773671335976272 2.124042057594348
P 5.002064501423831 1.2011421292437103 7.833306208572433 -2.035649330681552 -1.1960743624167207 0.730243177206523
P 8.80582257310366 1.876257442289514 12.52841398945717 -1.6250143310275238 1.0856506238458141 -0.11454598826939627
P 6.712474554002235 7.918768355970491 1.11514110776066 -1.0818482193805885 0.8212640857707856 -0.11365998612001715
P 2.1559795942251605 3.4234096185263114 5.80035038261041 -0.3462278370225521 0.22294498310079025 0.6765958241947122
P 7.43863245804275 4.123143544592072 5.915639347382869 -0.9397826855346846 0.5085534066690726 -0.09507810935277175
P 2.387431028632047 8.870268631187013 10.509710516832738 0.6329636893270583 -0.02751697447334616 -0.6283668139849952
