# total energy = -340859.979850302 ev
CRYSTAL
PRIMVEC
9.39381665091872 0.00000000000000 0.00000000000000

0.00000000000000 9.39381665091872 0.00000000000000

0.00000000000000 0.00000000000000 13.74880021016048

PRIMCOORD
 96 1
Ni 5.107314832704593 5.747353142862597 7.435805279805205 -0.33147561841404205 0.6457829525789136 0.5821476351164554
Ni 8.51509094594319 2.6564492560931594 10.813747570440832 -1.8394175952058902 -2.0208621450700486 1.2253054913676962
Ni 9.26638962163839 8.516302748303398 1.2856527899363108 -0.25378459418946614 1.4114006526299885 -0.43855332333085123
Ni 5.722187107800611 9.644913467410204 5.760321306880167 -1.3502245953413003 -1.301418886692507 -0.9606441023647262
Ni 5.132020570746034 -0.0032624725558146384 1.0127342320207258 0.914823958706818 1.1221464047790028 2.161198097819355
Ni 5.801264257166715 4.354898292816642 1.2916404087300808 1.7607433811324387 0.7834382731722636 1.6262883126439411
Ni 7.482926543365461 7.320582602364631 11.506604494015416 -0.9837984289940024 -0.1866898574234978 -0.14294125158263768
Ni 1.8991103562304126 0.9722976084567762 0.4711619089921466 1.163075796003513 -0.7578334281199658 -0.5832190138037633
Ni 7.150188160412654 7.622546841658215 2.3500408020971406 0.7658465282324294 1.2361622315765421 0.9761038885632223
Ni 0.9511145516950082 0.020062374423994597 6.440061644132598 0.9018607136779305 0.8414361898432863 -0.9841421854866663
Ni 6.355771865854254 2.349431143390338 6.322991202938127 0.29676032642004374 0.1972411505767829 -0.9082694454177519
Ni 4.451194308277788 6.175053619298647 2.7860435337731246 1.6760160188863718 0.4270255251969097 -0.5621645071263093
Ni 4.399706798694085 3.015659414635618 13.594964561169967 -1.2156540843208612 0.17714720804038522 0.17501062131335665
Ni 7.66728019700169 0.2805585490749402 11.676388337878917 0.1292156744664291 0.254454109452665 -0.8137618638564694
Ni 8.974194951760435 4.736766337349959 11.41719602499229 0.3328645283417687 1.2313478409070342 1.8090400113552971
Ni 2.4335151970819497 0.93205449751779 8.307108085664588 -2.389212525023253 1.298008061238745 -1.8954133938452196
Ni 7.323090751435758 6.366612330378901 8.65374274172945 -1.9319899074176725 0.2678852952569064 -0.45562390565989275
Ni 7.807407761398717 0.31325560702202926 6.705578813834172 0.05980797329656796 1.5810698071257738 -0.13839399853158746
Ni 3.254318722879289 8.377584256418242 7.191612074116586 -0.8166795517238966 0.13855109293474202 -1.5647921530116728
Ni 5.839807087274712 4.428799449155813 5.428548608288827 -0.7341337705101808 0.4526884771806526 -0.513226900885342
Ni 7.747306121859119 5.811738362838276 13.312165586801154 1.5066268575248503 -1.33751126153969 0.42779814169687613
Ni 3.518989509692066 4.619174539326097 11.869517695119068 0.9891686921669804 1.2094921784845234 -0.07521350921836079
Ni 4.326942294181157 3.190384406107407 7.561427851765047 1.349467662570618 1.1773988974944045 1.6211818446553112
Ni 5.744957719592419 1.3901345773097424 12.961447438596894 -0.0066722698138530255 -2.556823511438429 1.085734184698556
P 6.604463770382433 7.720251929631229 6.582361998342926 -0.3146922283081161 -0.4189818289568268 -0.15441814187398564
P 9.15868951264785 1.5558039294385846 5.323370739094531 1.2512551213539225 -0.6563041638252116 2.0076173642450006
P 8.951180100733236 3.6165536904138933 -0.1694005761402722 -1.5197819068495697 -0.5460976834714336 0.5048775004793821
P 0.6055470332124676 5.216893705044293 6.470859272333687 -0.45163226800199635 -2.35779030195823 0.747940594486286
P 5.253238382033774 5.222511207458278 13.129045341303648 1.7760234472199605 -0.09887254339819747 -2.467067071408887
P 3.5925994577121156 0.7193653350495447 12.283329413496462 0.19354364712053765 0.2816856914751084 0.24602706173123434
P 6.977370113740261 4.3292907483676055 10.544546145811557 2.149124454484273 -0.5674254984149324 0.8732962717766766
P 3.1512215840941873 9.088686790258185 1.8592223315644174 -0.17433982049857719 -0.9835976258371061 0.5844366882609483
Ni 2.7358457952286197 6.036363308863728 6.464355933000573 2.175697834097427 -1.313997494688466 -0.05589424006445858
Ni 4.632241338419497 6.947770197174261 5.4276693470414195 0.9878435455976534 0.9216399531873869 -0.9595261867101992
Ni 3.6737244591288025 5.269095144700676 0.6421801003760448 -2.245599701294887 0.2172438189509549 1.4169454937076176
Ni 1.8271067508738932 6.2085989388978815 10.758518503647279 0.8173786346734504 -0.20800584529245467 1.2610664510173897
Ni 2.396785373605891 4.242463700186221 4.740133081271652 1.2518233351525665 3.0226742370326525 -0.21873068790912656
Ni 7.757188417075695 8.08385839441072 4.75868023305455 -0.2826182305917068 0.3021688990301248 0.499480754943843
Ni 1.4780982773173674 4.4247037450546465 13.201914117182456 -0.9435750626975814 2.6846029676789636 1.5467003285069685
Ni 5.915267617193684 2.462485727925982 11.156807879233918 -0.19464896436957446 1.0789004496061743 -2.902683680708917
Ni 6.621306883807644 1.9915643006425279 8.53756471312583 -1.6039796218444118 0.9954601816026469 0.7320318936758295
Ni 8.38009240548937 3.79745041948767 2.4652287224157545 -1.1995628351859533 0.3714426457252829 -2.3189543029276387
Ni 7.745840686446775 1.8886644320090884 3.891446828609445 -1.704191195769007 -0.6063759115362009 -0.8697967432638504
Ni 5.332296743766386 8.918602344258819 3.3418249440113934 -0.6937687364295729 0.16227903267930116 0.564141428347022
Ni 9.084281090204408 6.3844699760126575 9.906038088401445 0.5074527174057261 1.9330728560692065 0.3567680744322437
Ni 4.204287228931309 3.683005550073648 2.687244066149225 -1.0202029357649653 -0.08022664616223603 1.477693976540584
Ni 6.957877943992736 6.0945110345202 4.086899276730831 -2.3686622116757268 -1.2897897870940112 -0.5281416132136453
Ni 1.9471033659846795 2.2664085909910012 5.313677259594545 1.610692515088213 -4.693459603647704 2.4170873970566498
Ni 2.275896345904254 2.6668106359637713 12.318430349148798 1.659459400079271 -5.531288021535074 1.073090013571984
Ni 0.5605647417252277 3.1529312587419223 3.9607403178348024 -0.42384249948323777 0.18221305259906684 -2.1053797052981547
Ni 6.706339712990581 3.538735312491727 13.127532936807574 2.231570991115963 0.1125721523724771 -1.3207119305941641
Ni 5.859271075571999 1.915859531488165 2.1539420593836436 0.8438594545727983 0.03411391096457351 -0.2584696583699613
Ni 3.6993132159443483 7.219007261892348 9.20185222183143 -0.32328922594850773 -1.3161675057565911 0.4603513930425491
Ni 9.329647583604574 2.553652719443923 7.453169750059806 -0.036863448685252646 -1.9406360131284446 -0.8752153431762605
Ni 1.8351102827413104 4.675847435753478 2.404995569441716 0.3201100568895777 -0.26744332262348136 -0.024637853153338215
Ni 4.584595899884825 6.870149089403756 11.57934927151318 0.5086719345248079 -0.7913094483902242 -1.1106422607941453
P 7.692061085577098 0.41162389845729724 2.1899635890770695 -0.47072733696023444 0.4461239365892575 0.17648797718983156
P 4.1019791707528555 2.9544117294530343 5.555299377639839 -0.4592931269813638 -0.4129770175236436 -1.5601294574286808
P 6.748978247199745 4.307130734664274 7.5633798868848245 0.6672791747794766 -0.7662563620763384 0.09358969773270334
P 2.376908057371789 6.570542698113367 13.19315626183035 -0.6006690909594107 0.4377387978493558 -1.9760421605418805
P 8.529529242281477 6.040242955179742 1.7130864819767813 -1.609660474279273 -0.07513611901320608 -0.3787587197707219
P 2.8753063986366936 6.343306271032583 4.03699180712377 -0.9216240123477869 -0.14865167170385366 1.7484969596649178
P 6.39572376847412 3.709007634826009 3.432058190144803 0.07966228901833378 0.244100791242799 0.004835473715430382
P 2.7006471638821257 2.881478136238681 1.2304800860432326 -0.7235932759901732 1.4084441411048259 -0.3585339080834148
Ni 1.6394370799263986 9.019463754658421 11.225193925761632 0.2983641805720539 0.005431712538532581 -0.5745070878520622
Ni 3.578377219158982 2.9221251812977362 10.124877382693162 -0.45875833752381634 -0.9878977958743569 -0.720445731500127
Ni 3.5594392845994594 9.585638483744239 10.117714597424493 1.507646042817984 -0.6514164967156071 1.3329131006460464
Ni 7.850750831863815 5.874179062747576 6.340589579229699 0.12949361071816406 0.35589107114392904 0.12618331539800848
Ni 4.223995456463988 7.808506837957974 13.570808361408153 -4.124298096378272 -0.5051415527740462 0.38828671386581515
Ni 5.14331193847448 4.679473449017355 9.720594752022704 -0.1985184746273097 0.9999673254443812 0.021812724999717273
Ni 8.831521663025299 4.140446850326886 9.01638070400245 -1.2372593212954628 1.3586441868635633 -0.7049790033230956
Ni 0.321924221115049 1.7523037881271266 1.910670387117788 -0.7815989059706797 0.19444481877856834 0.7518926371554987
Ni 5.315885745911481 8.604069178159362 8.139317609714546 1.7420149514849999 0.9145511646614056 0.9370876552010249
Ni 8.473842696612405 0.9907940336292467 9.093277548501854 0.7827199069490004 -1.480640717873734 0.7398986980184161
Ni 1.4552243335413566 6.2730874908577645 8.329256826787823 -0.5713505445009515 -0.1215923535932164 0.2649642649553695
Ni 9.083172619828403 8.38730685675014 7.938557655131786 0.5156535080489636 -2.869395865190065 2.0236304518438053
Ni 2.79710287422795 1.5973809623554738 2.9666612664895506 -0.14344364514035296 -0.8916050973881935 0.4708726042888471
Ni 1.0257390319236044 6.586080071010912 1.124659679783525 1.6572109703647269 -0.7239514306605402 -0.6153236076477919
Ni 0.9366245893646193 2.3744374835676445 9.53458684725754 1.8265674787160995 -0.03305487357243985 0.3111705883081028
Ni 8.048161890776699 1.2802551028341769 0.05798897015346774 0.3090504566413065 0.682043991793477 0.6893482387643741
Ni 6.082083014965513 6.800052428846633 0.6293434497929157 -0.6401568646413879 0.276998056191452 0.3496515179921204
Ni -0.323543715122024 5.560970424809276 3.7176621581939098 1.9920133391591563 0.6030229359035678 1.1276526793092128
Ni 2.0559213391679703 3.5727972920119795 7.437454834025766 -0.9033761218811925 1.1320772907394696 -0.03314254819023969
Ni 0.9704188451076172 6.983109735771942 5.549401000105155 -1.3485376945571808 2.5643159631607317 -1.3192302038423152
Ni 0.1101453194894713 -0.13118277209167942 3.9638205503457487 -0.6048849288129711 1.8168523083108645 -0.47255076332221846
Ni 8.502277779901926 3.6149003786666336 5.612260664241317 -1.1672291560502541 1.8724902093901428 -0.19826316408339403
Ni 0.3062938494317205 7.483988044657736 12.44710497216935 0.09397767719974137 -0.9977536056225139 0.561274134101556
Ni 1.3808346987314053 7.682601512114083 3.263511511946724 1.5621493160721873 -1.0257750305361044 -1.502350855857316
P 1.6828834823757008 3.88712379414303 10.886547771457394 -1.7690758122575339 2.0958275428333453 -1.7706236163606281
P 6.064601122001589 8.575418037084686 13.033835251058315 2.5178612712426185 -0.09508530844162334 -2.196975512529281
P 3.2543281166960343 4.942631831334059 8.759622329034658 -0.166949441571777 0.9669348204694445 -0.7042925187790322
P 4.418099891882353 1.3792189622511284 8.604741775438361 2.6452908003429023 -0.4761991587080831 0.5209070431384191
P 1.6959221000188645 8.4235857770224 9.053048528287988 -0.0702322539536855 -0.7203390307189336 -0.11307377459924396
P 7.357387576374657 8.503686852413795 9.611195301582848 0.24661661568611723 -0.20334520659199173 -0.12190062886225457
P 3.5800493185397335 0.4021079620938068 5.340378244312793 -0.4224939558751433 0.07076190120491038 -0.4388978511544635
P 0.3976872319332356 0.2659436489818322 12.794564405344493 -1.9563310552661985 -0.1842858759676955 0.8663337244159144
