# total energy = -340888.2117496356 ev
CRYSTAL
PRIMVEC
9.06639336504871 0.00000000000000 0.00000000000000

0.00000000000000 9.06639336504871 0.00000000000000

0.00000000000000 0.00000000000000 13.26958313483384

PRIMCOORD
 96 1
Ni 6.42170810753762 2.136649665224338 11.490542634683086 1.1825272198599053 -0.9007502542225713 -0.6091131079617058
Ni 4.644087609497842 0.2401234215374516 6.045900673262359 -0.4675319699513884 0.5715320643841383 0.03838168510199196
Ni 2.550539577121873 1.459090908880809 4.783498816443469 1.313783064684815 -0.5951543317887685 0.5124049192046788
Ni 3.694555192618898 4.662256661291727 5.070374000695666 -1.6265487653941793 0.5539955981622717 0.07498031016163216
Ni 4.99818465883017 4.6265804044010395 2.71572653968128 -0.4729413138924177 0.15752969091977387 0.23408685865022263
Ni 7.314611833047 5.995116178891966 2.5811332140346908 -0.38773598356866773 -0.235015284001763 -0.4678597856044523
Ni 5.688644892570256 4.585536842788805 11.49157801677633 -1.3466723592136678 0.36001460639399935 -0.9246689698216979
Ni 5.652433718486035 7.411440911469503 12.27841128936545 -0.5363704288813408 1.2840179176072402 -0.720881533485965
Ni 1.7476379360226226 6.64232971749391 0.2990323107743627 0.4806515380524819 -0.8162293515603556 -0.6633785541734898
Ni 2.7609614948286016 1.7187796067511971 0.3660927940571233 0.14477521946758293 -0.7333601255689499 -0.6509606401251112
Ni 0.4542924795168415 0.17183444198818826 5.031069373282067 0.39533770717532557 -1.3249208264691892 0.5822389092786812
Ni 8.339812366828024 2.4073268315449203 1.5087647700951397 1.6860176101837738 0.12599896730134427 -0.2653414457891301
Ni 6.793357693932305 0.9358330968886446 4.92742055396168 -0.45614841070479506 -0.9189392664267723 -0.9890033702337095
Ni 1.067332062566545 7.217955016093601 2.389586620145172 -1.3319988163618932 1.1940120805710532 0.7406800562691308
Ni 7.689117333271561 3.697193513014118 3.5925002452073755 0.1918094380382503 0.10593639222351432 0.7267469911278064
Ni 7.725355706535114 4.045823527300681 12.541480845226825 0.24582728701560247 -0.3810171767875954 0.6699891175114719
Ni 7.632688102550432 8.980579699928246 7.028990530962016 1.0668743716795754 0.7132677256944491 -0.6036343442353218
Ni 6.985855352459138 0.4544330086100577 0.3731564209296862 -0.9791830417091782 0.2994939233011229 -0.35731854761907494
Ni 1.6728492592522834 6.655784244870221 9.350464966223583 0.7906324769278577 -0.14150734734958853 -1.4093545687342375
Ni 0.3529700966686654 4.954112921918954 1.5852107835261189 -0.08746070201683001 -0.9788171737293273 -1.2130546990248012
Ni 6.2189200928301185 2.2314116060175966 6.961940020711677 0.24275790406165934 -2.521248442547297 0.7565211370664455
Ni 3.1664196611331654 4.520394808288272 0.5415102746026685 0.2206343326897426 -0.6431732828702085 1.2826858290593781
Ni 5.914071690875228 5.518260166840472 4.8674953220570565 0.9322781496275235 0.45704752548029676 0.13365596962596982
Ni 5.2983276027605966 3.049154932639097 9.381343287880078 -0.46710516682661485 -0.6986479188987452 -0.11503141254624703
P 0.14102593155864648 5.691981325235001 12.401473069614513 -0.2508915889123873 -0.4515757037324481 0.9870115366146615
P 4.075905819642054 5.835484195391496 12.46092140924151 0.15367920682543212 1.0196478345924438 -0.7804228833847076
P 2.5700595214892554 8.366449429787322 1.226353877810662 0.36980408168059536 1.442801021318141 0.7751186975629747
P 6.3043527151124445 7.731992306292162 5.7162312068882475 0.09545966106190656 -0.08721541877524334 0.7942063103220451
P 4.7401097789334905 1.1242055465500993 12.452773441752905 -0.3435513186316535 -1.3769740955210028 0.7459693296925282
P 3.8945507582482977 6.066115103342024 8.161616036794042 0.36277622829953654 -0.3988359501365712 -0.9240040825441893
P 4.637587005637456 1.0840142258902723 3.874094255472577 0.6105927778310258 -0.3463065127792875 -0.6066489626919294
P 0.15543968332607105 5.576457344218191 3.6115958823771765 -1.2332005778450568 -0.0454866715778894 1.1430163062494767
Ni 1.4590727760945876 0.5801929474488717 2.775943709444068 -1.489428234258377 1.7054101557777726 -0.8520556172303454
Ni 1.6621871809540751 6.757019590344534 4.790637694378852 0.4218198126262541 1.4980522284819617 1.344301544988646
Ni 6.154675631247549 5.63664912808027 9.147346934806851 -0.44261926587010864 0.8896268906159003 0.09832464131452745
Ni 8.791708598645702 2.2114202092084563 10.276243433152437 -1.6987697676431197 0.5830359512586798 0.5676221878067709
Ni 2.1388255995709113 5.359879345589283 6.849041667139732 -0.30394090332888296 -0.29201304154304547 1.2685666160491764
Ni 0.6367509209521729 0.053168955758513534 9.20150050085719 0.15095023793004328 0.17586294201132294 0.9785628916266761
Ni 1.2612440784186507 1.1229362515145984 11.617174760539152 0.5732205078301547 0.5666881060282757 -0.35702621318963673
Ni 4.335630783084885 6.803330726354098 1.529372681635809 -2.0430397096083524 0.23697189350750153 -0.2754001155767128
Ni 5.834223966749106 7.802265919293362 7.885887076232167 -1.385972699475187 -0.17923648646924617 0.16044892144909786
Ni 5.056055446055904 2.953613282038317 4.929132288980984 0.27523427942280987 -1.072839331013759 -0.6097980498438724
Ni 0.40993605786194903 7.465576344733619 6.856579466371986 1.0705469354351562 -0.03554935785951942 0.45613401252709185
Ni 5.197908232666249 4.350971120228225 7.475300051344868 -0.29714162101886243 2.096240204890732 -1.9503540117471574
Ni 8.238187166449949 7.363234899299798 9.07096710604558 -0.21770224664461219 -0.6626357624701943 -0.40021997496829137
Ni 4.618946501401812 0.3024231417977724 10.319025022323999 0.8290216182290173 -0.6660414457176336 0.580832772959774
Ni 8.133570056345338 7.240856725091283 4.727687007093181 0.10577261295214042 -0.17764985870841662 -0.536187109225941
Ni 7.407959416514985 6.082144486361779 6.9258866018675835 -0.34240306395982323 0.03168139026368092 -0.16897315687002512
Ni 2.218936249097244 5.3172038332171185 3.2075502601192634 2.174182168783849 -2.226771769955107 -2.3933923674325555
Ni 2.1739125409094022 5.276921848626183 11.658827583768428 0.4697469753248361 0.03048608440399911 -1.1040026439904405
Ni 1.1302256315756183 3.223537937730709 3.8381605130175442 -0.43554358997024983 -0.331741470480919 -0.3603336802963149
Ni 3.8506059508406314 2.5859529086123496 2.391404431963872 0.02594885865527789 -0.1877185557983283 0.8144612039163391
Ni 1.155539001140752 3.215106192137738 8.811466989151896 -0.1288742319666103 0.2602347206901841 -2.4866547637328273
Ni 3.570264009464021 2.849086835864812 7.253127181527333 -0.37198360583041745 -0.8088382013026071 0.09541980896290664
Ni 4.090765637950526 6.89374079845421 6.0989390729600785 -0.12069452436929537 0.2746915195454624 -0.22849650904663873
Ni 0.8842280939417305 7.505450341634571 11.330485437345725 -0.6880513743298216 0.2468544427285361 0.6934632893740121
P 0.2234584843606349 5.565922195423533 8.131427667653274 -0.47284772573734696 -0.30726559682674176 -1.0359347446779257
P 8.607080569338974 1.8377578835431916 7.954557750931391 -0.010294439947472592 -1.0604113896630512 0.9197293664282354
P 1.9658750845907933 3.154134698468138 10.87038955959871 -0.925392992471916 -0.7683862639351476 -0.2126274032248661
P 4.034418004767394 6.465435321510629 3.695499004141724 -0.4529828684926199 -2.4983273149747487 1.216999285494846
P 7.147382212119747 3.866816661722601 10.09458283431085 0.7876160586990371 0.029670787591555354 0.9628501088771095
P 6.251803900642704 7.800352910347 9.989076311042076 0.47853989102611777 -0.9024860059667554 2.0690330483483206
P 2.372611612323969 8.456832302708102 6.008785579785 -0.07797256002073669 0.6886057041713948 0.2665017846458184
P 6.663436280655669 3.8696725755524786 1.6089239347072104 0.6798374710604614 -0.06182551794722901 -0.5671028249681911
Ni 5.131043583474679 3.0059445030733998 0.0866647451060731 0.7767336074585784 0.5298981908934358 2.5337434896905138
Ni 1.5964195653289035 1.0200870880665769 7.391369730400988 0.046640582676674515 0.893431866184287 -2.3153794410921864
Ni 7.175533362728537 0.5729189802561401 9.290950441926876 -1.379581965457495 1.2811010010707615 -0.5887867376995279
Ni 2.8805925519245683 1.6051414355014173 9.297678612254343 -0.07932933115894726 0.07100178512985837 0.9556972998824121
Ni 6.329294362560039 1.8229796627727162 2.5419745555501745 -0.49806253444007775 0.00032627299116718 0.5193461264092024
Ni 3.995849568474386 6.548592279122163 10.214142266901241 0.919028997927101 1.4314897100703796 1.4766508799880504
Ni 8.138792298777112 7.367949423717373 0.023923491501260087 -0.08106431157218298 -0.7562982224223619 0.4839255808180633
Ni 7.50908596527197 3.8950403434762766 7.939337090177112 2.540854389703682 0.008989347982803875 0.463434402843247
Ni 2.8670292278309293 8.556471962994928 12.366839447931557 2.015913799925838 0.08345235218838531 -0.09154849893295847
Ni 0.14246567478462902 4.889913792301937 10.324464858190433 0.24472145554593333 -0.9814229867832904 -0.7900061561977685
Ni 8.639248132095814 2.2660452277005514 5.834543103786603 0.46021229636152355 0.619020853993721 -0.13694492478988674
Ni 3.9988686773802558 2.911318558176802 11.390504053099388 -1.0574209395761596 -0.17558346309769116 -0.7795363670146962
Ni 1.0213382503158563 3.4910781320349815 12.85712460145865 -0.5110268079102296 -0.7965290449179507 0.2972460078072106
Ni 3.357765887734937 8.391499873952245 8.169710512563293 0.05488791028713128 -0.28231561174962344 -0.4012643570724057
Ni 5.749326261660313 7.715074416747556 3.635600064777122 0.03541900292924222 1.163613670784854 -0.37918243757170184
Ni 3.31318643280952 8.39785541552286 3.2465493500850306 0.2600187480246361 0.36423044424755985 1.580477939178046
Ni 2.9433863906094233 4.497511232076812 9.447717445204356 1.2297005351115984 -0.184846633567172 -0.6830500644604881
Ni 7.463055887448839 6.177767734500555 11.04988691704408 -0.1867543921128461 1.0331199009369498 1.4588405912795068
Ni 0.7167518671218659 0.0318583987517633 0.38772792793723737 -0.9846774891648462 0.2352716229869432 0.2809015050109162
Ni 4.728550127717321 9.435576638189792 1.4674700693937377 -0.766691392731228 -0.7586721219711773 -0.7229882954163225
Ni 5.863970802545383 5.4806527682172 0.33391979146441797 1.3844063834293319 -0.426626232875962 1.4524143760381891
Ni 8.132708748999818 8.965828678337102 11.312730719716999 -0.5793096514470282 0.20946597477774895 0.6903203728696563
Ni 0.008978449097547225 4.733672639824879 5.669243717952623 0.023903803200791093 -0.009280139750345308 0.13549816504103115
Ni 7.835648378727038 8.532337224534189 2.486255223409615 0.8439931519371852 0.6843063054650924 0.27470000418589463
P 8.52619927639823 1.4013651839448473 3.6191590675101404 -0.506654904094779 0.6457058194840751 -1.231997301565575
P 1.8979768665846022 3.15013641910631 1.7245684987523928 -1.2222862449253982 0.30488218419622976 0.4148122709601695
P 4.843693320223481 1.2006987052252542 8.237027574771089 -0.6391978431622282 -0.7064581589717833 0.17487718105928593
P 8.34117232579463 1.7908664983745417 12.658770959621602 0.9839179852910023 -0.1584825417513464 -0.9763944232204476
P 6.2540795653134955 7.5456779278668416 1.27389441672604 1.7479048346068737 0.9288369851564584 -0.2813265083634768
P 2.0435922063358958 3.2769208603666353 5.934568992419947 -1.4674756412466856 0.5995442333263481 -0.8651798133171295
P 6.912635161696953 3.7613654434518025 5.739067637855531 0.5220624968991009 1.9446086246229477 -0.5544442556639161
P 2.5352989703027506 8.542763576611518 10.22831394597261 -0.7664473950412218 0.4397229181589201 -0.2465659649538399
