# total energy = -340862.62797183794 ev
CRYSTAL
PRIMVEC
9.32055109911897 0.00000000000000 0.00000000000000
0.00000000000000 9.32055109911897 0.00000000000000
0.00000000000000 0.00000000000000 13.64156866930381
PRIMCOORD
 96 1
Ni 9.196009899106599 1.8003576510446897 6.335758322949734 -0.664086893094424 1.0536661005194177 0.4621591356752492
Ni 6.079469265161858 0.9554776552161125 1.9869494917949697 -0.7616895686412625 0.02053745783171947 -0.6487258372573215
Ni 5.322463425131839 2.9491528566869665 0.34899498727819916 2.0442195888490664 -2.2514134797631873 1.5480457867912696
Ni 3.6797349343401398 3.764523987723623 13.068731504308749 -3.670886882098981 0.042063504828953366 1.0182432409354334
Ni 2.9807774865792562 5.498016005155791 9.080973793283842 -0.4420554229468387 2.245036886812882 -0.4922515841852554
Ni 0.22066963969286427 7.557447694657917 5.750043706979401 1.5836072288356469 0.8224228819655771 -1.7601697680171555
Ni 0.1625793049437649 7.313398384578427 1.945860774312751 -0.8081530023101243 1.298151271684829 -0.8158038339871628
Ni 3.612216862150413 4.806384510561822 4.597003922364843 0.2986747698339372 -0.2736167984240449 -0.07144427198391566
Ni 1.8756211012009636 7.496873433039882 12.232135614300468 -0.9968115534242187 -0.4091586722188179 1.3961349847201696
Ni 6.8691902395632125 6.724134502748093 2.415390060509334 0.8403750955686237 -0.37675763018029307 -0.4630014290708865
Ni 5.879375674083854 6.195799063477704 10.394657004378082 0.8836051099018524 0.49576525376546876 -1.3021449662252542
Ni 3.1829402400021145 3.2420511750969863 9.268804335275702 -0.27962726628418294 -2.3406346161145497 -0.9951362226043249
Ni 6.646876454655789 4.513523474356214 7.032815310340728 0.20840025251739594 1.1456676278293947 0.5089208173108203
Ni 4.417717529569051 3.6043223553662194 6.886727788518511 0.4780238706216477 0.9915392492816859 0.17571767468271027
Ni 7.248657836617378 8.365632680794203 0.6609501044732983 2.0501241272589596 0.48862221496278435 -0.3214449736509174
Ni 1.2445172654695131 4.1375324428634475 4.847654046735438 -0.07228270872481099 -0.014132582746640178 0.5639786775169127
Ni 6.837444442506585 3.742602051529498 1.9777957785567684 -0.5609666301634662 0.4669737834550732 -0.11317970404948895
Ni 4.303093392105044 1.9134252564745051 11.169307579701087 -0.2650858781348983 0.3296964150264322 0.5808584839913866
Ni 8.754094609662708 2.9650071141130745 10.658307433427064 1.431823953481347 -0.45487442908837794 -1.7513190024947451
Ni 2.746002124847196 9.29051096673935 11.116186962800077 0.41269933838222467 1.4789085656739756 0.48995456062096265
Ni 1.0649102457157795 5.927441756121737 7.387004640748597 0.1798134420186387 0.510623916044856 -0.24374623611685758
Ni 8.267841458622113 1.7106566672299555 0.8083462316703671 -0.4048829276615995 -1.9988900116743318 1.2374051028447077
Ni 1.609454123354188 8.921295975898424 9.184131788781007 -1.082975391006496 -1.1590977851923716 -0.18659704059937543
Ni 6.68717851762492 4.389494900829336 12.769667641344132 0.46698432497803444 0.8486131672076999 0.256789442454061
P 2.7825386851707377 1.5564574697828477 12.894938644333033 1.6415609225322954 1.8559333334727262 -1.021469204071899
P 5.961993039060351 3.1869201153230717 5.137565128516964 -1.3313758380659135 0.22589403842678513 0.7408592621594725
P 9.351308921583856 8.27125278032579 7.981613858636471 -0.1613506073277608 -0.8034761656597453 -1.0384549399966179
P 9.420467410767701 8.077021815891538 13.252838486134983 -2.013277390744255 -0.9326715284112002 0.3111371639670061
P 6.92337992367573 0.38413812521185 7.987466232674009 1.7666718308017315 -1.2906318233793321 -0.49215593914765565
P 3.30724843006208 0.9370882078900037 9.182003906964205 -0.38773109847266124 1.2379704884298743 -0.13466744160961971
P 3.707025507969561 7.340940613087627 11.267580674365199 2.088848283302035 -1.159550556459074 -1.0057888172221647
P 2.3839266761511255 3.36058994402423 6.9354006384331965 -1.2171810624883488 -0.5241456046803747 -0.5332421676650042
Ni 4.046209683156801 1.1378808403007292 7.001303459116784 -0.4119051246157035 0.907875552413443 0.795173816441637
Ni 1.2618628110720922 0.46736878245092056 0.02007087474507991 0.013013638650848555 -1.1490023486295824 2.851346978108154
Ni 4.6996921620864205 4.836825430464037 11.502379337475016 -0.27198054837220254 -0.971014646965773 -0.538332437703718
Ni 7.524201288873715 8.938203455599163 5.927233907832141 0.73025731827391 0.6617716146976861 0.5357068271554128
Ni 3.903940791121461 8.145667674764722 9.032737145160775 -0.4570500965834581 -0.06612157421942161 0.8912412862908716
Ni 4.984257907810408 2.4993057782544708 3.3632192714903706 -0.9874887333613962 1.0216121574076664 -0.3780557801664263
Ni 0.9485431651955221 1.1577056524966916 2.3222311522354073 -1.676616885695164 -0.8053574418428581 1.6512429257067498
Ni 0.5187939911063045 1.2969546859746768 11.779235123326648 0.26335424015577225 -0.19495852519019327 -1.1792601190728593
Ni 6.0440138887662584 5.112806948622214 3.9809509125544267 -0.2756140313597318 -0.2706186350276694 0.020737232547351384
Ni 5.065924576574403 7.8196068355304265 1.2365444660560547 -0.38626994054610253 -0.8849102018665211 0.7766405335241398
Ni 6.263000236929932 7.115858624502629 12.469267211351353 -1.1487683782419054 -0.28761928335072395 1.6259340146283159
Ni 8.331249167775443 5.2923953272737405 9.136399382472609 -0.7184335861661046 0.3954914591443705 0.6425323068520998
Ni 5.284594026000577 6.42891536711344 8.273842961477298 0.9125030238831253 -2.223197165229971 0.41085740007747956
Ni 7.744977182849152 1.4794603971214262 4.029596732870913 1.2984549189681767 0.02055905509827427 -0.08341301431001764
Ni 5.40712199079988 8.311592125499333 7.131825660597083 1.1599331366094732 1.5986502392116984 -0.9399593203218649
Ni 0.09146256797319084 4.47618534663782 12.011728814148707 0.2098549826860515 2.496201783991314 0.7693218883755396
Ni 9.109766839751057 7.925301885037812 10.92045725374847 0.6086832195131388 -1.2067495827423798 1.0780913234413174
Ni 2.0749224454352184 3.0319007093789048 11.278685178949246 -0.4735982307501263 -0.9896371471629666 0.2178164036249733
Ni 6.0147007555475 7.903594321519056 4.368507815910837 -0.9684785108074805 0.020212727502449058 0.054930333489292486
Ni 3.4196822380168954 1.0453091267462882 1.9540451502362461 -0.3400954988725691 0.6780284428761807 -1.0452817331104645
Ni 1.9529071109465765 2.98227809530683 1.4003615401862906 0.9198867179417062 0.18348497733295496 -0.5852694685748888
Ni 7.85178137793779 2.957802328110499 8.525093329338922 0.14262243479063824 -1.0289804248472796 0.2251090806316446
Ni 0.7565276957584389 3.811415680322535 8.411514025653556 1.5006400438137961 -0.3826297726903539 0.03749234051850317
Ni 1.9345829074781884 5.7561952707073445 2.241241155481484 -0.20585177506392938 -0.48743153708879283 -0.6162566609850226
P 4.860937696167354 4.454748079101048 9.230812836924994 2.631718718085422 -0.20613459641167078 -0.048803394655948205
P 3.427819079129766 6.945767887425002 7.217658615704096 -0.5751256952726675 0.05358333254309481 -0.24580954640378957
P 7.706734961673773 6.539755360829652 4.5041730974897405 0.8085479237556977 -0.3941112909673922 0.3760053253953008
P 0.5736426381818 0.48471246394327905 4.7861579826133225 -1.137904181833892 -0.47432559583445405 0.13203514619309517
P 5.8412452995217095 9.230607784800727 12.909521578588697 -0.6965604402420972 0.1723875818682128 0.07716523362809291
P 4.524670853475335 9.241643317306615 3.2980266768008275 0.46977062947391995 -0.5320026388309482 1.2523774078838237
P 7.937390639818332 2.563841274091256 12.586215894260434 -0.5545509564451094 0.6391096543237961 -0.5795590484536728
P 1.003767430480466 5.272906054917485 9.965589162574492 0.026862885829115026 0.3552318402933753 0.7479274818601636
Ni 5.120748058161921 6.007523931198232 6.047198721078135 -0.5134333604691932 0.7641076911644518 -1.0297211596680458
Ni 7.709186266613847 0.37708992446780365 12.078244927094866 -0.23837468739229917 -0.2821258643363206 1.4820013456666863
Ni 7.9385557087061995 3.8043413820354 4.924988523346786 1.3105079934779689 0.5680369067466863 -1.7308689621705093
Ni 3.6638713563629293 8.670591792331432 5.581789118469053 -0.0335544389166777 -1.7140182091617577 -1.0038090677879745
Ni 1.4942055089662838 8.289316008363297 3.587568664758677 -0.39410332054759223 -0.14916486389484632 1.1238533601677805
Ni 2.6251052564909076 8.077515805099994 1.533025604310046 -1.6525940404180055 0.09011922268559963 -1.0167941671937326
Ni 3.7965027985578246 8.957329226462406 13.404096117654003 -0.5586043005788766 1.054350785291268 -1.867997720836428
Ni 5.718297909922773 1.0255309173058407 5.110131950455668 -1.4410590989263696 -1.538289478735454 -0.02246758497489679
Ni 0.8950040555499903 1.7747261355115933 9.251521237365514 0.9916104688392535 -0.5696613297239866 0.06337383627095537
Ni 7.507070115946504 7.646710612570812 9.190979597676339 -0.01635761542241699 0.3716303362560568 -0.12298769127884625
Ni 5.463166464581883 1.1917256640224376 9.183517564463324 -0.32066412962083485 0.9288243867509682 0.6312258807003452
Ni 2.5864342899647927 1.1667093048621355 4.420140872855816 0.7972826352545237 0.775177061604736 -0.444517511334086
Ni 6.290132361190602 2.2273414176216635 7.1192895193636225 -0.020396561378481004 -1.1059528257382758 -0.7925338077156286
Ni 1.7438937524630542 0.32995682959532546 6.683331926184734 -0.5505215235707422 -0.4845413600251913 0.6637055984956053
Ni 3.9449605365255187 4.328417329451743 2.0707766643046286 0.8810561182277536 -0.02710122709216623 -0.11268013870525109
Ni 9.205106756983072 3.7886921767335573 0.6159178618194237 -2.1165136104277873 0.08977675174451635 -0.3723929254536941
Ni 5.8766167909573825 8.55281730859463 10.512657045451576 -0.8237505996380652 1.1821808922640804 1.445764217711523
Ni 8.899066461517902 5.043219714087631 2.624106093412672 -0.20670332443094724 2.811070132865978 1.3135519225106151
Ni 2.4378553848327598 5.244711387831078 11.65283260543385 -0.5639743066415385 1.38488203751417 0.2344632681530349
Ni 6.59065489040283 2.9778974362884463 10.633712363176613 -2.373983366778324 0.16044737878720108 0.07527881523865745
Ni 8.134706706667659 6.016322531439412 0.3718172887088682 0.10804932480145907 0.4619405919065399 -0.7094468092864621
Ni 8.301861470147859 0.5301930251052053 9.963692430425041 -0.79919090802083 1.2050814510113377 -2.9641860109887723
Ni 7.925124794566856 6.782099010057302 7.103150985128875 -1.6275550951715065 -1.353908986171423 -0.5062957209831473
Ni 3.469034556106985 7.215924061143837 3.360791267928054 2.870833883188172 -1.2456889401200546 1.2966790580146765
P 8.740617092767852 4.089978991136227 6.805437670019074 0.7035396997734077 1.0691032610100943 0.30610602930100184
P 7.729719440693633 6.0425598827942 11.39143308947623 1.6642758476313078 -0.3111793300588512 -0.14199071474391028
P 4.872784116619196 5.615846412199211 0.6981810458540086 1.3857754958627166 0.41245122692716063 -0.8501103205785167
P 2.299873946304775 6.465610376805731 5.068401979057567 -1.2373292553014497 0.5137999997799926 0.08814255857520305
P 8.747122837437706 3.0702174949631083 2.677334828706476 0.604572796889191 -2.713894003333597 0.5871736275761371
P 2.72587905501594 3.165687899910565 3.443049791687087 -0.3635899824500835 -0.8164854334352197 0.10870264211474182
P 1.6141796427633808 4.784257522243433 0.18022590434696903 1.584999481197483 1.429910281398402 -0.6488837029914244
P 7.885139630335227 9.305563656770603 2.4831747004606055 1.284926802574755 -1.1793102555845043 0.08851716830580239
