# total energy = -381168.67677443824 ev
CRYSTAL
PRIMVEC
9.23648220111101 0.00000000000000 0.00000000000000
0.00000000000000 9.23648220111101 0.00000000000000
0.00000000000000 0.00000000000000 13.51852533925380
PRIMCOORD
 96 1
Ni 1.541384167456348 4.438388370202924 4.44683790421772 -1.6424142716715262 -0.15066253148629538 0.8346304797753625
Ni 1.9157480318569549 6.007842207391414 11.138454125880127 2.769708539200056 2.245702802531655 -0.8011500886297299
Ni 7.737983127281475 8.974360175983367 10.240742861109029 -0.3258924678993097 0.1441959499253452 0.4790631105194395
Ni 3.3583572575181315 4.846493104472406 3.0400052691259662 -0.41770450490629996 -0.6485700284057475 1.5877469620356333
Ni 0.3451045357472736 8.59939594023278 1.3778217678124887 2.2862467853922883 -1.7336488389084919 -0.9628117994400064
Ni 7.938174644811729 4.9428757973499655 5.246350583689626 1.3756767168658177 1.309492664839577 0.026876769786185972
Ni 8.976493803396373 6.309478010103675 10.737386667480639 -1.9995039911092467 0.4812963707253323 0.6319905267805116
Ni 4.644860695702201 2.250321130477348 5.497281793127268 1.3614672581346552 0.035617234982977364 1.0903038063471093
Ni 2.3270578254871 2.06723557818037 5.293313477981523 -1.4995228994902174 0.41217149090321276 0.937511630112321
Ni 3.1508319730358134 7.322406078825317 4.172601202622086 -0.507186608228533 -0.6540932722168218 0.5417316931932541
Ni 7.7497042233295454 0.06813106444396129 5.414763983841324 0.22114392533630947 0.7206344504721653 0.7423098785630698
Ni -0.09945197594830259 8.570494987092975 8.434113707583286 0.055186929584788824 -0.7131466267355524 -0.7546532306197713
Ni 5.650907585104842 4.527936066173019 5.016941301676422 -0.3975503985559283 -1.10523728772849 -0.17968977195658084
Ni 2.4741026238206634 3.7599595082432153 1.011015193235784 -0.7170575317541844 0.4706648591534152 0.7731201790757073
Ni 0.7297245901020001 1.2704966143453715 9.066550429541604 0.9229579006678621 1.0340575822598708 0.4430746082399724
Ni 8.818808577444702 8.946336688662761 3.439572722798734 -0.43242638449750687 -0.45766741845248277 0.47075510487437633
Ni 3.0075464230013558 8.061435501203777 2.1004000915532655 -0.5404268583389016 0.6790957077984304 -1.7339290891530716
Ni 4.576224395676025 6.455774653370339 5.723473084704579 0.14830045901202202 -0.4749940826563885 -0.05958197332869094
Ni 3.6446050807062886 5.947509504959577 1.1445968949581036 0.8485422047604483 0.4735084992497974 -1.4452677376910785
Ni 6.172593342308233 2.483006592764982 10.406912719708263 0.15668071265591724 -0.29136332377418855 0.6470898443157952
Ni 5.337892436189884 6.139572918059334 3.2593975860768123 -0.2817132022789342 0.8164862047661681 -1.1278287998757608
Ni 5.373545257896389 9.283496002329224 5.076152695156141 1.7912708602973346 -0.8387229046771814 -0.31155214001723763
Ni 7.352359990948166 1.644380181665994 3.507678848740465 0.4323124846274619 1.057378002153366 1.876859542102432
Ni 0.6703192304938251 5.115782746144206 6.834534159701031 0.8674552396148673 0.22402150399442064 -0.23657465806908293
P 7.426556653323387 1.8953538789222493 12.475598425610894 -0.016712941879306702 0.10846610062390352 -1.1354958295027155
Ni 7.603906350107478 1.587945274767874 8.573786869387325 -0.376043634832404 -0.2685213861790085 -0.826121413863087
P 2.136398357698066 0.7678841931067291 1.663819282330116 -0.14749518950190726 0.8719163607100145 -0.6426652328855383
Ni 0.16291861682703465 4.030634622261122 2.1585973192756347 -0.21747907489021256 -0.23846056223788611 0.5268501480957314
P 3.2661125087142806 2.4440378739101263 9.685280211755762 0.862244127727573 -0.3235450507130557 0.5426236088799042
P 8.695538484570347 3.253744858904693 4.556770516640212 1.0401922344026988 -2.5915205485999824 -1.1924992434709527
P 6.745689360034528 6.258150877921538 6.421880457895161 -1.5946470315895762 0.17335020289179823 1.4886718157083265
Ni 3.2592128564306644 1.3658171117575808 7.824347007800212 0.9617458200693373 -3.1662736910245792 0.18157207658095828
Ni 7.010628618539549 4.336722409445541 2.8049728166840264 -0.20904097142518835 -1.028423781012861 0.40534778311316
Ni 7.721588371185867 3.403200379120484 0.5061389101836018 -0.5386198870371498 0.6289347706733233 1.0297525271266137
Ni 0.9884052081955372 6.547262010624984 8.686193011771735 1.547907461441192 -0.29075654342812507 0.01337590708627374
Ni 3.251343373504773 9.143212309044666 5.789863072233598 -0.18791395963858604 0.8246692547975926 0.3391416195997321
Ni 8.715849509164286 7.190342854794332 6.166705084837276 1.454196664749592 0.6777574486029811 1.8821467586433005
Ni 7.73792770838763 4.371156015487471 7.728811300350242 -0.9627968870416709 -1.9085699858318357 -1.7014347160697925
Ni 7.89770037934077 4.746212616061132 12.046695904129871 -0.4793179068427229 -0.9210758531538007 1.3066068586513497
Ni 7.797401417964879 6.48434309314708 8.58960342169049 1.97293009727546 0.21924336587948692 -1.7361158123917455
Ni 0.7816040639261183 6.72400209957679 4.304636717206149 -0.372046854968185 0.48229215897969846 -0.41681747431565636
Ni 8.601492621716556 2.7837187472465037 10.552479680872645 -0.4860405702785371 -0.19447438646492313 -0.38691374477768853
Ni 7.744254698768189 9.011102902602143 12.696612668854916 -0.008729666563513998 0.4633860661038149 0.5695713411133417
Ni 5.576941834787306 8.819021016537771 11.751085982474951 -0.5764865801759361 -0.14356885786430756 0.04556431889336024
Ni 4.014138264860133 6.744664110498409 12.310320811202553 0.579777335112066 -0.5124712536662399 -0.8183052602527779
Ni 1.2918975438515816 6.111143025517204 2.0066359414098502 0.6447825363388574 0.42875150674908097 0.11962057457882626
Ni 3.6925793698108444 1.1567400982476221 3.585654156027637 0.4480669192482412 -1.0832993500048183 0.05916674016814327
Ni 6.133837062546448 7.243138587663343 9.590514826930228 -1.0897967848037038 0.3262477943561994 1.4145389411486542
Ni 8.774224077346958 7.016835534650112 13.236244911181556 -0.27900917308420986 -1.4768331712021856 0.2960692138902901
Ni 2.2153148625323604 7.266941002569474 6.436508274925366 -1.063020545151124 -1.078295983252956 0.8832898926542788
Ni 6.995674753683893 1.2273807149345 1.3885822697005916 -1.2374102450510303 -1.576181625795537 -1.561243773538782
Ni 5.334502647183075 7.773303435624913 0.7927478798299777 1.0280597128052231 0.6619387364031696 0.826367468435622
Ni 3.019544613518648 3.7239464637267226 11.994392475767846 1.8789372505670674 1.0172407678128481 -0.2208240801030455
Ni 5.503133104668995 2.417547642652547 13.354113509202552 0.2979805719803901 0.2288685476740768 -1.6997357311008148
Ni 6.4928221839052584 5.635316402969977 0.5269348500986782 -0.08304328967542472 -0.5179926977051015 0.9033861491835216
Ni 3.9394151229933914 7.207365691686841 9.891613066372198 -0.3985071060422427 -1.3361382924515635 0.32049623658440285
P 4.911785797903309 8.320250971939002 3.145963423211591 0.22523866423097336 -0.08586096162987794 -0.28277121122980337
Ni 7.114021801488413 2.652098874366273 6.135098766029637 0.4592789859139768 -0.7958407606016745 -0.4598338299761823
P 0.8703694298447768 4.81886678589102 0.18120592814742548 -1.2252574117385802 1.2224163427453592 -0.008999889505765146
Ni 3.4286930702888654 8.7103630386737 13.224795367713321 -0.1600879385652533 1.6328821638113749 0.36514755674519045
P 5.45978629320044 2.793398580704643 3.3909601927667374 -0.3594602765524261 -0.2527831495081453 -0.3845421592217184
P 7.535399360833607 8.219813463328501 1.479846104083398 -1.2817648599070055 0.06503785423693961 -0.644953771809399
P 0.5529845011501952 8.26241211973016 10.762382435900882 0.9730990402986271 1.167768316383176 0.1496603154740261
Ni 0.6125099350283663 2.7515388428875758 7.099212949404983 -0.9438969648133744 0.48120818188690034 -0.3054779087986997
Ni 6.630510425661441 6.7072748301181155 11.971086983609851 -0.461948819436656 0.4378712096621621 -0.7010444441553797
Ni 1.9471520717020625 2.5919139556513544 3.049143844720893 -0.3386194285476749 -0.2988912567201175 -1.26680643882496
Ni 5.047728344503396 0.10187655255399104 9.459006715485915 0.06315760649509122 1.0415839725439031 -0.6347518915757325
Ni 5.372436880019503 2.8044361770619672 8.097772746249259 0.14971945084673569 -1.740099993850474 0.12870222516512028
Ni 5.38788027843745 4.979794017132582 8.23394435761057 1.9926386314479814 1.5574177149244728 -1.402387650498101
Ni 0.34256265581628137 2.470491159238476 12.937864044834418 -0.5299537267217195 -0.4963584072647774 1.4265040839303302
Ni 4.411002200161529 1.0408037723253303 1.4259336805034246 1.1889392940338364 -0.7580242039745332 0.2663578028687864
Ni 2.8308709894257023 8.984150847229195 10.920440815737772 -1.0880152674232486 -0.4857384656570861 1.3207502400312674
Ni 1.1274050304393686 0.566224998537831 6.784123286563786 -0.3817887648462973 -1.4920088505013593 -0.32896930705242056
Ni 4.490648387098107 4.851619352153006 10.403992144002668 -0.4792775405230907 -0.20870158580789863 -0.07212330032881129
Ni 6.9722048521408295 8.295016902275227 7.473392084159443 -0.46675832501015746 0.7799742258830631 0.07257889980899113
Ni 2.956985918850732 3.3497211465607264 7.434918440756262 -0.16502291397302546 3.455714086744442 -2.223204364318823
Ni 3.109979011790251 1.9828695487847188 13.36395498110107 -1.428216695746063 -1.8605098970998148 0.3083819698193721
Ni 2.097171017338604 4.188449158965096 9.39653761469638 -1.1349854655252 0.6695227193980147 0.576676327589239
Ni 1.034171978028628 0.1711714137686828 12.8316897570628 0.4082135346967292 -0.4918612907253722 -1.0532061301638636
Ni 0.896340570796681 4.218190631994874 11.662702083275585 -1.4016412592503797 0.13342122790734443 -0.5891603189888628
Ni 4.7753906636701595 3.807545865090861 1.4374654286641941 1.1163395682892385 0.06203352019297703 0.9884223009192591
Ni 1.550777669962958 1.946108349201328 11.144091151032322 1.6333786438318192 -0.6614509981334737 -0.8706498352927651
Ni 2.5926898201651745 8.595470435252142 8.782296762883611 -1.7234783261333932 -0.29377733253231986 -2.1481996286771583
Ni 6.890637476884316 4.819568758546381 9.910295699135343 0.22207235068784978 -0.6414491010902501 1.4923947730858687
Ni 1.8741376790621869 6.9642430043918635 13.307960654409012 -0.41062574368264765 -0.21168817924004835 0.13501762586018684
Ni 8.120040981444133 6.351753389624573 2.4496924483787073 0.6425593034352933 0.42204349860128604 -0.9944011442105131
Ni 4.6063260915157915 7.733457250950856 7.527736775111401 -0.1919984141206048 1.3033652117856007 0.8136533633030633
Ni 7.289561147740257 7.017694527504698 4.421707283155787 -1.2458879435047383 1.2914016116658211 -0.2920202406318971
P 5.563659773229287 0.6749374716475175 7.281726763447134 -0.20401446474487445 0.9579742688420467 -0.42512265174724206
Ni 3.444478218552186 5.647563978509569 7.955341570828234 -2.9138145005147558 1.0605921382152894 -0.03712107322201349
P 5.152802567232204 4.938322211572425 12.448088486706578 0.4446344965279246 -0.5892510789304561 0.7861194195488526
Ni 4.224970210008495 1.5120213902011723 11.408553807050282 -0.10267829029753285 0.590038607828758 -0.5583572175650771
P 1.2945668872384157 8.934042930711634 4.733322181352946 0.3335798092412384 -0.44863307616435644 0.8396189341288895
P 3.498724079143456 4.0145631430462725 5.248013150504955 -0.48310077092392284 1.2328635062206121 0.5087107581825432
P 9.101075476758377 4.679746889377192 9.231828043949944 1.1553797129108359 -0.46780142156269106 0.7254550117892603
Ni -0.03422301424532155 1.588157713860944 1.6686185585370328 1.2458540049430094 1.2227210184699715 0.49393977052095583
