# total energy = -340885.43380081834 ev
CRYSTAL
PRIMVEC
9.14547802591281 0.00000000000000 0.00000000000000
0.00000000000000 9.14547802591281 0.00000000000000
0.00000000000000 0.00000000000000 13.38533153001150
PRIMCOORD
 96 1
Ni 6.827254886223636 1.8749327593805367 11.699301664361593 -0.25096255135963874 1.7936666142230206 0.21392658165226383
Ni 4.78399045665229 0.5894818519496801 6.4801602135036696 -0.43355484167499525 -0.25267593450631964 -1.3197580513213272
Ni 2.8326380821400354 1.839347704033778 5.164114938133592 1.2263403603901135 -0.19069177949403932 -0.4503665139156953
Ni 3.4216434546799066 4.278071752790214 4.919577656998963 -0.842201350144085 1.0828990292426062 -0.1294064503209965
Ni 3.889882788706813 2.9905987801480576 2.7102615249309605 -1.5170300551360454 -0.6153356918326499 0.6138925316282202
Ni 4.887297777443085 5.055044137034514 2.5390499436816336 1.4169028133951402 0.2138137102234834 0.583074517806099
Ni 5.6463084426688726 3.747679749491509 -0.0057790276210785765 0.7614910794772112 -1.2335224799608497 1.1244565409694183
Ni 5.869019125733447 8.395951310912265 12.684168142575817 -0.3841652354982739 0.051494311224550025 -0.12792575201041195
Ni 2.7932485078972986 5.783609505614358 11.572060627342973 -1.9628955958575938 -0.11333782689390802 0.5505883722529356
Ni 1.1408983948877234 7.910427023247381 11.412761945886679 -0.3872384751069589 -0.7037009079416203 0.7673403391691366
Ni 0.7878509304624871 0.49514350154659126 5.047768909193766 -0.732700380497764 -0.21031521015192167 -0.2921994465222387
Ni 8.784743876551278 2.5226063740302656 1.3403932817565278 -0.17462187051537023 1.0193555001630057 0.8022875446682828
Ni 1.7617849041376437 1.3307859569963711 2.9490563603569715 -0.6720442002682878 0.6867002596185656 0.01187541128134729
Ni 1.7653150586901618 7.0832916915404835 0.7385504015861645 0.20354343864572688 -0.4200249255093605 -0.607204063864451
Ni 7.4521471148880725 4.285004025201636 4.104304010407652 2.387367244284398 -1.2639172902026232 0.1880168037650375
Ni 8.121303457630717 4.496273715143931 12.572279619669406 -0.5586724348126507 -1.22380165312866 0.5435083254777027
Ni 8.20707889687442 8.858584466854472 7.041032266265155 -1.3555097549996398 -0.5042036143408091 -0.4080068180025619
Ni 7.786780159128087 0.43186776756222905 0.0701814845092497 -1.149573390641704 0.0838264476983524 1.0528726580838448
Ni 2.056004080586004 6.926218104909648 9.222855262022845 -0.8522577059388224 -1.5233148597034925 1.4919594853206628
Ni -0.08477218029445109 5.05797069003142 1.9772816340648454 1.0872123119059791 -0.07434447634984616 0.01932158314674737
Ni 6.632785439579207 2.2046272454382714 7.269948156230984 -0.2898538291081976 -0.6308646407061844 0.874086885998772
Ni 3.3807357310700246 4.774259667937577 0.8910603946374483 -0.6433566025256081 0.33729942418467074 -1.3329606660545301
Ni 5.765702659464536 5.483985351599836 5.030355004314362 -0.9713074956158433 1.8183762011545586 0.5651467296830848
Ni 5.349656569041833 3.1114654189202913 9.669028386453077 -0.41891369472305273 -0.33182040334797047 -0.1787934853945566
P 0.6829586983143046 5.990983221879521 12.474005055485478 -0.7965388151099637 0.37798404638822647 0.6177676983129102
P 4.111111904316705 6.646119546671361 12.974388915992154 1.501551242774156 -1.3653465385844037 0.6742116402332518
P 2.5717450279439467 9.08685560061317 1.652793668698169 1.345732878118534 -1.3048942468356173 0.31648171610837106
P 6.438645230146929 7.824075418882412 5.779317532734832 -1.0683545557695278 0.15434332277199225 1.108338295251317
P 5.009335037414082 1.4832868045695398 12.963198508970235 -0.09137777768304908 0.5157486388659311 -0.06900146687037795
P 4.181349176242458 6.481098539558303 8.527085577964582 0.6849827627068268 1.0603936490512382 -1.2626052562594192
P 4.97955736067056 1.4574051015031488 3.8983304668419456 -2.6679597026953275 -2.0238762493060243 2.515069053209462
P 0.02880185422861649 6.15861069025545 4.073906270247909 -0.028498107439692857 -0.2590234739909023 -1.8490371205735252
Ni 0.7961650846171358 7.857145467747454 2.9483064311515146 0.20864836397246 0.6733672899550855 -0.7483985079593111
Ni 2.0055393323455992 6.981886630197677 4.982261678549262 -1.20922941174144 -0.49930129194318523 1.5977858343288742
Ni 6.607123227987583 6.266801696359833 9.612943741910799 -0.8449272337156803 -2.2039887106223204 -0.7087495261091213
Ni 8.869495022246065 2.6788751585869512 10.089220122105463 -0.2964353389804572 -0.9735929492159106 1.0258706755737044
Ni 2.6497559562677324 5.5998768502773295 7.225295359332873 -1.084866694491938 -0.4652030647078956 -0.6535340572792422
Ni 1.1350452888939107 0.37959953103748106 9.46144889693032 -1.6380595942472562 0.42452564159319145 0.12282699733126587
Ni 1.8932420065674322 1.5224385963812779 12.048618688263584 -0.010124490028511594 -0.2831342509961769 -1.970916409279541
Ni 4.055114141816524 7.421025052861595 1.742448619758396 0.6316678533337702 -0.51850151902072 -0.05327814259785017
Ni 5.769836415572667 8.04903588956336 8.20195560003421 -0.35981611722994805 0.5726582075687815 -0.33428891949312106
Ni 7.0810053220116504 0.8244749121231474 5.16735335193423 -1.6356075331623379 1.1617272523954187 -0.23871741544369857
Ni 1.0890435339737885 7.916453893325385 7.413278832897908 -0.6229366441083595 -0.6348110269484422 -0.013263806988441674
Ni 5.194485241858987 4.67988747926546 7.5918250875957325 0.6668618847364 0.8958898408064764 0.23392385070979715
Ni 8.422226269537616 7.81549696041023 9.319483640146013 0.6865120548671596 -0.3000364260681543 -0.2990169836647044
Ni 4.890498694783452 0.7933345591404405 10.648004262213215 -0.40089437532749667 -0.7931881534701759 0.6950571162236933
Ni 8.16013515770842 8.065561768517766 4.579710655633543 0.9173107296844137 -1.8464796442589944 -0.18969007770240232
Ni 7.230515598241104 6.274557061801635 7.174376995377948 -0.01526386813760597 0.20045708641091928 -0.15728595034008394
Ni 2.4106657218985963 5.741046450465601 3.03054622855583 -2.4570194573648974 -1.282235886006153 -2.285724337229915
Ni 3.496590647835056 4.781027321742922 9.518175554036292 -0.0884256370332606 -1.3417628377271924 0.3284345175948731
Ni 1.1553482503099486 3.355100955912748 4.0405097278141495 -1.087985699736894 0.667105882426406 -0.0822184797812842
Ni 0.8317336781032868 0.53594788125377 0.7033284217205845 -0.3721077901131075 -0.8850125317723403 -0.18324740740085216
Ni 1.372818574414439 3.525234285292278 8.52273507402512 -0.5390916844672458 1.2772019231266714 0.004865555622417426
Ni 5.166106823267111 3.066817194761238 5.540389173328337 0.13799624887253653 -1.6034772282866965 -0.5043897622096862
Ni 4.162783855668334 7.294744291045085 6.193741215339876 0.9511117373942588 0.12854178832785604 -0.03940344149828698
Ni 8.443324887549688 7.412739249689104 0.9653756352548284 -0.21632439246047905 -0.2507923443303617 -0.2076471764014553
P 0.13077484976238488 5.9875079401956945 8.23172504584743 0.5081402303910539 0.686250830785973 0.16894307496303806
P 8.677293654174237 1.48796928936459 8.018175388210981 0.6330374799877871 1.5766063720377816 0.8078035893905056
P 1.8918153119814403 3.8119907515985263 10.836456898805567 0.5734753041534382 -1.0419740088934701 -2.124602300973193
P 3.9891203717362855 6.286528492654605 4.113820794934466 1.2793032857403903 1.8981829861705566 0.7342350719747355
P 6.907341838079602 4.222192881505533 10.489054023473116 1.3520199966788264 -0.1689605584645348 0.9815713394356965
P 6.49258526007116 8.104274577379968 10.532970609382943 0.4983106458951419 1.8141575350875208 0.3798594090340684
P 2.462246218469071 8.810122578321327 6.190849415159808 2.0238250843531147 1.0948803699741985 -1.194319070288511
P 7.031272212020472 4.269804240573954 1.6034693615787465 0.10024011316968542 0.7068368824674408 -0.20912530360887857
Ni 2.787971567024752 2.0967197491554637 0.7155211731439457 0.7822655930204012 -1.0477240240033696 0.7464542397487467
Ni 1.6439637095778155 1.4785128649933361 7.21995440011352 -0.8218191869433072 -0.1074335455943311 0.3136550452928534
Ni 7.036951553930093 0.9246444193725722 9.351006274113942 -0.6172524492393885 -0.252728642121126 -0.03802970107921193
Ni 2.9782981120829355 2.012837423881635 9.390252264350268 -0.008037782702811963 -0.31417029436637506 2.0691939994062167
Ni 6.237627621171923 2.588920235844541 2.888661451978939 2.552263917092205 1.4427102613765477 -1.7171351575241844
Ni 4.268020872341464 7.4252319727946485 10.486109179519978 0.8207827752589929 -0.1401397775781006 0.8329386938952366
Ni 7.837647308405566 6.774293422457745 11.792397144288808 -0.08962634220958113 1.1389128256040644 0.39428946841646934
Ni 8.09266896565161 4.128698658732489 8.198194064885374 -0.7042015017271227 -0.4122316547171868 -0.44087502948549234
Ni 3.4444705680557766 8.644287623656002 12.9178223047532 -0.7544637403167845 1.6947177090609329 -0.3701110713980529
Ni -0.24577374977582125 5.1394477545609165 10.256403120244984 1.0621934212641384 0.5502441015396395 0.3261228387425609
Ni 8.595075805917398 2.6174266911300323 5.893695454784237 1.3020814599771704 0.5612846756245172 0.49190088571405605
Ni 3.7467834926362062 3.2591465995266797 12.316298601769063 -0.6544010332652278 -0.477026796815701 -1.8189593273515385
Ni 1.3913747495104485 3.8317907117182215 12.856811905698006 -0.9533388269525646 0.3394941178431443 1.2460805191315185
Ni 3.210821893165263 8.81369846026442 8.579368447254316 1.9568187935358947 0.43759970116833025 -1.517387181365148
Ni 5.726816086518144 8.46718543995259 3.6060217807718784 -0.08294378798308295 -0.8926818753921401 1.4103063911245455
Ni 3.2789099777339135 8.571215253514497 3.824550236694313 0.09147419405159729 0.7905908250566449 0.168712961230103
Ni 3.5038613029367456 3.1827452753511927 7.521204620136947 0.15454566859078545 -0.7407407343037372 -1.7484303680930404
Ni 5.118193663420883 5.0743502413359804 11.52685910175794 0.7542241135021527 0.5625064638467603 -0.8054001221553354
Ni 7.7559050250107235 0.3207547811999974 2.6597858021168177 1.1488290562765118 0.38677413387603066 -0.7025572812554803
Ni 5.098722940513341 0.6801437201504053 1.7529970142166205 -1.23930103431584 0.8307206031979951 -1.4573616927411353
Ni 6.232844536117603 5.9965619635298735 0.22224334913288238 -0.21562916616566735 1.1896939128116737 0.823814362996465
Ni 8.395366000312885 0.23061877799090386 11.200778908651387 0.7390322362530627 -0.26949223473271006 -0.205899083362097
Ni 0.0820239641207937 5.36815787126915 6.016412223779203 0.16148739001594126 -0.916875184808892 0.7994757862511005
Ni 7.025583724632735 6.154879335184393 2.8420140263038745 0.29034439559137093 1.9832211947888232 -0.460729088096942
P 8.286516519784199 2.0978354974855344 3.768787512981696 1.051337709496557 0.20662490578452802 -0.01174402790980558
P 1.7365068026268646 3.588767921759492 1.8913607817191083 0.0942054769398313 0.5700580509417731 0.47588574123272237
P 4.863876207989719 1.3325418887945149 8.434391584526631 0.49912362871474036 0.26207074545765835 0.19950320713808223
P 9.009987857053801 2.0186356570067554 12.54004821114754 -0.9415911994983331 0.18395420365988963 -0.2306392664212544
P 6.390101032310745 8.158552989994465 1.5278554630689893 1.256838528978971 -2.0510654081263064 -0.7184425850271692
P 1.686535910204688 3.7824691482422335 6.164266253921972 0.5621894468269737 -1.065281573271159 0.6475109910136139
P 6.8944375684588675 4.088943265365139 6.283208684098739 1.127228961508233 1.0316482014874298 0.009324619835035554
P 2.8040584630296217 9.042756105141038 10.747189716017433 0.020458267854351862 0.8879399898317805 -0.20178840362783315
