# total energy = -381164.8165747341 ev
CRYSTAL
PRIMVEC
9.26944165433895 0.00000000000000 0.00000000000000

0.00000000000000 9.26944165433895 0.00000000000000

0.00000000000000 0.00000000000000 13.56676483064580

PRIMCOORD
 96 1
Ni 6.572923947058216 6.366512021940753 7.0694239733856445 1.0850952655629764 0.49771697817520094 -0.5239707696654072
Ni 1.0683216810507372 3.7076190517450196 1.4099256307892103 -0.13088971973474234 -1.757560612529083 0.5698168814652445
Ni 0.8928696908125778 5.816704364027282 0.9750896376327634 0.676295519345474 1.5276970479315883 -1.7853025585290412
Ni 2.5048163122425064 4.259493795130972 12.937022206411374 -2.8082938556724213 0.6080327304133334 1.5835272675273306
Ni 8.825277748410691 8.978955820375951 3.877273006274495 0.28618203668356523 2.015996589447631 0.22353145173187955
Ni 3.4443761802967163 8.362389644198785 12.4267904293264 -0.2737157858957544 -0.807284483662242 0.7201202298399082
Ni 8.786410979863112 4.043608500718105 12.80581882250251 0.10591608050854018 -0.22819568997676828 1.8599347413226355
Ni 6.009898065450767 4.240797331462842 8.570206816659871 -0.1962188799598556 -1.0181686789437563 -0.08717788066908856
Ni 5.957210559506468 5.357310839291272 12.579972586167099 -0.9073908994675405 -2.1895473383860096 0.8046503884735045
Ni 0.5098313372086898 0.07710877673262645 0.8636023559658975 0.11881401951713087 1.0714645621534193 0.7764914095407852
Ni 3.0579887774497467 1.7612495169691318 2.543592240262597 1.8382192040224148 0.6978986994375465 -0.16964704300859818
Ni 4.7492354716019625 1.4014468725754081 7.262831798909642 2.4584695595478627 0.760549027278916 -1.9241899517572798
Ni 2.257692999702918 3.2421169650073756 4.25125418850995 -0.6293988547939353 1.2589594319767157 -1.4169596347750049
Ni 5.354993478896115 8.030784641093337 8.461184279509295 -0.24137670744341655 -0.2923154032748127 2.094334760337903
Ni 1.669417159229833 1.14623133753593 4.790125759246594 -1.4987803648972382 -0.5082852406093504 -0.42198693433173773
Ni 0.9749691348922152 5.574855363747072 11.015819205526896 0.5717482941600024 -0.8180530350326556 0.16137374725621242
Ni 7.635943507524833 1.2427262243902855 0.5984546142727745 1.589655749022572 0.3898188342396254 0.4168724959233079
Ni 5.0577317568469 0.28917506121427333 2.217786199809991 0.5174993030084506 -0.5188833278401709 1.8780162814146946
Ni 5.706778056322594 7.437938965921002 12.770246413492684 -1.7456029259465744 1.6131350630914345 -1.6841353055593962
Ni 0.42558416351482037 0.8387278094842775 10.106344237066777 0.9405398754156833 0.5856728746608946 -0.20951971083381982
Ni 2.1312392776599673 3.3433670753925937 10.443776938093967 -0.5968687433767139 -0.2835659392169568 -0.44547473304103286
Ni 6.150135447124113 1.5705122175645139 10.856125265975805 -0.42777320199621166 -1.10956805389336 -0.7361945096939515
Ni 4.774643010974469 8.680322220972803 10.680395192490227 1.5402175489961023 0.9426718341570216 -0.6489520943355147
Ni 3.4007727271014336 7.131491227265383 9.667717042303853 -0.725324399748667 1.3673481423954645 -2.534525876382493
P 6.771484655156885 2.663638924285016 7.196056595651101 -0.026505502489696287 -0.608095722440785 -0.3635796980374384
Ni 3.7462540842530845 6.054827048792079 11.446523808570856 0.618073145368471 -0.8732337939698575 1.7618114173856367
P 4.286681067286959 2.517265172285292 0.6124607405011059 -0.43199598182830756 -0.28097195323753543 -0.44112879736751126
Ni 8.203706073779985 5.165896870651269 9.322185630167668 -0.6633243038967866 0.518559625952165 -0.6387147328782227
P 7.09450615535867 9.039717009936979 11.864813848505879 -0.04015806027612438 0.22903052717323782 0.9079462577503783
P 5.726596122421981 6.787835950105116 1.5349713246560632 -0.12221867432330562 2.9508738672608987 -0.5628072829166307
P 1.7487821180431846 7.968002713267732 8.456015638883935 -1.45063311576805 -0.5488760175475191 -0.45393983308925046
Ni 6.281047770567348 0.9478930960351958 4.263843944064761 0.5838075393173817 -0.3773060464845953 0.4789209285146203
Ni 5.543589537295607 0.5834557308511574 13.611806037379843 -0.9687837007527252 -0.6527359868579791 -1.3989745110514937
Ni 9.156956907048784 7.910550714350989 12.794110590842013 -0.2003197895021066 -0.7806586535445975 -0.08608670448743884
Ni 0.8965274124602942 4.25181869750221 5.914051112562897 -0.06460308069236614 -0.6119045546639139 0.5229166173692801
Ni 2.0331500468537436 5.7674187431430735 8.132407383030097 1.5975181824897842 -0.45323637926432264 0.23352532971979778
Ni 0.8345046519001427 1.7292514046327978 7.32557850285724 0.5100047944036185 0.2542193677340396 0.47758112665727426
Ni 7.917094940106913 6.270304487775397 11.51738312778982 0.005366663628552048 0.015780145652392177 -0.3608165334700044
Ni 5.93060726217006 8.591632203929338 6.5281238089548745 0.28408684471743334 1.6637953084504638 -1.4883555700194884
Ni 3.2928856965444844 4.279552866711454 1.6745867267993502 1.3266347238365024 -0.8576595936806843 -0.12840963362536595
Ni 3.443458505580234 4.579502726819052 5.86613366125599 -1.7705662807601315 -0.06027565696160587 0.45905478571831265
Ni 3.444107366490878 7.703712394920817 6.919429577504527 -0.13975796875864963 -0.06820596755227608 -1.4065340685663066
Ni 0.2910039220381316 7.592868412499647 2.2256550287677874 -0.5590424165575598 -0.7264130048271554 -0.1701193546593264
Ni 8.619097559332744 1.411216864001392 5.615487033971604 -1.3924889033271501 0.23913496259709133 -0.2514711155649411
Ni 7.981461942442807 4.5216243335896 6.725316347476244 -0.3640658936452375 -0.7923340329999967 0.1687561557632126
Ni 0.8753671312200327 1.6463084413693232 2.5509994510296776 -2.0694454532953905 0.6705012812612001 0.27924700012662873
Ni 1.3530696569661016 7.849567058192026 10.975865131481907 0.30548947876292554 1.3752771674345539 -1.7935339452998982
Ni 0.5971698696696991 3.953101673124837 8.350058506064073 0.611420930159276 -0.42744332946061875 0.06886185596872013
Ni 4.019100097178921 0.6641517814754876 5.060348520205113 -1.1581354212791022 -5.836265850768903 0.6035572111404832
Ni 3.8389670389425428 6.2585322969679975 0.33817889107443044 0.019549897107469554 -0.5966368298715661 -1.0920362156571837
Ni 8.151194687225717 8.284285329440399 6.1069296529726405 -1.210522933741883 0.3235162543576493 0.12459051698959188
Ni 4.082781160837847 3.7876143325858544 11.693166964036568 3.152584880683577 -0.7945197277974058 -1.9771958145303496
Ni 4.44345513274015 2.54078174557535 4.615630375379556 1.6809885324002984 3.7333564613881123 -0.7367781501115633
Ni 7.828970358999867 5.859890692351436 0.2676161939860447 0.03186470991908061 0.8632502003945843 1.3573388377885784
Ni 8.257450296064476 1.8807326189434488 11.829445367210827 0.997541489611708 -0.5058262375458966 -0.13149341475701226
Ni 4.477492522224222 5.825139555865655 7.859986837472812 -0.0984511395900627 0.057698640263049016 -1.492863742302487
P 0.18137794424065604 4.274528829374753 3.831037031670314 -0.5908698454808018 -0.12263133638069201 -0.6758653737865908
Ni 1.8374721350866499 6.2740493421739725 5.399355172412693 1.6550296464426917 1.4481728271530157 0.13585991925582408
P 3.718584801134905 4.832419440346534 9.476860167102846 -0.3005421620599792 -1.140469628568223 1.9769032229905952
Ni 7.792467298055347 2.0023384230397303 2.8258893758240426 0.45062079601834654 -2.2114783341311464 0.876830253071864
P 2.8132013641884765 2.146237234137426 6.184300754901998 0.37570399210479816 1.074907269286381 1.3050022331683913
P 2.040241169662925 6.7154323419188175 12.660504567675451 -1.4105922977960803 -0.983473441554416 1.3610612809454883
P 7.626896532542139 7.222211252015006 9.588270512404591 0.06975505720695083 1.1941506630314467 -0.8537949685189554
Ni 4.828572622090572 4.577009247033862 3.693185604259821 -0.6146175827197028 1.9091155739226606 0.27842219023248826
Ni 2.9780676521415574 3.2917177469053254 8.047940523570766 -0.8638862913166863 1.1199277998611292 -1.2155406986714485
Ni 6.404776276785594 3.8478749723015278 11.047159187511005 1.5394148505891487 0.33343994122926446 -2.099611178245494
Ni 6.907587865885271 0.6100395623602455 8.388439555872829 -1.3341953097925796 1.3171648366728541 -0.20933047764114918
Ni 1.1199802789795867 8.707704151401984 6.150180867387858 0.5269997862997181 -0.9682597099284551 0.8821370099967583
Ni 7.045878664826687 3.642881271745902 4.276054579458925 0.8550290980363726 0.5310328187185113 -0.06830238392082431
Ni 1.5364933669636027 0.5390625212332056 12.425678096336725 -0.27413487571104406 0.1692256392004634 -0.2903145707947
Ni 5.4546214370047235 2.663147643881243 2.420392092214447 0.6629100991775035 -0.6576532216539384 0.06811675027257946
Ni 8.001076080827419 2.7145188891210927 9.019334434845334 -0.04439215296213 -0.8281736684064254 1.003456312434246
Ni 2.004794825058597 5.405882713173773 3.1899123969694267 -1.0812663787351895 0.4984798244831544 0.3148516367041158
Ni 2.902215811687264 0.4709979386507996 8.003482427861751 -1.9665244508594324 -0.6400797315465492 0.2540550742420334
Ni 8.732972649150781 8.710318133927721 8.456897162778253 1.8303202608903124 -1.4252416722781391 -0.38084491287578925
Ni 5.859325256415017 6.141931991325256 10.084677844316213 -0.7445544516228726 0.047987326512556064 0.30821587655515303
Ni 6.8297245566079825 8.017269795268778 2.9564420449339477 0.2950474574939951 0.7964783941856736 -0.08357190848538511
Ni 0.2639760842773314 6.450483893219679 7.066723785053207 -2.183801694151484 0.7149829086133428 0.20702574076737248
Ni 3.241486642979893 9.312359095148041 0.9278812986067743 -0.8926584783533724 0.04853342882401319 -0.43488898710538654
Ni 5.563129520147575 4.280581774726905 5.9750338417777025 1.9635072612996636 0.01616992489164312 1.1517161480163198
Ni 7.196034348991307 8.143306392440602 0.5637312861117355 2.1914543256007355 1.1660677887523014 1.6709370617015675
Ni 7.909911122881925 5.987781177839385 2.8740923259316333 -0.7830898886939095 -2.306794784746969 -1.2628348557717217
Ni 7.964100278362287 3.7693628021135943 1.6147432119548049 0.085149280274834 0.8609470061827045 -0.6407088804901159
Ni 1.9669569645264666 8.932627151355964 3.0560764916516625 0.5466818381096779 -0.8424705446450717 -0.3374423775204382
Ni 6.294720196898776 2.746053529378395 13.032614249655776 -1.1333386739503966 1.3329110437635172 1.230657242597913
Ni 3.5461175710857082 6.9901693209271025 2.3983187709784937 0.8870128500318207 0.7414233621930586 0.0014776129867910036
Ni 5.218371179439214 7.887942546335833 4.558703953800435 0.4264691384728075 -0.7884526956677196 -0.38506974959041423
Ni 5.820616068374308 4.851115904014663 1.589766701615798 0.11462055026107357 -2.423554749948549 -1.2001125370418364
P 6.630885765261894 6.071966246274663 4.712022371432367 -0.20760758141277147 -0.5035767793900876 0.8790961662879052
Ni 3.918600811561733 1.5217364159672404 12.07215457166972 0.35626002444757354 0.36570831434466694 0.6791921241669787
P 3.1800858619498014 7.692746645530932 4.303309518538451 -1.64107781224829 0.021577469060459615 2.131435521844942
Ni 4.078591373243402 1.8666152594161498 9.29077798126002 0.9793596764963585 -0.3502958364443387 4.313141252699347
P 9.021131779567817 3.803900741443021 10.814963383692863 0.43711453400179556 -0.9578218024245828 -2.412724492102264
P 0.7940546627305907 2.201084519970012 13.372664640985334 -1.015451280012593 1.1535071784784716 1.2730141102975687
P 2.7643792153833004 0.4517675551476251 10.68713778429598 -0.19777928246844004 0.10437547549429767 -2.0117835798075485
Ni 9.027648196999 6.804252131144412 4.562027975551248 0.49098891542274803 -0.6637886451277148 1.2902358734924941
