# total energy = -340895.2797572041 ev
CRYSTAL
PRIMVEC
9.04944698670482 0.00000000000000 0.00000000000000
0.00000000000000 9.04944698670482 0.00000000000000
0.00000000000000 0.00000000000000 13.24478039716484
PRIMCOORD
 96 1
Ni 6.21675272352147 1.8139615989930924 11.313943189237056 0.43985532997172627 0.9499920219675188 -0.18609696103450532
Ni 4.359145642902318 0.2951730438694781 6.086611725011719 0.8105423284779072 0.17740637523904285 -0.3319029357594478
Ni 2.62497301581405 1.4652773666618235 4.874079071179817 -0.18292293418189787 0.7023855315643065 -0.5891922006680628
Ni 3.5152213882887042 4.379877925383202 4.802809248435842 0.20926542873116863 -0.30980610386040836 0.16811955062047818
Ni 5.32901104779374 4.549075431077259 2.7695361175930215 -2.1014826842365935 0.5976231050442353 0.3442614573248007
Ni 7.281166747950333 6.149280048629515 2.6641878883163033 -0.4678556718393943 0.9712380758304886 -0.895247065016155
Ni 5.085789067768112 4.438988911487582 11.320697696283643 -0.08681818333682467 -0.35250389983925096 0.14065862619604808
Ni 5.621380573063228 7.731964937293514 12.1518079343137 -0.01979389479747559 0.10123770119626435 0.42402324803547625
Ni 1.9808243474282814 6.394836785914013 0.25619888665050355 -0.13742906351515685 -0.14629654120811578 0.6805128998609312
Ni 2.7553212466541424 1.4252607131784238 0.4161152797682214 -0.6711954791147472 0.5026331845298957 0.6525842917714633
Ni 0.37018300295101386 8.86311863142841 4.477795653941869 1.0281566433944034 0.4342654945887747 0.4940212744911686
Ni 8.58218760683803 2.2502897229993333 1.564619478137336 -0.0570509793767211 0.5335602131260553 -0.62879618821293
Ni 6.9281297317372195 0.4237620622633531 4.5633563629773395 -0.6142635418143937 1.177225605141334 1.4947943836662967
Ni 0.5235448817950938 7.363797246131455 2.3233594806998554 0.6573894264695904 0.95565693356278 -0.37357768979041467
Ni 7.551600414322542 4.030035363869238 3.6592940100543787 0.7056927415606684 -1.0532835203690183 0.9849441125626713
Ni 7.85584281371465 3.906012696300267 12.517879773610822 -0.3524568486513995 -2.04879255293173 0.8947076475729171
Ni 7.975530796295256 8.97894250025112 6.8683988585311635 0.37320308005981534 -0.4438104579647324 0.012481934517094633
Ni 6.7331955995151676 0.5775700788317053 0.18548017521298138 -0.7724455216061858 0.1913432970351092 0.8650715698740391
Ni 1.833761788459777 6.488000840100262 9.172553603359814 0.3718589073270951 0.2568128394928286 1.13664048463012
Ni 0.0037464709502775767 4.738199818492358 1.4780778090752718 0.039773423243196014 -0.18261645868507262 -1.0674518414496004
Ni 6.631968488283755 1.8611092165074552 6.848147101672163 -0.8820619337844486 0.766491618015596 0.5020264041838322
Ni 3.7223360758225277 4.255819060027271 0.49788336567504043 -1.2952294700523437 0.5378508700816093 0.6728870078845572
Ni 5.998380524243334 5.59307390366113 4.932011819318674 -0.18850197093157212 0.1980019400022074 0.34151320515570216
Ni 5.442590653824982 2.9628069615042976 8.980517103983846 0.2735522637346966 -0.3859858336467804 0.38672271181280493
P 0.1796387573424399 5.6659943454904464 12.537230205574538 0.07830474654917481 -0.07224517061865622 -0.31133771001358634
P 4.030261600037733 5.976544209260195 12.476993468295726 -0.15118292276613962 0.6677188334200564 1.2101814912420643
P 2.335553610181737 8.384249058298364 1.306756398231383 0.5361164038890057 0.03854700703526265 1.2249936165542323
P 6.353390319845724 7.733467145452321 5.854735941308452 -0.569574169326819 -0.4995517173910945 -0.16850804430814853
P 4.592621368789182 1.1213802916559092 12.619732201611955 0.67333643671715 -1.3503402949835581 -0.37402531885079454
P 4.110611637640425 6.283365700973144 8.370264043306676 -0.2827573272727324 -1.2253088338018059 -1.757936764921579
P 4.7042643932181045 1.1242489662724262 3.914494742729482 -0.23705134059518526 -1.2379090390643197 -0.26998691498094146
P 0.2222670811549461 5.645479249731317 3.4667552663843524 0.38912463638607825 -1.201765499264227 1.7320760951047334
Ni 1.5120539568598543 0.9828332620695573 2.628333980333212 -0.20302998934441807 0.8288321279260306 -0.5409315658894619
Ni 1.883515646635202 6.286804490734269 4.920343462692376 -0.7516072447045958 0.8883351683876702 -0.8354416628227483
Ni 6.129307919674774 5.664519285671859 9.385793861391807 -0.3732411323866024 0.21667663359357522 -1.1523537816003186
Ni 8.731811159233898 2.3565121288311164 10.249340936316006 -0.9282489738634723 0.29405681144595164 -0.14989865673707733
Ni 2.3296805192476064 5.3908187690265805 7.125121708147901 1.0030840166964918 -0.5950334899401881 -0.4308140457050645
Ni 0.7068468551778052 9.151434004558466 9.168341085902437 -0.06993169199413117 -0.39677315407027147 0.31129888635585096
Ni 1.291564187044605 1.0580432139240428 11.3847098627423 0.9879818709477308 -0.07349549808598956 0.2232560865833058
Ni 4.074413850681222 6.901913484532016 1.571479863710779 -0.22171291046590205 -0.04372957967746663 0.1198504312014452
Ni 5.702843692614916 8.176890035702566 7.904961400728941 -0.05262688216709647 -0.9092158684914212 0.2726958292716723
Ni 5.442952631694574 2.859733763137965 4.918673839768882 -0.3093196511422931 0.40508064549470235 -0.15521261275082301
Ni 0.6330169439511394 7.404818388202973 7.160021804444618 1.0626510776268474 0.8721680717095044 -1.1195804438240398
Ni 5.149533370603269 4.579155792040358 7.168048663702821 0.5140175151074373 1.0526518003222902 -0.3442596575525878
Ni 8.364629857766475 7.277420277000055 9.347330997913634 -0.30037426902354725 -0.6525009880290376 -0.33815354465484987
Ni 4.538487578391692 0.22162728527044215 10.356067396331195 0.13379120965225344 -0.1907455155501102 0.39155767130760305
Ni 8.190111277389414 6.996344461261839 4.847152442405539 -0.2147421355750237 -0.2707644165769143 0.563883289589629
Ni 7.295908296689468 6.227575861822272 7.217319281422341 -0.009793846161970229 -0.36087026952607526 -0.5074385763383389
Ni 2.2299465667282607 5.166184352604502 2.5155941629594243 0.6174823058620076 0.2289924748464508 0.1980176237314912
Ni 2.1855409315760577 5.23496014782699 11.307823953351603 0.2365047240630959 -0.12615117660849243 0.5875040143323623
Ni 0.863985973091078 3.341806840413899 3.6601817607795533 0.9768099134913113 0.04833905342501997 0.2825894342363004
Ni 3.6743378103146234 2.6239142305454934 2.6671280535620645 -0.5701362124778762 0.5434733584747092 0.0428741736557068
Ni 1.2551130155766874 3.467738941244969 8.061157566291927 -0.939835136039175 -0.4729446563265274 0.2253546209835474
Ni 3.8111201977867144 2.697920605983585 7.136605456060709 -0.11491365602146016 -0.45397480009224395 -0.6039835000446244
Ni 3.9828153507809567 6.879624697211886 6.028136915013147 0.7728759242753851 0.29713210793716566 0.2029708539717085
Ni 0.620766707899471 7.641597162149863 11.425689377358815 0.8053558991809614 -1.4514795229287454 0.43352218866484693
P 0.21659126815974294 5.5519079704417775 8.045210631247048 -0.13273602891486172 -0.5118629306582798 0.6409027416684768
P 8.80037881718137 1.651026310442977 8.02033641699336 -1.2006727804206805 0.5117179204399832 -0.2283180744872455
P 1.6453161095501627 3.3279883352422237 10.264214606977543 1.1499865669197227 -0.1998960717011267 1.1954696389531865
P 3.8467478696013107 6.250688148795723 3.743557933372035 0.4507071850845657 -0.5174342540984701 0.06875181275341707
P 6.931478027030946 3.7486428174951287 10.359736042039511 0.5005819584278218 0.7525264140847555 0.5181287090623334
P 6.42766817868601 7.761466133665266 10.033609365596543 -0.7352038636459081 0.20860542654966652 0.9650892826202734
P 2.1950971473332874 8.493919303338012 5.800365960351054 -0.002535364827344021 -0.8284845147786248 0.5240499596427749
P 6.894827767734752 3.9829872902690138 1.5084477523340436 1.1224870759478733 0.07874029142469666 -0.7218210145810988
Ni 5.546939824181626 2.9856115672885957 0.12693839930853532 0.4906155912437293 -0.3439768362048463 0.0025783022501374947
Ni 1.6952690555538636 1.0782506284940183 7.189955564370531 0.039281056987809766 0.1627570007569842 -0.9322508959340138
Ni 6.941423368997987 0.8812079751815932 9.132937840366987 0.13663022176294531 -0.4219751072571959 -0.1179061629908808
Ni 2.8503494868687915 1.742805799278038 9.250511872189175 -0.34737969123880813 -0.31321127288721545 0.9356159557515048
Ni 6.077907062192705 2.1627182268982796 2.439423159861172 1.0583344525293643 -0.4293117501279251 0.4245192138352882
Ni 4.020551543685927 6.722598697382861 10.47084605405546 0.2871037771668862 0.6557328647027739 -0.266154942829361
Ni 8.100648446919744 7.456074454537205 0.22871843173575013 -0.968841550573854 -1.201683481073382 0.012245907246888586
Ni 7.771167140570332 3.8580958758130213 8.291298571055172 -0.0800178725855396 -0.2801970227447239 -0.754932452423087
Ni 3.025582973538296 8.355689004387553 12.431405070454632 1.1294133707540612 0.02003763537716549 -0.20873218193551793
Ni 0.025913090739419907 4.940726436529102 10.278890094755479 -0.23603884017027088 -0.6053155885924865 -0.6894811647978126
Ni 8.868883129001663 2.4620377272639344 5.852047350682057 0.2544854769112327 -0.9633023659231796 -0.11216617518331004
Ni 3.4268173430875892 2.7331229538014106 11.726279420046737 -0.02215005373447798 0.2334839349589011 -1.1884618401767855
Ni 1.1620213569643552 3.2336207046395793 12.61530883204554 -0.31570987093935304 0.14671357414087638 0.24277358779094318
Ni 3.231684123037262 8.414664248790835 8.285470727354742 -0.6052011745018093 -0.7093174827974494 -0.4446208696811697
Ni 5.54589913780655 7.782397503974425 3.7573981572158863 -1.0750024001033485 -0.09450192513432758 -0.7825270742119039
Ni 2.895071852656888 8.325952522400566 3.681903147789097 0.6571230601820812 -0.40169887350666306 -0.4615796090226954
Ni 3.462481212689145 4.185070485415507 9.328894560070637 -0.19390463000438218 1.2747051248467465 -0.15660846465708514
Ni 7.255574912570175 5.8395355856196085 11.534428434328936 -0.6549039410435753 2.1700162103316174 -0.3893259537636069
Ni 0.5441667610257522 0.12344350297762421 0.39665625444362745 -0.025857327382736117 0.08598720279509707 0.20081292708844126
Ni 4.610711212822043 0.36540941979576885 1.7161787071908476 -0.20408748407465496 -0.6096008462314018 -0.09834546725013386
Ni 6.01079636517034 5.7441906147690664 0.48495623100723484 -0.23448743652275103 -0.3919412798992669 -0.6549903301097946
Ni 7.8277442815875675 8.96904240551778 11.283161496151624 -0.13892698821692204 -0.3057933831565895 -0.3996191081594988
Ni 9.182745090278177 4.823644694609558 5.920177920351997 -0.24721028340605813 0.26221035635931617 -0.3562636239919993
Ni 7.731358624361949 9.085554032292714 2.3855174155215257 0.4177497563219386 -0.8196077811142852 -0.6190756184910564
P 8.487286058877737 1.6447369449588154 3.718432144498977 0.5022063814051222 0.5164510642495944 -0.23763112435805525
P 1.8556976473570541 3.217413145528596 1.4938392304619832 -0.1316502520498507 -0.33883822942670033 0.3715506320580569
P 4.68269051219042 1.024352123711764 8.25601477821669 1.105607012363083 0.6550967737806717 -0.45201047727702154
P 8.450219525031514 1.5744770404710011 12.51744268533329 0.03669915519324648 1.5000060097742232 -0.18757971622761888
P 6.184400951426682 7.719268563517574 1.4585418634533898 0.3426455189879325 0.38675536482295325 -0.1764856631969864
P 2.0728934185590155 3.256497705997796 6.022878281512649 -1.2774058116073612 0.5842937349251809 -0.7359849647863067
P 7.072160726047891 3.9165824500923545 5.979329628966705 -0.36713347682696773 0.3861982067679026 0.4069935462466991
P 2.388791505351986 8.332232838437989 10.350530944815786 -0.05173908024550444 0.7680818453208514 -0.22307816624454482
