# total energy = -381169.6847612409 ev
CRYSTAL
PRIMVEC
9.25691410706499 0.00000000000000 0.00000000000000
0.00000000000000 9.25691410706499 0.00000000000000
0.00000000000000 0.00000000000000 13.54842949890419
PRIMCOORD
 96 1
Ni 0.57741573748605 1.2358720528705038 8.77481654371741 0.5631872919638689 0.5906207055844731 0.47832391836056976
Ni 7.507060902509863 4.090269205990755 4.451119444204061 -0.4507359814399721 0.6982409132683137 1.0613722109144237
Ni 5.014099950248952 7.176126232751343 11.704243760580141 1.4864940913307174 1.1701964662086943 -1.6330423435383232
Ni 7.115206482774257 2.6157261435990224 0.8337415330817808 0.9997248704162719 0.5787959450354032 0.27991445850729857
Ni 7.094869043069097 8.477435409552559 11.068172514242123 -0.24967237179330548 -0.9449930260910306 -0.8441317343975784
Ni 4.565870925231405 7.342315606910075 4.214685830757816 -0.42382707286427007 -0.6534019025767522 -0.3393038562092092
Ni 3.553849562825252 3.630857829055214 3.019023960222894 -0.029253497548478648 -3.129619273026339 0.5457675538255246
Ni 0.2383812681180555 7.88703870178952 0.6677400742739873 0.6078206144025273 -1.2542013484664398 1.0361221780983834
Ni 9.432702633209356 2.6726931913666845 5.983528400697262 0.19352796339125378 -0.01617121044322376 0.18591852647511206
Ni 2.6380630766934923 8.20397691782287 2.24245497839601 0.3251381062317884 0.41563270997893575 0.1529443855419366
Ni 8.052487522841101 5.287539928150965 6.496417894574396 0.6022112386355499 -1.0977245242912128 1.0447559425139814
Ni 3.739635823581993 5.5254796414788805 8.68848563955979 0.17023402586031972 -1.2457316204325322 -0.2515760165739216
Ni 8.225184507428933 -0.10386072189529076 12.943789882553505 0.003199223663588039 1.1589298921559394 -0.689542099942735
Ni 5.492478743641422 0.010916678490803437 12.75211992736044 -1.9988457886999575 -1.5479097754340372 -0.0649874606149784
Ni 6.61719377512842 1.657737387273442 12.127510591738366 1.2411535141435464 2.652307855090684 -0.4585549632637586
Ni 1.3197674629969784 3.6548795204684543 7.805466777036734 -2.0846998083513 3.222630472547753 0.5015312097149686
Ni 5.494709659876717 5.3648999571068225 6.399058303268516 1.8696239435859414 0.14105920406857642 0.5157350120191763
Ni 3.1432498925648624 0.826821064295446 9.11447492907818 0.2371899230555786 -0.3559404363246257 -0.047574407344853555
Ni 0.6836397494845393 4.602176541309529 1.1784477135591749 0.2398597565782579 -0.6907368915817845 0.10893738383336724
Ni 6.66666272268617 2.834587357503937 6.985461578401238 -0.9493872985039843 1.045249594320948 -2.0918168790120557
Ni 3.2550456410032864 5.63118434061098 2.4745526533998814 -0.9604818657552492 2.789173847013519 -0.046567306236577864
Ni 8.972643272305056 2.376694114438057 3.500439947046071 1.1152921008613308 -0.6970754322053028 -1.2470379979487813
Ni 5.862690498820513 0.023926345200695025 8.21224519326422 1.180763185980947 -0.3767383469065835 1.6364701382729496
Ni 6.239122900099681 6.825863126896158 9.012442447666169 -1.1112860650257312 0.23246912054114158 -1.6207930938573247
P 1.4720344387412554 5.479491293524745 5.761090315284804 -1.7245833862721138 1.40097380086971 0.9806650255713433
Ni 0.7094461738860164 3.2176384521782744 10.254210228960988 0.5699235822464378 -0.5499849343409817 -0.3059401931470989
P 6.960791903019239 7.936590961571824 6.705469556883699 1.414664668093241 2.002455617538403 2.667308185154258
Ni 0.3425206231199122 5.083860052942665 11.463285367649199 -0.021996044655116957 0.19651712792656478 -1.9319508266496213
P 7.5618433186114276 0.21230639321523595 3.079165203746086 -0.08358964909719799 0.84995733994042 0.15661797773878186
P 1.2416113394509314 2.498126310183295 0.5271710605485591 -0.6172987290962917 0.2492057165695321 0.8045164339988016
P 1.19664125201913 6.481755868744172 2.3214692178549696 0.14912629734742705 -0.7019661846387008 -0.44975896223868345
Ni 9.211314281826287 0.8833752537058712 1.4517007018016312 -2.02629591449111 0.36461739527333337 0.5694684969868902
Ni 1.8940571406794633 7.325366197670136 4.381521337502538 0.027177845966372547 -1.7440723482346607 0.7538479611096565
Ni 6.113645433006624 2.2344708902095283 3.1207583690092746 -0.4450795544851432 0.4261022420516919 -0.7838730467168371
Ni 5.695705030071592 2.5034860632963074 8.947246929186665 -1.1256366773204485 0.06795682765594747 1.405148758183006
Ni 7.246219584343273 3.4715093142237965 10.676690222442863 0.5424320616943885 0.5936587210798485 -0.5798737514806143
Ni 0.6143471209397169 7.713777045457486 11.55605167830797 -0.6443053395921227 -0.5061178006443864 0.5865516777214221
Ni 5.38173828338069 4.928760461563532 3.586621814890877 0.2396309283969034 1.4294611096761252 2.058402565217668
Ni 8.328223215375285 8.417931967392901 8.69078875972303 -1.23954143246142 -0.2717051832236288 -0.19773274550122075
Ni 3.2249976986805966 3.3718401229149855 9.451316435557619 -0.3135342034442729 -0.5964244567504438 0.23617125198307712
Ni 4.07094076989409 3.7166786772602833 6.923870702170796 0.6128412075455704 -2.6633404587557616 2.223809859113306
Ni 2.1552502215719502 6.435517584116374 -0.08907095065408271 -2.0508463501369647 -0.7564378333240198 0.3449309725879995
Ni 3.0715180672233586 4.23547315647557 0.6045949622099099 -1.1713069256640536 -1.8171037622000383 0.47192032882707113
Ni 8.20518957353583 1.119873665548993 7.083891268946954 -0.8695344907413991 -1.167124769261906 1.2517588004632183
Ni 1.338679337970871 8.2284429411004 8.661564682732049 1.0052589128606235 -1.691790251001493 1.8522265740451003
Ni 6.736413568466043 7.144152852350058 -0.027473594583952782 -0.25311379337468665 -0.08609184669376141 -0.04398591866264683
Ni 8.739693035536577 6.000618515027561 13.113538540083486 -0.8459235361906786 0.6545092767083179 0.7625750565700092
Ni 2.6422749724904193 5.098958079414724 11.365831355822156 0.2787194097579329 -1.6381477830856883 -0.4220273006513699
Ni 6.88266355021471 6.747956940023773 5.138905365397268 -0.44971833880873524 -1.0366970767652468 -1.7610580841593801
Ni 8.871455947126584 5.943947688502759 4.288456954218139 1.6928220347001168 0.4889263764667644 -0.2837927105157822
Ni 8.473112430789561 5.872234376988934 8.842003224363769 1.3830002471104248 0.141084400879557 0.02845465579626712
Ni 4.794414871012332 7.603629027682476 6.8286661204067265 1.5651670198525884 0.8738274616897983 -1.5247575056872902
Ni 8.80868481438162 9.068804093268735 5.251669387023293 -0.44441235321478945 0.819389237345576 -0.9523592366481146
Ni 4.263993708014759 1.8453750307980632 11.018558233137096 0.7203104914738434 0.5910228261188983 0.5411984463976034
Ni 9.015160277569418 2.9520020526428756 12.481788421125698 -0.1717617753587558 -0.3289088861281303 0.4906981236552065
Ni 1.5968916926070713 0.18674157426496724 6.80652728526842 -0.1932317723070737 1.4267305981188396 -0.4769285806749399
P 1.5566796588887215 5.469790047821055 9.27414373312844 0.018716088352264543 -0.23262930026808967 1.1297463286134481
Ni 5.8087874895336915 4.836561599723115 1.4558329881395389 0.6299305589276892 -0.55683949536897 -1.6011658065447005
P 4.216718649036948 0.5023143955070045 1.2724535249810414 -0.39235831283202743 -1.915724594598746 0.35350045942456537
Ni 4.3159620223091455 5.712506328690101 13.156093498694588 1.7402838277265062 0.10847895613970994 0.3279390660156933
P 2.6429507272006956 2.2614177663960193 7.529471890915048 1.0356244125263583 -3.2456109926033263 -0.26997380235481894
P 8.000269271873051 4.0980635274435295 2.432890986974282 -0.7200510671648696 -3.9229460089569086 -0.4877948339654825
P 6.282658165886375 4.612831249138677 8.374554994832861 0.22948406977088864 0.3945715184332624 0.45913963212263503
Ni 3.4922262873963716 5.063800320652686 5.407516937040649 -1.2989665684972724 1.5357638841001229 -3.3388836733162433
Ni 4.384333587926948 1.112384822252919 6.952105215072347 -0.2589347709318379 0.3951047652289131 -1.0189796048808257
Ni 4.18725389228614 0.8676653452290268 3.4632493700049007 0.6098075629255693 -0.38343478509015255 -0.894749042333814
Ni 1.7946101153027982 0.3106055612758157 0.2189658170312997 0.8177619861547981 0.701634769441211 -0.7797142873534572
Ni 2.708721100029626 7.061460841022706 6.982738194349687 -2.498955435477051 -0.8765417752971678 -1.1781293479025257
Ni 0.19490432088854945 7.392552878316495 6.614478722299325 -0.07746219604322142 -1.493798081191298 0.3429453096165384
Ni 7.158019709281478 6.006089351106646 10.811755075199383 1.4222123985335118 -0.07152037663748972 2.0419919850701285
Ni 3.802805003622053 7.650746719125016 8.882540175757882 0.39525466054321606 3.1910740378977107 2.070941321114627
Ni 5.088155260964146 4.9170689793843705 10.914154130399432 -0.4843557263769465 -0.845060673969751 -1.156017346494835
Ni 6.832454049549809 4.477282259788355 12.643759419647818 -0.45661635148014906 0.2033374932825079 1.451004897285172
Ni 8.25048365295201 3.4588273422638194 8.57031650594294 0.26489124562558897 -0.6148451253494767 -0.30758055696399933
Ni 4.694690138220484 2.476344791919189 0.8927164054612089 0.24540562609715152 0.4614363985766118 0.6540588194344606
Ni 9.321156821444596 8.093227200648297 3.1488716163395294 -0.6527447286087275 1.3150393056894192 -0.9330636216432963
Ni 2.418942669201075 2.6206230510200643 12.381110226208394 0.20058615578961583 0.3691633627728029 -1.3669527067292586
Ni 1.1877361009056282 3.9602280803748755 4.3604674126662095 1.0241423800286877 0.4153038658846073 -1.0896044662872395
Ni 4.899175364932812 7.102385657106689 1.6747080874152125 -0.07976101937972715 0.6096887779595178 -0.14209818685605202
Ni 2.8398545414785548 7.273212745098961 11.118450516069437 -0.12772983394952195 0.8466645281217613 -0.4756697685671743
Ni 8.083183449132548 5.922443877653834 1.8762135135626377 0.8957707987301089 3.1450762310113576 -1.6808363230931505
Ni 2.930350131172521 2.2209835667455238 5.0725184821066325 -0.25870285742668997 0.484558843526688 0.3945180394875077
Ni 3.1217923662851357 9.044513951354153 5.18930555848726 1.399712417658783 -0.2937937875925521 0.39732362725710285
Ni 7.374890686710922 1.922623976787849 4.983721536102196 -0.9310399063450481 -1.973075364604073 1.1708608392655706
Ni 2.095830091636847 1.5094231137385887 2.3835886638656416 0.5631564387259334 0.7542482818718688 0.1544397391405405
Ni 6.816606213056758 7.351674346801709 2.9127092304687783 -0.7530033537211742 1.258054403663943 0.2489889725730357
Ni 7.702992740834586 1.2714556296691544 9.983769491142942 -1.236280245211645 1.1725940199065934 -1.518279097051798
Ni 6.572695790302429 0.21617485750872084 1.1061965753512806 0.3775420737548014 0.1910548192604129 1.9174906853602331
P 5.2963987946952695 3.307310176540534 5.040150757175789 -0.037277396294219674 -0.5931663548244623 0.033024534555136674
Ni 2.315255977285965 0.34735458352684645 11.415310485985128 -0.7108447180752532 0.024552492528383523 -0.5687496165429946
P 1.3684495728783785 0.6338421814854915 4.230388333703589 -0.1387755502407223 -0.1657075987448759 0.40400206771854297
Ni 3.5753070891049794 8.151860492907051 13.470972977090055 0.5181747318089205 0.1744858591581382 -0.5305875036509765
P 5.076056474576051 9.199104412472119 10.490264308939818 -0.2400104232235092 -0.7983406442053929 -1.176420335631219
P 0.004725654515013274 0.3418393142613324 10.841385530707917 1.5464445037424206 -0.4578234844143728 0.30309166795471026
P 4.712398614395254 3.516988531916765 12.568011019391399 -0.15859155652538495 0.15378076540030292 -0.5719886923055826
Ni 6.2233028343481465 -0.25975455648184426 4.753602063585804 -0.5090344600705492 0.8296453678559454 0.5471333238247996
