# total energy = -340891.9695086837 ev
CRYSTAL
PRIMVEC
9.09215083710165 0.00000000000000 0.00000000000000
0.00000000000000 9.09215083710165 0.00000000000000
0.00000000000000 0.00000000000000 13.30728179879313
PRIMCOORD
 96 1
Ni 6.401065106348871 1.9563762743771838 11.504651197037239 1.4747595765026085 0.8203238333447034 -0.6788385974823019
Ni 4.919944647031127 0.44664918096172757 6.047361346271125 -1.4707206305465443 -1.3275546645476104 -0.6462562926709063
Ni 2.741456220483771 1.6810295792066288 4.906341880202285 0.544346762218598 -1.48396823958507 0.12057136852786979
Ni 3.726590760892225 4.509079444017582 4.883399656060036 -1.904227906813056 -0.4444437206733572 0.325107252993853
Ni 4.879666418936901 4.501832999820945 2.4755799095983058 0.8572117075099882 0.301103690990404 0.720633679141217
Ni 7.488431790480007 6.540520515493171 2.537365620436752 1.567242157214062 -2.3993650400762223 -0.5658157307256513
Ni 4.834887576191062 4.3389380258850165 11.775228149892165 1.6015013355072485 1.1490977365568664 -0.31079032215054864
Ni 5.58823591596608 8.024223145641335 12.362531085475126 -0.021460740976937235 -0.317053529451441 0.6699055566587302
Ni 1.708587888315794 6.653526857927289 0.4944411624864437 0.565245202934162 -0.2099961362496061 -0.014652459805852183
Ni 2.926008697652307 1.5815796336322157 0.2889849213875616 -0.6006089271454367 -0.22976457712578494 -0.1804968412389085
Ni 0.38801844645481554 0.17508300209852692 4.842226760325974 0.9505180696743178 -0.20617367717972235 0.5335072484009328
Ni 8.91394465543561 2.2348779458792727 1.6188710901849177 -0.3501366851586551 0.4564080921240849 -0.4683848048699869
Ni 6.959968708872618 0.8116444831320735 4.68283226445241 -1.2445332292490567 -0.7070166025784147 1.3926318566629177
Ni 0.8869738618190884 7.84109813615018 2.794662577816639 -0.6263924638674437 -1.1351376748323483 -0.19177549947652134
Ni 7.658036771714704 4.079157092903472 4.192898081123147 0.683735777673603 -0.4141306715121126 -2.0552858739655573
Ni 7.548230866366177 3.585680607618112 13.107472822609981 0.49521503768895364 0.03994363027247315 -0.9440933970948966
Ni 7.948721925303985 8.86175570977853 6.764343810446036 0.20133846057460808 0.12733568383489682 0.7891083269738474
Ni 7.029469109674485 0.9445744556390758 0.3975606587313146 -0.14512334683562103 -0.8009659976433818 -0.16550473870545046
Ni 1.753430376117312 6.470829179524267 9.332795494506753 0.616075655322468 0.5367265266691789 -0.3057941544875379
Ni 9.231988090816206 4.7494759114693545 1.2925447054151917 -0.19805670449954274 0.17597349944725824 0.783964835099695
Ni 6.472102080637853 1.8526984786754985 7.015226255428525 0.9879916411397437 1.1742786066978679 0.5127880135757105
Ni 3.4649459369943565 4.3396835822515465 0.46249861825605165 0.14101446687357005 0.4317725529635919 -0.6868738090819524
Ni 5.8742204275859 5.548248636697816 4.62610360789523 0.5190910729756029 0.8281255887773094 0.45610804438516284
Ni 5.481721369211257 2.66288185317219 9.308949510573857 -0.20203754352416173 0.9260216271948504 -0.023708142250217234
P 0.24224762935696062 5.614812272787621 12.544521394545026 -0.9222503330778762 -0.5281084459828647 -0.48537054079470604
P 3.869601201003758 6.192863944920046 12.574636416462338 0.646031835364926 -0.11293390658727002 1.1412327319864926
P 2.5252357820393465 8.531237843484778 1.4908545159763622 -1.4141733302791193 1.3932538065176328 -0.9175308161150197
P 6.3310373607999475 7.77097037694233 5.804263600813305 0.09286618930311748 -0.3995039227378733 -0.7053770100924626
P 4.79077246045445 1.0353232128870389 12.439021531820748 -0.5283305892959997 -0.5684053458296985 2.16461072304533
P 4.027922823081584 6.236551729568524 8.201118213396562 0.27133211615492625 -0.36428418030363063 0.25233449200650093
P 4.744593426483666 0.899619225167497 3.8096884732324474 0.433222398036241 0.6394181867031504 -0.3453042967670182
P 0.3937046775722262 5.7846445577926 3.2770375469613566 -0.12159595313764221 -0.526391720402074 0.7721017651135219
Ni 1.4965225627921501 0.9795428676594812 2.7289908817214275 0.6333809793701349 1.2966839431106831 -0.43523480048057944
Ni 1.9542487110873306 6.3678332951334315 4.734464770479835 0.09966701427503481 0.5533451090624664 0.10708696088818977
Ni 6.334737866180161 5.814966880748412 9.153480096205547 -1.1658417887844246 -0.46956057034564297 1.0663789201003957
Ni 8.781862980599305 2.3312638366302654 10.101012228503551 0.04589264876705645 0.3700773899466401 1.154689885932663
Ni 2.3541487802224026 5.188781362220764 7.293308778778211 0.8898040396237127 0.755624079173473 -1.9671276316610704
Ni 0.5410520736207671 0.09885622812643284 9.254216581119767 0.07994511036607523 -0.07278175984841659 -0.6112913465599472
Ni 1.5447655149971087 0.9157614297179464 11.396182747073057 -0.12956791559952524 0.9974993235198627 0.3460766561566685
Ni 4.01960350508921 7.047562489789048 1.5660138714432053 1.1414705590289116 -0.78652205430391 -1.0575284116883013
Ni 5.426095590547493 7.911253171810462 7.953137073737971 0.7856805322392211 0.20788166100976455 0.3671296201722258
Ni 5.12139943255794 2.7622954301433578 5.060759332721722 0.5655102836700905 -0.510014050374999 -0.44656693766394706
Ni 0.8323754961970048 7.402410951653941 6.990101915091555 0.10082992423488442 0.6631687521555288 -0.5768583616930582
Ni 5.095995963191061 4.350439596661359 7.4669288538111935 0.08074678033176418 0.4199308231336575 -0.24670711851739452
Ni 8.239770764925721 7.346994292458836 9.054208356787036 -0.4452217364899623 -0.24465640663595287 0.09034856508758633
Ni 4.595009361335536 0.42711469494356824 10.20104316251481 0.2712971491519328 -1.9948690634403967 0.8480002162140492
Ni 8.452127039275327 7.114135218029664 4.771578930091716 -1.0502843285313783 0.011765625176360383 0.15710880133227137
Ni 7.144803042716306 6.049280699307399 6.880716067110511 0.29094294840731827 -0.15225815810818938 0.1377666493602337
Ni 2.4538714903211556 5.246834745151156 2.4646020467086966 -1.4642021127017366 -0.46060361826267127 0.3362370443584274
Ni 2.224276498033253 5.190272474953824 11.473431478796346 -0.25534885335279245 0.15483954568212044 0.5683716643782857
Ni 1.1875621860720795 3.2216763498862013 3.9004308659748426 -0.14374832086496533 1.2088959396614214 -1.1063068666435851
Ni 3.6224310811975395 2.6002187497804496 2.74366834077617 0.14751730098909435 -0.6351072180326223 0.13291060681951306
Ni 1.0660819590817947 3.6598998346910623 8.302320216432319 -0.230512511035403 -1.6536013986365974 0.638919649800177
Ni 3.5645413569817515 2.532955018078172 7.185439501552499 0.5227476958915837 0.9966218060109159 -0.3879560699992738
Ni 4.0761384988341085 6.733819641742214 6.016128899019099 0.315056039405438 1.0948268910284435 0.11460640919368649
Ni 0.8718536150198336 7.46173723569792 11.474629824273281 -0.8192959063008213 -0.09145516788820378 -0.39774965905092785
P 0.20254766205433514 5.674174925434846 8.010477632044754 -1.17992089258531 -0.7636029836138913 0.14357605695315917
P 8.65487291021735 1.7955906794294856 7.9554128390860495 -0.9724657775900026 -0.7331462097859309 0.4228757646945943
P 1.912088407775157 3.2163392573599463 10.64875339747622 -1.1168190790288186 -0.19407123748923352 -1.3362707042643696
P 4.007001784064696 6.234396889826238 3.5685600876403627 0.22612003839466216 0.2134234167636002 1.5709656288122362
P 7.01264863067351 3.954321862263804 10.524995586707696 -0.5865113114017899 0.21951050349794451 0.15281274506007875
P 6.267519595231941 7.6784759267385905 10.303256212720788 0.987910651390163 0.37087931702264515 -0.6378043052488113
P 2.404601125074516 8.61050321425802 5.9014468731904515 -0.6623773666024851 -0.006656328974253053 -1.636525159880601
P 6.989563659763523 4.075383850316767 1.8703117932272222 -0.06492858235258496 -0.00870935484853984 0.002795046246633896
Ni 5.377198003484118 2.8495164328765217 0.607076545167459 -0.6086533947164678 -0.3246979333705763 -0.5214639440831536
Ni 1.5165707553311503 1.2512072417514442 7.181939932705215 -1.1284366086630888 -0.37285803801557077 -2.1759225485137232
Ni 6.9983648617488985 0.6025950240325506 9.104656155563744 -0.3118434460054113 -0.3164943145138614 -0.13532204447448307
Ni 2.502914551797512 1.6432516925855203 9.136234104546602 0.8997866047577213 0.19913991026139252 1.894442288181202
Ni 6.400365010736398 2.0125021213355723 2.6707447451938346 -0.10350927083926045 0.916125451127061 -0.00535715054685529
Ni 3.9377832399379806 6.910543777062186 10.494947846706387 1.3264912562801028 -0.34002813596974346 -0.7918709773206491
Ni 8.064055858345805 7.286176895681797 0.08900124586202376 -0.3392768596260157 0.057583454841423416 0.15091141427230784
Ni 7.700033416312273 3.900496329460684 8.35216884247056 -0.4549893573996874 -0.24327598134865847 -0.8918951178247866
Ni 2.9782703805158763 8.251299612154497 12.309448381393292 1.062930299430163 0.46854678436914793 1.0165401422013975
Ni -0.01340092108083083 5.073074650995679 10.257998213627193 -0.35766538943553244 -0.6346073955780684 0.3984438569044751
Ni 8.740893749043416 2.434987093086007 5.777422662403154 0.24715988978409692 0.7231101657061675 1.631112216395146
Ni 3.793136212680407 2.4283316386921077 11.189627264941084 -0.41947728053600664 0.06443570187656646 -0.09392316981272211
Ni 1.1283631921394588 3.204301249685735 12.791291459715547 -0.4940492995156266 0.3253725908400977 -0.8644748168303048
Ni 2.960258829758616 8.477939655428715 7.963596684031334 0.8394731525796446 -0.6574539611589386 0.20099161875815064
Ni 5.818312792246984 7.714371738141753 3.4141690023582782 -2.1320093920705414 1.3881861621867382 1.4872839342218642
Ni 3.1587586662717437 8.40899387582634 3.705053274050328 0.799154655466256 -0.15319378254858132 0.5991084313405101
Ni 3.568414613227381 4.550230518589697 9.478338098619242 -0.028306303143860925 -0.9514858329042258 0.1247920914774367
Ni 7.142757308783755 5.902724320379444 11.665043101854804 -0.0982415946824179 -0.4090841102271406 -0.49812115559215503
Ni 0.545672704663089 -0.15984637576888702 0.3340156167108745 0.8680126547802343 0.8339663638288025 0.44285015093399216
Ni 4.5798982066870915 0.361448454138843 1.4291351778388388 1.0672883192885425 -0.04547381606208298 0.4198390347507995
Ni 5.95638619446796 5.596573418260077 0.6312962164987007 0.04370592552838279 0.8727038896083164 -1.0387272198213982
Ni 8.005466038517545 8.963178652079003 11.152326716237573 0.07418712483637546 -0.10405331626818855 0.8377607978742282
Ni 0.0906923859129326 4.99723702107831 5.824930059607476 0.7172012564209003 -0.4155095541375103 0.5412298138561711
Ni 7.772816083557032 9.030606042495885 2.6953899291830474 1.128946972640604 -0.17789359928810652 -1.0546937704529835
P 8.56951579840051 1.8565990113735622 3.7711504828035114 -0.2087717769242017 -0.4460434610603092 -1.8168402241260067
P 1.966395824571278 3.214048035355489 1.5197584634056054 -1.0498454412217466 -0.36830127188282374 0.8868249023907309
P 4.6681284381603145 0.9558396304943235 8.186134348859477 0.5828122652836478 0.6243301820217764 -0.7645391222749156
P 8.798128838400789 1.5194802435907782 12.488338267036525 -1.1314553408847547 0.2206952678346651 0.14291322655817967
P 6.337274576256525 7.946367058243849 1.2965934401714805 0.0925208901485568 0.055028035409421354 -0.6366509083706584
P 1.8896035188187188 3.3982186421899483 5.974077701516662 -0.25238462851814597 0.4067780878017833 0.4833715080868062
P 6.672602190329476 3.914116371376068 6.080575882400024 0.7977258934395295 0.35809476366346715 0.33813271871924344
P 2.4818844069708876 8.45874612506598 10.072986582842683 -1.2250473526103032 0.8644128532441178 1.2357709096753942
