# total energy = -340862.8048416153 ev
CRYSTAL
PRIMVEC
9.31982542350188 0.00000000000000 0.00000000000000
0.00000000000000 9.31982542350188 0.00000000000000
0.00000000000000 0.00000000000000 13.64050656968939
PRIMCOORD
 96 1
Ni 8.49531926972297 7.43032415864647 2.120593973982078 -1.938100648301101 0.136517607444481 0.5189478625295192
Ni 5.88705423737829 0.08417573284559499 5.155879435625785 -1.2137272996117936 0.5231989244963894 0.22492370409371584
Ni 3.5769211061837285 5.309924037036892 8.195871409197993 0.22326508544437032 0.07993328329153329 1.9507828717544597
Ni 1.1377177102410354 8.12486552190916 2.6964417663207794 0.06910405388651325 -0.47226999885700605 -0.1524885289514406
Ni -0.02968271255659778 2.917776440553606 11.456075018018108 2.23848674439919 -3.1088216195546976 -1.01346176038639
Ni 2.4378706608817513 3.4223704382424867 9.687365039339864 -0.3957184875535121 -0.5540894434276586 -0.07650574566722308
Ni 0.3822843344317091 5.7170792580674075 3.01989936155903 -1.4387474200740575 -0.8389437624387358 -0.7170174225448683
Ni 7.758587055964593 8.498739645718533 3.924932713950352 -1.1484567605387577 -0.6043354840674043 0.6237820228277902
Ni 7.289287237826667 2.728285746434247 6.46776884264583 -0.1178457420665906 -1.243460307899852 0.7116808408233034
Ni 6.778094803612283 8.783879709980868 0.4530842535747611 1.2702740856585866 -0.2387654950728146 -0.2046659822859443
Ni 7.3839393866303356 0.7717700981053043 12.012280345920159 -0.5161494738487755 0.09623561999598265 0.02558993265396238
Ni 1.8397335736357188 7.858514226058423 9.474163776909023 -0.48194891670766676 -2.4217922587314873 -0.22192708335923714
Ni 2.6555911067465137 5.652884299327779 6.220903438161646 -0.8267191953480858 0.18223644963783453 -0.9892589378879414
Ni 5.36704524814537 4.271350631539205 7.173256341076883 0.7257452893361694 0.64395618378282 -0.9344659013074617
Ni 0.298126309254756 0.4616202818427092 4.327587391198148 3.884211311390871 0.019069357926625223 -1.4288880107814745
Ni 4.409367928864288 1.9065194438924238 3.521896855835475 -0.6453618058810949 -1.1506522255281797 0.7481308561202213
Ni 4.207863979545251 8.45010879573256 1.1168925599356199 -1.4663736664317584 1.3754062368132505 1.5669333677243917
Ni 8.170625865610026 3.809618511789284 4.661643492109846 2.00429807006378 1.2267941600980807 -2.0328864232244346
Ni 8.648546522428871 4.623826435768703 12.65712187520044 0.14087691285444123 1.5278968226472203 1.260501836763171
Ni 3.8108766882454175 4.589044846625803 0.7358020951633978 -0.7111020855016978 0.1998701035591977 -0.2401754880464638
Ni 8.383201767743042 1.6275304645267439 8.577996374611924 -0.3134411295098343 -0.6360829516823304 0.2054933632832461
Ni 5.131542575033916 5.424138499777043 3.987924483204893 1.278737128824275 2.9062757689355494 0.49693793391733126
Ni 9.198024800212126 9.44601603962891 10.731859330041864 0.874802681118874 -0.3459992659515138 -0.1514678009964101
Ni 3.8824156695586285 3.9229662307485422 5.362383471379754 -0.17684073254355998 -0.9175033053111941 -0.6839877457834092
P 5.044551322874261 8.263181053653474 12.952957371322473 -0.024214135352358297 -0.3704327164035298 -2.3531993401534375
P 1.3537139883696139 3.508625424179663 1.5244224379552949 1.0369814407748852 0.41414172725570614 -0.6627236941983102
P 3.8974299086018256 7.182780270858536 9.497639485615359 0.15473078801839804 -0.11272153346614779 0.5983743813879631
P 5.347175379964056 6.507167473391461 6.275615474352267 0.7118333072407677 -2.584561086563013 -0.31324701122115733
P 7.4180126690275605 2.745313067807259 12.71210698228117 -0.36321357294727125 1.4322888089329076 0.7377523410993746
P 7.793405924409897 8.045702923254337 11.912200330686472 1.4338227290789307 -1.9577562177484995 0.7466452727136303
P 5.201282830006136 7.839855935205239 3.706480661775912 -0.7436231980578549 -1.105133158050458 0.2927113531616507
P 4.794994352756513 4.922508206629278 12.542760159215794 -0.738455023593354 0.20930399527858792 -1.4300213530549692
Ni 3.595896271107347 1.699656594852817 11.542542495978987 0.21578034703155097 -0.6240933834206219 -0.7171151244649973
Ni 5.718430632779552 6.637365437037311 1.069976557860229 -0.4232336622546453 0.032436780372466716 0.5052749930281168
Ni 5.896336783676878 6.872066605147081 8.669428523670451 -0.7013879435377275 -4.279967337050539 -3.2543404020565245
Ni 2.3902743115374876 0.8757718959518884 1.9298320556507442 -1.2167416609580852 0.08704058376027592 -1.2118516798556356
Ni 7.658566687614751 4.246643773870977 10.621493955274921 -0.5420523097574665 0.13012558787520817 -1.3862367517698513
Ni 5.553106246443564 4.966590981721968 10.124065971490642 -0.5885800210053606 -0.20332386643575306 0.07570947501817285
Ni 3.0735759651253804 2.1924237338540395 0.321898388415205 -0.5004114942882285 0.8182445822181715 -1.2672329848394177
Ni 3.6916295196807316 4.142187168535064 3.031957351921593 -1.91127735746067 -0.2054242006082075 -0.5610931284390014
Ni 0.29947488801921945 7.123580738641038 7.6701521628193445 -0.2940881789045194 0.45569563943809266 0.38474090549608575
Ni 3.2740360939771063 5.437810683933698 10.668867560787321 -0.45800886095230153 1.0661187244604737 0.9064403626288132
Ni 3.615085792019789 7.541183484170264 5.365316420496386 -0.27776707314699256 0.580891137001535 -2.266525909924593
Ni 8.867143031900126 6.768355585859247 10.053408645679285 -1.1095557125981859 1.0650126358804886 0.9159842975635063
Ni 2.945428363111748 9.000752051715939 3.6208184167469586 2.2434124638355817 -0.991573444953731 1.7885151519290683
Ni 5.7383098207864665 0.08649543743768177 2.507343436859222 0.7740935987325701 0.7636081258202139 0.5857294389304428
Ni 7.199574596591522 7.607298326983698 6.281862553452612 0.6073269625955605 1.3491971825180507 1.5726034215259757
Ni 6.588809145656146 6.041940419041168 12.193849188278675 -0.0778100663009434 0.5658854076213222 -0.8540135122876649
Ni 1.3159686946855984 5.479386425939722 0.5371630602341058 -0.09887845693546843 0.1739379570744682 -0.13683822400869336
Ni 0.12735355287242842 7.2284287766521915 5.227697079724465 0.7921250023129841 -0.5637493351149259 -0.42305548480556815
Ni 3.075365371640771 6.605072241329877 2.222270475341215 0.48581225631781494 -0.43204791811216564 0.032898550500233666
Ni 8.038927410042417 6.51205106200638 0.2693224562523317 0.1971809867628088 -0.6657696801134857 -1.2956621867143878
Ni 6.341190699263403 4.449443178948551 0.7155137668125995 -0.4660813535477909 -1.490668020202749 -1.2485258953482177
Ni 9.067603160751851 1.8030414202446154 0.3157016363731057 0.6625108068565558 0.11939148928715569 -0.8870102789286595
Ni 0.22581751034690345 4.8538863307291775 9.037995006800061 0.7709977334160657 -1.3202000239547522 -0.5484093623237459
Ni 8.610819868396057 4.135243898462325 1.3235652845329668 -0.4291747103294286 0.7008148446430769 0.31919962926016643
P 2.026530838156391 6.3388980221655595 4.0745420103579475 0.9613179885032991 0.6797192003150423 1.0330448247246402
P 4.669735896679187 2.775369505370456 1.643980888695054 1.4592393693798222 -0.06074128374411474 -0.7694833536540683
P 8.274700358096299 0.5296578046776274 2.0044046401970776 0.09278468533290472 -2.2429887460346016 0.14851026102998294
P 0.9731202703019248 2.4553173744068073 8.333312741300935 0.8959003823294376 2.0209346501791967 1.9076788414761336
P 7.1013063554546685 5.325404267360139 2.549820406000861 0.4408200078778408 0.36167862435998355 -0.32698852917696586
P 4.883411538233119 2.0491127755875937 6.122391017594047 1.0474262902572928 0.32794189422917064 0.23975151313516777
P 8.435700345353426 0.5673313357045152 5.906352800250264 -2.5856476347589727 0.01606168144855298 2.5561151725174946
P 7.6120887173426075 8.03088440054876 8.590286428631952 2.6856630335123617 0.9077500825791722 -1.4909528984330194
Ni 6.081046407262928 3.294204196577652 4.463228132994978 -1.6946372335319846 -0.00702116851283952 0.18172402877779026
Ni 6.306707344539736 8.150951713766334 10.218253992979383 -0.0645971671550952 2.869068820867949 4.124172112323368
Ni 5.836913575644957 2.4005913584777856 11.1330135153679 0.30221800710050534 1.0426756629461849 -0.22180109930433414
Ni 3.2627311455231034 6.6927531605840045 13.198022185500543 0.5073411315285262 -0.4579024172814243 -0.48371834990326373
Ni 2.9761931074206207 1.2920913014958584 5.48097359223957 0.16374867524629216 -1.3907562369067596 0.6906353330069138
Ni 2.887300610838364 2.878297659307806 7.242536196664413 -0.3377776493726699 1.5317146537314135 0.6508148585758662
Ni 0.4842637301228781 3.0465205114057023 6.064091780529604 0.1283093606020758 0.24860407842979118 1.2013554083100022
Ni 1.525571572451897 4.062428101041779 4.280336807383681 0.6518949790139225 -0.4392354369995404 -0.507006888117559
Ni 7.428078080676632 6.042080216425183 4.5333952359797225 0.24071130594527576 0.7630031452463634 -1.5477778778418634
Ni 2.495467183095879 3.757380889295727 12.215633348638432 0.01868369245243234 0.003163999550278422 0.42753048985778624
Ni 3.268136644371679 8.477304046836252 11.48525259602713 0.721867294438002 -0.0726560329038297 -0.6024369814931109
Ni 4.819766449203947 2.9942269699585387 8.9411610868232 -0.02046238161940992 -0.9733648923655044 0.9622700680039235
Ni 6.860239746459423 2.0525424714087586 1.6885715942829975 0.44473502666153086 2.028682926666048 0.5790790234934607
Ni 1.1203362354951862 0.9744436855372656 6.964378545742341 -0.5201377690725623 -1.6849570301297434 -0.974501834183425
Ni 9.280542536083304 8.578629190770233 0.12794722576321158 0.08439157617320305 1.2167324049867045 0.24246865495601466
Ni 0.9183718867914604 7.307628654609418 12.062969013398831 0.5976755555487255 -1.0735106460491706 -0.3731722268218799
Ni 7.512879173820053 5.1508066545511655 6.582485643985874 1.2127317684677437 0.16306784712918368 1.741552924246917
Ni 4.38578877009378 8.012682781150025 7.378641065776172 -0.2962692457162382 1.1223819178285768 1.7895261096920858
Ni 6.1505257071183195 0.745456502503465 7.54246402820784 0.33900098025680975 -0.31311768473214463 0.32429632705678346
Ni 5.5573374472664145 1.503828419324784 13.616827188532298 -1.7107307966597376 -0.23415807820779028 -1.5796166196190151
Ni 3.787549164766136 0.940016249767203 8.15578217937533 -0.8252174139915788 -0.3687604709074294 -0.799780719086029
Ni 2.0648726006788705 0.5979367109956112 9.80303712280401 -0.08427844763410647 3.2750789201554564 0.33189393689838326
Ni 7.610355229780823 1.5401198202150448 4.03677155314481 -1.814763801212952 0.2433469437959099 1.0264558586532129
Ni -0.10140156650390754 2.354113388205641 2.6936048114078375 1.9701934150705875 0.2797961877618795 0.7218744935268535
P 0.6936429320747527 5.256157963144774 6.675105138825967 -2.0319276588555906 -0.9831317419442811 0.3016667625827256
P 2.0915552613745088 8.154195013075478 0.7000102369253502 -1.0488925903901742 -0.2827748107742291 0.007462626925632309
P 1.9670517111708636 1.8820455818642203 3.7740009342899747 -0.14081417793730588 0.6515735911187618 -0.22671704854871277
P 5.0195928299148065 0.7550559228724861 9.837110405201235 0.15089367366049497 0.4322996291116555 1.1919171457152378
P 1.578126069015888 1.2634048782960063 12.229682985731927 -0.6327536301987812 0.3644710995034562 -0.42870574111281007
P 1.080130507852509 5.108522605799467 11.343896005189213 -0.9689814185858279 0.5958022497854126 -0.9007283998457005
P 2.2901514251060364 8.569421203076454 7.272736159541865 -0.01718268242687363 -0.9939090350654431 0.38817769909177663
P 7.131959261856329 3.423731132780232 8.597815915734994 -0.7637978732335168 0.992047299266356 0.33142959566745506
