# total energy = -381165.9898002163 ev
CRYSTAL
PRIMVEC
9.29109173127368 0.00000000000000 0.00000000000000

0.00000000000000 9.29109173127368 0.00000000000000

0.00000000000000 0.00000000000000 13.59845190666019

PRIMCOORD
 96 1
Ni 9.420145072964813 2.252281438393336 0.9789753996169118 -0.2295720014990046 0.18293758946991717 -0.2391385621415172
Ni 8.45657523267434 5.770474135593303 10.098278636283338 -0.41142844208960105 1.5691864254246266 0.2756047753883511
Ni 7.056918707295074 0.6866237630124516 1.4852367720204984 0.4951911264295536 -0.3649097297027716 1.0558978180634138
Ni 1.3387162542122004 4.110072409721198 1.7136090213275763 -0.4932054634580925 0.5450725846410289 0.10590811008874018
Ni 7.978845874103189 4.285413894317152 0.7410426168396539 0.46400724462758147 0.42379827650886365 0.3091725840414676
Ni 1.4997773306996351 5.950972176142562 10.058176425822706 0.5122084869231567 0.5095149992513934 -0.17905136704163357
Ni 7.9472747441404366 8.675817126061936 5.911206303205369 -0.5941091783537059 0.4029268323764931 -1.0282031803616227
Ni 4.9712730004738255 4.321370419613165 11.011767633511651 -0.522684446753816 -0.1945669461787294 -0.20330869692710146
Ni 7.306393813425105 1.9715046439629766 7.372074399632488 1.6373036899178384 1.3436983641870084 -0.47060623800133794
Ni 9.182776259460287 0.7017570933489231 3.5545812582650402 -1.1215275402480815 -0.5575622324676074 -0.23831452357832503
Ni 7.65200384648998 2.3636909202601273 4.993174891192247 0.3321446194566086 -0.5359048020988318 2.0703967614650667
Ni 2.7834438659508867 3.3161764880239484 6.635283386404063 1.422476450828176 0.16046486228869786 0.18151062721540354
Ni 7.643874141158195 1.7609127570483998 13.300143105359753 -1.0207420960978872 0.6632682538478706 -0.9485835716557665
Ni 1.067788017098062 1.8514358645313578 5.361298168816492 0.09533341989668744 -0.38923750781485866 -0.009920858658137752
Ni 3.608390616469654 3.4975386001113278 1.6721335874977576 1.34842019514271 0.4690337513078955 -0.039828444850847536
Ni 5.657475877027386 8.048027343703733 1.5453687182002893 0.7511686145052805 -0.02264447687239326 0.5190512208766028
Ni 1.9992013886418947 4.07446894591388 4.700101336754323 -1.8433634672275157 1.6874666839254744 -0.7960454204133129
Ni 6.457178731104482 6.333727994254841 11.086111233720581 -0.698759504775945 1.4636380126681503 2.482904038441143
Ni 0.2640788442334615 4.980666294291466 11.874372108236429 0.13030607931713042 -1.462193824022456 1.44509830199275
Ni 5.010444243535321 2.74485796167328 7.528483426451779 -0.32523683659318176 -1.2676402475801651 1.7830952664650774
Ni 4.015201071272211 8.367594446431468 6.643673242306465 0.031885021634054767 0.022887446121134775 -0.020196786662849086
Ni 3.517793180252234 4.644876945267389 9.067964379773494 -0.4906798688227613 -0.25125925666445115 -0.10245846097724289
Ni 1.1147730683698795 5.364286183941866 7.396564788528549 -0.4690728320759471 -0.14673337163521827 -0.12395519739843815
Ni 2.3085111260138693 0.16658648878550653 3.5730473032329533 -0.5143599860485206 0.5501345725449687 -0.21617861091123414
P 4.054019252845012 6.456658429963248 10.70158732083729 0.35553883001083286 -0.9926628213631679 -0.9168186205393436
Ni 4.97874303828726 4.9709756855359775 7.277483652156095 0.7226311691872199 1.3093276000166227 -0.5996941286406511
P 1.2792811399179913 2.4293046106064935 3.1604838043830346 -0.5547108790617415 -0.1793691553923685 0.19318292134700923
Ni 1.7725637861753247 6.08395557318696 3.015511182469909 -0.6162062673630613 -0.4978488757673748 0.8902439553746088
P 6.599815572537139 4.920599385754329 4.488332268507704 -0.2208798730416454 -0.6010012774878488 -0.540719706988972
P 3.256667044995277 5.579681565321052 1.122303498280065 -0.2214084918516058 0.6381943415983783 0.31933204107297264
P 2.870538560556783 8.930718229807697 0.5428301806497299 -0.2938300401471262 -0.9565881871277978 -0.9285500500436589
Ni 3.4226616912326295 2.538474939347616 3.8306837044069177 0.9958581883720139 -1.0987298256272755 -0.1463631327799931
Ni 5.259668490186543 7.593990269242356 9.229595929297925 -0.04748184763104726 -0.8028241338980433 -0.3738785088602851
Ni 2.6441518175690226 6.912544431694367 8.204435441413844 0.15690465574126525 1.7730024010054497 1.2439498459417608
Ni 8.651065657486077 2.8108897511509956 9.649121243239396 -0.4914419437997665 -1.6789442482767603 1.7301997040176267
Ni 8.03628340365873 8.97407975527449 9.324920673027131 0.8897240783153967 0.23371430580215236 1.5568376740512864
Ni 5.73294741578178 4.452830077601091 13.498435444939222 0.5095589651154514 -2.4706043951381838 0.23327387583062406
Ni 1.3093006575488477 8.258526319700232 6.3951616223968974 -0.22925935535459224 -2.016983893061565 -0.8854691596937847
Ni 0.6372118785604484 8.094324854181776 2.2260257420538005 0.5772558542417929 -0.5398064511460833 1.3285725642891635
Ni 2.5965070987788543 6.4460665853024075 12.242591084106294 -1.3466571897050164 2.382910751174941 -0.7112365541970331
Ni 2.2698137286345696 1.4947136856644085 1.266518896210859 -1.2069532141127537 1.2758258687147512 0.9986738034439381
Ni 3.225458267613028 5.837453616435409 6.437384989117241 -0.725812138018363 -0.3287733889915306 -2.262788040148716
Ni 2.196767164841999 0.9038541350236696 7.302260206679835 2.894107766114448 -0.03841536655340481 0.665780221636447
Ni 9.316177755636033 0.5210453576880865 7.33503267481333 -1.5550916378944573 1.1497358843614973 1.6068242903820584
Ni 1.0042648224084405 0.7845063443163323 9.906281940512802 0.1397739095982496 0.7714895854508197 -0.005090012928397686
Ni 6.147748209539007 9.407137544433954 10.798530572759406 -0.03684647940438816 -1.1156278869341947 0.20986269599553534
Ni 8.577043529053693 9.311160566059845 11.727985382150163 -1.4772728298427653 -1.27575953425319 -0.4043337400263488
Ni 5.774320647601714 3.678073805027817 2.8493520839075592 0.7010570425608701 0.7758704881273347 -0.8455260436419438
Ni 5.65791255834235 0.8892290274090823 5.923200173620001 -0.5920931763649415 -0.1425188193332384 -0.9068010884023415
Ni 4.872657352026313 6.451083774878595 13.266065238827268 -0.06935036556936444 1.8350832294965944 -0.3163181939473133
Ni 5.415275695782825 6.877823621608787 4.483695084586453 0.7070885934669306 0.5612116562947367 0.6407754720619931
Ni 2.8599095515287107 7.37400508851014 4.669218676694527 0.10876409148029655 -0.08755351884095243 -0.2629423494293342
Ni 7.651446380981514 6.341216614251891 5.696963017210345 0.3868625798247789 0.17652757217851534 -1.0089312195058882
Ni 4.635084134502015 9.009608890347346 3.8178471319653235 -1.2094546403783686 -0.40573987634525605 0.8550254984919468
Ni 0.5461145816037712 9.330578947938054 0.38644066512323455 -1.567295893270133 0.08710511844962418 0.1819176328458351
Ni 6.43757452739012 9.338383465056568 7.914911084046483 -1.2209204749261233 -2.1947515082947686 -0.7936900328072589
P 5.528078841420781 2.3348420801970473 0.9747089302587907 1.8407064892206428 2.145913403746143 -1.530125969088055
Ni 3.375723095419851 7.596127220358141 2.1499289128207444 -0.056670198998534656 0.16153315565221213 0.14739903024367518
P 6.722104922910812 9.071403941960725 3.439945909322596 2.4984383866313165 -3.7971822975948215 0.21117190172526212
Ni 7.146141061924946 4.322476059538287 6.791801118997506 -1.5478012748806311 -0.31637450110654547 0.6270802339630879
P 1.390021663174624 3.637434569460696 -0.4986426771212274 -0.14469191572515727 -1.4068050628395063 0.37961618267501074
P 7.715610661005871 5.980378481714107 12.950703284251722 -0.31931404335084357 -0.2870693243845249 -0.6839550927732608
P 0.48147459767885753 6.5976786214213545 5.008541427933093 1.0760652941502242 -0.2713148897637456 -0.24366807458075457
Ni 0.1499089789905861 1.9384748125864073 11.998458355765722 2.274550837111599 2.569238854383646 -0.16553122106801169
Ni 8.741514436234574 4.946698062642313 3.433677209679904 0.9490250300685591 0.6037292179419732 1.3619552535146673
Ni 0.18698043530352895 7.246131791960005 12.175632043666164 -0.5718647651332087 6.556313061279031e-05 -0.06744749211969674
Ni 7.17153361583554 3.819084705394116 11.62182165071803 1.7475927026830935 0.8947135611101881 -0.5282220887425935
Ni 8.265206614710008 6.977312632686227 7.851976944577474 0.2578335674478592 0.1207300055929211 0.6887597132507557
Ni 2.6966000308238 8.349198084652114 10.190244650324042 -0.3399546024193307 -0.9754004347382944 -1.239899072911155
Ni 8.155292998624265 7.567761517069064 0.7938587573300185 -0.5057113092345871 0.028292162076473854 -0.9005941882606813
Ni 8.290915065742066 2.8471343002930483 2.9791625730996096 -0.09861954684712693 -0.3529669555185986 -1.9261064520537023
Ni 1.1596676239849522 2.7820223289043002 8.109260284262742 0.06258836425518254 0.15138269748177155 1.6981884412183528
Ni 4.147469054247412 5.028998553875407 4.09525497650619 -0.6798063607122099 -0.2719741206142994 -0.2933425589877464
Ni 6.3110763124275335 5.153647841568251 9.223952520133896 0.4205165204337984 -1.111755548462982 -1.5743435441455336
Ni 4.301487483144569 8.321733617268391 11.84377561380431 0.6613545817649256 -0.14319604790592114 0.9476325205964067
Ni 2.1280037943728036 3.5836391478937943 10.908610499388505 -0.17443135177111896 -0.7553633693129185 -0.3379267733560245
Ni 1.8200412653129534 8.933533430625447 12.2726709938339 0.7697322364400808 0.3563718674350895 -1.2975102956667204
Ni 6.020488125048185 1.5983558147799166 3.570817441199092 -1.0451266955898386 1.5066772511468116 -0.4431332293920497
Ni 5.807954399945788 2.0976497974368677 12.023370560229854 -1.3400869926866663 -0.46601964707192 0.009207891751513174
Ni 1.1793833208010085 6.291193375958938 0.5815545221952724 -0.3285641011942019 -0.18939182973569318 0.22033865582619475
Ni 4.384921487578209 0.8173893764423391 1.5843151168400371 0.25187606431284365 -1.5075102885710685 1.1456858826618397
Ni 4.347441223225725 0.47061516957395333 8.836586462266608 -0.9210480852396589 0.9737071061962713 0.4080199306286844
Ni 3.5686061613488467 2.4042651181845933 13.053834403317802 0.3643042349082887 -1.4290029390927843 0.5652390322865748
Ni 7.523062074381954 6.677582010968049 2.8351952473200823 -1.1608489635555232 1.571834404570435 0.44159853791507814
Ni 5.341179238615979 5.807183239325743 1.8867169274529463 -0.4413637961964528 -0.45925790286805424 1.0042968060576702
Ni 5.345127952634275 3.121221508621823 5.259418559816916 -0.19639114387166176 1.6060498741098792 0.14863804485709883
Ni 6.418685737744953 1.8328443898240399 9.509778093852589 -0.24701462245548428 1.7318395536138949 0.2124795647930921
Ni 3.4228010576097456 4.549169408555703 12.719488889960651 -0.1919336223209404 -0.4292536431964801 1.0365546376501116
P 3.2917409165695526 1.0223174137909086 5.409382356249167 0.8485594311516289 -0.7728432712652368 0.5140383410430437
Ni 3.482245462995763 1.0783612795752873 11.21196464691171 -0.024856396922047514 0.9706310383741091 -1.1322513544234887
P 8.706050338804372 4.497752506491587 8.570682847602104 -0.1792603977286461 0.4159181024298385 -3.053826751376057
Ni 6.408298297103883 8.673912452241346 12.983434871581261 0.4754985330966326 -0.25313153398649957 0.025333336558466053
P 0.6749541517019111 8.066916133348899 9.100900371122805 0.8146110992306422 -0.9268374382279264 -0.7138734775992479
P 3.2462145667115525 2.3492618546826836 9.415812636854856 -0.29538967132476224 0.22396545394550463 -1.0385757818451984
P 5.958832439811921 7.243957676476992 6.990923153075408 0.26635008955930256 0.036329173448337436 0.045563033341779594
Ni 9.153964583764438 3.6371558367064636 6.420767871419071 1.283283610544377 -0.29314304138243064 -1.026613981497632
