# total energy = -381174.26214104885 ev
CRYSTAL
PRIMVEC
9.19569942029396 0.00000000000000 0.00000000000000
0.00000000000000 9.19569942029396 0.00000000000000
0.00000000000000 0.00000000000000 13.45883561714916
PRIMCOORD
 96 1
Ni 4.513147989694528 7.370591956192777 8.959640954106703 -0.12081947998293387 -0.04547664427556039 -1.059207856273253
Ni 7.996166173607856 2.4757121034202263 1.8139684425419376 2.7786379804792016 -1.5497460573118278 0.008073778147069966
Ni 3.6249078217841566 5.0706372506095665 6.506902465870709 -0.6416031101696111 0.00034607048550908137 -0.6370224327774642
Ni 1.0407876210950249 9.0725687375074 6.407038092681247 -1.4841790700442956 -1.7161357697253927 1.032670214994041
Ni 6.306907044216458 8.343616470257981 7.804765052378366 -1.2649732422709634 0.973626373557007 -1.1078978652797888
Ni 0.019615345854975152 8.324471024629524 3.9527924293547114 0.34429462455558124 -0.7116096212657358 1.0189284399279162
Ni 7.0816630889276135 4.081180022164896 3.093432274192047 -0.2532989128022992 1.1279725245424768 1.0413206915801871
Ni 1.6609915502070212 1.20514235198714 4.025079820365897 -0.22900995834794752 0.5057017961528903 -0.26800382311264165
Ni 7.120055132875165 5.697213799231899 0.39112618932875676 1.1637257708826863 0.49711945380051803 0.17971034078187115
Ni 4.0045614568544785 7.9910165820843515 11.047671577099432 -0.07522919294764464 1.1750149706432602 0.3780439530918844
Ni 6.030346392306853 6.260349219424494 11.806910799066372 -0.3780449815331489 -0.08827728438085441 -0.7561334147097236
Ni 6.889454585312832 9.239562634055309 3.0120337844639193 1.099054813066862 -1.0615298195382106 1.2791582755220938
Ni 8.045179250072634 7.562202739362865 12.68934020468442 -0.28113033319227065 1.199788320933198 0.7500764098823662
Ni 5.103116460004238 7.795957411733345 13.330936088727 2.7303009839367105 -1.5156234045965058 0.18641372094397574
Ni 8.505414796786642 8.99275006889309 10.764268405452972 0.9634401770526247 0.7309276048680573 -0.061138262072217286
Ni 2.532376001577067 2.1368505897753742 9.526998119778657 -0.3677448851587215 0.07390173238547272 0.4299735520816402
Ni 8.487050985585862 2.061997598701586 12.831734686438535 -0.11964217184538105 0.4779673063520995 0.8404481148984041
Ni 3.293439650255192 8.878861334931312 13.210869684076847 -2.653304157565682 0.8109187379807196 0.25119240798225767
Ni 3.4797721021136896 5.743872776714504 4.288590855612994 -0.14623869138698686 -2.4568772753600783 1.0708169012670914
Ni 2.0737588979133026 2.39181054438371 12.2499356752529 -0.8653338223964904 -0.6109141657261865 1.1017598707028509
Ni 6.74364757960448 4.697797628608739 10.08693895408685 -0.5817447432510819 0.5665250980878501 0.14390335838559087
Ni 8.295311462627685 6.811263555447916 5.960433330815969 1.1988637522363998 -0.023117816964385994 0.0640196973850704
Ni 2.582989129693791 5.227019310339401 9.218966107101124 0.6610859014845711 -0.5789450690187578 -0.6652680578867188
Ni 4.884277211653622 0.5666757643650033 9.387766038961923 0.6576827893402932 -1.4893888963800093 0.8956337589316125
P 1.3550230524185498 6.210931532197155 5.68143214035219 0.814836584977887 0.19486725102796762 -0.09115074927390754
Ni 7.2457419488452555 2.375037589135726 6.125654296567931 1.5701865845543668 -0.8706012414430169 -2.1922547100148435
P 3.7332147663624218 2.374384694496139 3.2287074456649187 -1.259335841479528 -0.6774810550131428 0.09172487660982268
Ni 5.7041013778945855 6.618742398062064 6.254132007229777 -0.6222375611588058 0.45887300872480974 -0.69269504374942
P 5.811764623532413 3.6689920035050094 7.013682043827959 -1.294968503081473 -0.22758376742438224 -0.9746429877469797
P 7.169629146988039 1.3611473880518596 9.670441830805688 -0.4947134154621867 -0.20848047093602806 1.0253942501579179
P 4.6162041900586495 5.596907112913363 10.197853798943804 -0.22321006383671882 -0.3807143008351959 1.6917599119841895
Ni 4.87080551240017 3.217326848397975 4.990953758772749 0.28562385018725006 1.1826053813960085 -0.25527814801585713
Ni 7.248215591916367 0.34249289523883736 0.762588295597048 -0.2688312041099435 -1.6036469210953415 -1.2989981930661565
Ni 1.3807342272394725 5.022378221475017 11.343402503025196 -0.7626755867036155 -0.6256638132315354 0.7889422337096283
Ni 6.41784395875137 3.4848757151414484 0.7267020796676305 -1.1054290920243222 0.3137411772487564 -2.1848877281268115
Ni -0.04272597695652854 5.452185199704607 4.151861844104647 0.05308890940517954 -0.7471201554675198 0.06557932856270642
Ni 3.3901600139055734 6.335211406197431 12.486312961020705 -0.27907370777355806 -1.4461036033288126 0.47552193013540034
Ni 3.441895017318489 3.990151796287817 11.254520553329517 1.514646128284901 0.36141740027879693 -0.3635843260231287
Ni 5.915390957243779 2.088453625153587 2.5793053326146556 -1.691406642409829 -0.9115218909167786 0.4810526301456424
Ni 7.725352833666447 5.721646771871096 8.04382104530831 -1.1376257313615246 -0.06749197220438699 0.35320761077449486
Ni 6.2594480409078805 -0.25379577909605794 11.503172258321563 -0.6308592413895457 1.7767875790794945 1.4596129506691573
Ni 2.213441567988345 3.6216801313828175 4.9358531294712575 0.15865094900841065 0.2078747190312291 0.08515570803273721
Ni 8.11434929907227 0.8551338118337317 7.758977827175098 -0.5722272906789501 0.038870451812952414 -0.5531404492508281
Ni 9.44269562825924 3.0333944740173964 3.6738583674947205 -1.2260513683947853 0.037591070879896556 0.02770106545969423
Ni -0.011849577923548347 4.54531454531813 6.549392113359105 0.09117954562931394 -0.1128007234435154 -0.7891816034139442
Ni 3.2903498953410897 1.5305689491751366 5.777595244634135 -1.1941190384625628 -1.0675104626016776 -0.799768377790855
Ni -0.02983912416896014 9.545319630763352 1.8737524414200724 1.3736000368424472 -0.47274693849342453 0.89998792213525
Ni 4.767298722777742 4.160483731626856 2.2933043759585705 -1.5391042613272654 0.8893787791608362 -0.16923412384089564
Ni 3.6227560281832636 6.652095198875901 1.8836847160710306 -0.4298198001125952 -0.07116325040838711 -1.2597083943275984
Ni 0.7542027375429711 2.0108603157333627 6.218385565927427 -0.5661903404562507 2.016120002399373 0.22049086513334287
Ni 4.198710252989723 1.5598296638676175 11.718500588737047 0.012655998201113688 -0.7462076709555795 -0.33494249391671993
Ni 1.38657349619916 7.375879483203517 11.46665797614026 -0.26426518200581584 0.9349060741686738 0.3877336695758226
Ni 7.126915124440404 6.669318743382192 4.0021733337854535 -0.4541604337404888 0.9185893392865212 -0.30763120769627667
Ni 3.885955329229206 1.7972902029951894 0.9923915760431526 -0.4205509732161596 0.8819639747540036 -0.07643272633744255
Ni 5.393286746654532 1.3942702963869684 7.198646175653068 -0.29595659957182574 -0.4024437220924876 0.28325020774875087
Ni 4.92300949646969 -0.20889685843059372 1.7584503284990762 0.5778274104745468 0.18437946412276635 0.76754731297362
P 8.473754004616241 1.0651746152384753 4.323933605722698 -0.12325740000046513 1.2029785457357216 0.3079009164178956
Ni 0.34257289782143463 2.1241329378521496 10.759356062967514 -0.5636948277279066 -0.5560959323347261 -0.7328369060756282
P 5.807562189021268 1.4633024098993674 -0.13766237497198186 -1.235206552531492 0.6935000561492186 -0.9410255568028503
Ni 4.774002387457446 2.7328790258243494 9.437120275865132 1.4030767061453255 2.205801852571659 0.3184318978562064
P 8.314098275989323 7.850846539954406 7.7598661317129025 1.77169473793762 0.6622197579786983 1.0926877331982536
P 1.5918490883048326 7.659428866466449 1.2863440537534765 -0.27618995846785976 0.759005594051196 -0.21108499843841064
P 0.5888125709266656 3.987153998365206 13.505133895988326 0.27315245719311665 -1.665021724658397 -0.5863706720588675
Ni 7.056595613047128 8.79273441670071 5.389698584846547 0.9150052214796888 0.04524164544661886 0.8370174919503004
Ni 3.5973391157351124 3.0516387411292385 7.395495748628408 -0.6656971750043373 -0.35211334926905163 1.1087630414935614
Ni 6.290603069625079 2.7664249363203175 11.54788266715447 0.35033337455049346 -0.6856304235931547 -0.4136462756765263
Ni 7.042802064323458 4.727803194932298 5.403009359364889 -0.07457587563436188 -0.6528308605646305 1.095531373294636
Ni 8.479004748830386 6.3682331618419 10.850566363687747 0.9300088939773726 -1.1885819106944175 -0.815704332294821
Ni 2.2064528366350182 7.833439081465134 9.279314721907015 1.441165285486931 1.2915638482752982 1.3772150078872152
Ni 4.556689625165584 7.612411256717029 4.050665014108477 1.823219645289789 1.9996577430782916 -0.3086701904837522
Ni 0.5649000748593094 6.136317629301243 13.575253860710065 0.7436591935021127 0.5681716325523376 -1.0358720097607903
Ni 3.0471880227410675 0.15516730787223534 7.716515766784148 0.4196539153231869 1.93511945418559 0.8989378836041809
Ni 5.201859877467424 5.265687225261425 8.202244550249246 0.48609353500365965 -0.15416771642607643 0.00023782704241894525
Ni 7.94131382818339 4.406284769882674 12.034432626553581 1.4342562170719233 -0.32728883402620407 0.6581317039522536
Ni 6.866069922376635 7.593743987444327 9.880238948182978 -0.544480716693301 -1.0259328962702072 -1.2753389017760035
Ni 0.6805589809072913 6.530509664726314 8.694488486561491 -1.953409510744029 -1.1018208058477734 -0.6770581085431113
Ni 5.330893927927793 0.9291426377256313 4.791870550474091 -0.48448839530006876 -0.5929616950128239 -1.1833039501249298
Ni 5.954914072186671 6.670229117597954 2.0823642331770436 -0.3990596361116031 0.5313035558813947 -0.4761431086591671
Ni 2.8417561037498595 4.202259792861281 0.3687227074917703 0.7359417702531971 0.07577632370036627 -1.0684530290206051
Ni 3.001448615173374 7.161628888728309 7.072456354939521 -1.3966715739499302 -1.241980380920216 -0.36901321034818385
Ni -0.022271063769239284 4.077906353267813 9.597038081917798 0.7176437432749576 0.9398580188573105 -0.7176208604568222
Ni 2.364876341575955 8.289941174324602 4.803094820855499 1.334449849005547 -0.2600899675822037 0.36284976184994927
Ni 8.509240207632674 7.204839479029997 1.9976414982065114 0.020740574981461056 -0.2612616192928017 -0.6035155592692704
Ni 1.2933107154288452 2.15547188055233 1.292515287452447 0.4608674134470192 0.9214877438802388 -0.41724402033011365
Ni 0.8088693298446241 0.13564759728841097 13.0211670084802 0.09986318944624091 -0.31606648294782336 -0.23226471783981936
Ni 1.8027892310863594 6.603256840694955 3.3711828495715466 -2.7369845666044736 1.3234509267918821 -2.0609649266282055
Ni 2.717485425448732 -0.04650724844664424 2.3966281711679307 -0.47563583000544535 -0.20286055364608932 -0.33573465080071213
Ni 2.0122396706057297 4.363083375280136 2.440624993746867 0.051913915260471885 -0.14268696947998652 1.5088076672262531
P 1.439706245882741 3.6524857235323496 7.689772834518695 1.2736851682226644 -0.7824895361057491 1.6931951017688194
Ni 7.316447679602793 3.2608592881698812 8.365070036372863 0.5091614725667166 -1.1745840537534287 0.8656516107472254
P 5.434805328312781 5.242035887049904 4.090382158303416 1.1132010226602571 0.8533617376362788 -0.43531296201668257
Ni 8.857922727968779 4.817626784220844 1.87772314431266 0.22748760816615016 -0.7097278308619906 -0.33727191338084495
P 2.2012296795183217 0.2619873078980887 11.051789411178405 -0.2665326378837538 0.6453384088423273 0.07533743639073476
P 5.04548701343674 5.272234563055594 0.14139674839643707 -1.3475619609074727 0.21394097982996704 0.919628579184313
P 4.324148785082787 8.570943348923228 6.202934952217086 1.7054885744241919 0.5458624275321761 -1.4059815384969463
Ni 0.8686698809812277 0.5553733305408273 8.833100777255575 0.44740845972863597 -0.0702988455255628 0.641502837146321
