# total energy = -381169.4743957466 ev
CRYSTAL
PRIMVEC
9.27613476676995 0.00000000000000 0.00000000000000

0.00000000000000 9.27613476676995 0.00000000000000

0.00000000000000 0.00000000000000 13.57656087723864

PRIMCOORD
 96 1
Ni 5.6425613720570995 0.9222119682103889 6.907604433784104 0.5971389663189652 -1.1969973884516223 1.0421928097724953
Ni 6.04461687463001 6.338661065757959 1.0215890535566758 -1.2019724730687107 0.9577981482754988 0.8010153628240786
Ni 1.5921742974094912 4.206124098681399 1.6084557688839156 1.183530464313439 -0.8961099272370826 -0.993622614173276
Ni 3.37368377842454 0.8650997350056926 8.822103073919127 0.08419617233294532 -0.2531996682202736 -0.047194141187299365
Ni 1.840227413121422 8.74084598992775 1.4029884595712183 0.6198238095109906 -0.9329304384995417 -0.7509297590215971
Ni 3.79297433911019 5.6394260385575805 -0.021086509204456108 0.13213079123069502 -0.601037787152739 1.2792276953074486
Ni 6.514323226942539 2.32180721773982 13.577917923235393 0.15197816497392536 -1.5093311438298909 -1.3067703808124076
Ni 0.6300443391148439 5.2546148702320234 3.2637504518875655 1.3197652504101787 1.541531125601203 1.4297778695855956
Ni 0.09394498091635127 1.7622615016910799 5.586469513659938 -0.06111280815092055 0.35270316033425064 -0.4368718218633702
Ni 4.180280787646904 0.9366020358370266 0.6909885435285676 0.003414939218819925 0.8061359718800954 -0.2891058951985795
Ni 8.690838348223888 2.4952152782132067 12.48492396826083 0.17413207536314526 -0.8003340204863377 0.6571384868010489
Ni 7.135332610943384 1.9121452847834615 2.5244258261125703 -1.0296669093913429 -0.05416337341628091 1.421229208684636
Ni 6.910562593112496 8.140299758885304 7.903554251267791 -2.3484163169424974 -0.32967893152493544 0.2912298835201178
Ni 1.3122391070293766 1.6221362122125853 2.056170261253665 0.3134987222206472 0.4832043863813227 0.5288684640773408
Ni 0.9084415463759639 0.300813914169218 7.499094374602941 -0.958792393867968 0.872973084109303 1.0702895680087114
Ni 7.5350783559974195 4.101980935370459 8.714509188531794 -1.332298606990499 -1.8384560026235692 -1.42718285516491
Ni 5.721658971910345 0.7656493681959554 11.456716392657095 -0.3906382448171272 0.034487749364224475 2.418625173857415
Ni 3.884706034307651 2.332419115738192 10.618078686864648 1.5421749298327891 -0.39015050654743133 -1.224377323126472
Ni 1.030420861322628 5.7555168632513025 7.748876561806915 -0.6129692484830025 -0.3439871206174915 1.3403371610242596
Ni 2.5145003620756317 3.3941191029790962 9.04750108606338 -1.8961695552849538 0.07703847824224151 0.15328891336554892
Ni 3.8887411528647235 5.132318311481562 5.221558436921712 2.5057508611323294 0.4809366733930685 -2.5236645081879567
Ni 0.7772621611191731 7.759366014828381 11.809924697966348 -0.29083676184675716 0.3598814232502447 0.205299244994569
Ni 2.928178861319836 7.9851007506591225 10.596424478221818 0.5456541681761119 -0.5839057554581428 -0.2551976724869089
Ni 3.8740941363092793 8.209638865124662 4.363846215522577 -0.1977653985113691 0.10991645991718489 -0.8437918345596565
P 8.1681374388618 6.267429628057353 2.3548404607135964 -0.6408168668228899 0.8878011502610711 -1.6326427941070594
Ni 5.369490521291316 8.10399296800626 10.251633337461273 0.019931191706288254 0.06349493522985195 -1.9238109711513063
P 8.916619464727697 8.155623933267567 8.435388442770785 0.39189140049793797 -0.6874754472216935 0.9995613482552139
Ni 5.89810960453711 4.527217498343658 12.676896356937139 0.11686846575498583 0.5787985161385645 0.0701468933287308
P 9.227073137987745 2.3917121681906304 3.465824551158476 -1.1674860092560668 0.7770742786274488 0.45262137138814307
P 4.517839326248944 4.708936975431154 2.503476603700401 -0.6765829686789058 0.404436069932168 0.149768044696484
P 1.2369447223678554 8.502171046310536 3.4415359202852804 -0.12269227152561452 0.0670595126526587 0.08191226139477506
Ni 2.6367134356145683 4.293458906071842 6.8271636496387575 -0.6523438936258831 -1.7868066538783935 1.345588896341502
Ni 1.7618440756334515 3.45068497185503 4.421872147986749 0.21508152119231347 -0.24721902515680647 -0.24792402164363112
Ni 3.017572970594578 7.094100192584328 6.496411011002979 0.748768232593904 -1.7053556483907535 -0.0254264104929046
Ni 7.712948237220121 5.824800312682976 6.985818945622101 0.32140100778685937 1.1521666052901771 0.3088280562178552
Ni 7.956938405971137 6.210947244392944 9.335867355194125 2.1528268430365243 1.8196326992694791 0.6432645570324341
Ni 7.844270474949966 1.3416073492171772 7.982229786996101 -0.5823998603365776 -0.4491066733666652 -1.3445715108205811
Ni 6.879543198963411 8.312993556993415 2.907135022334604 -1.0588185912546346 -0.7276077964662049 -0.22092281046443885
Ni 8.465372620296952 0.1726353584600437 3.909058670509683 1.7768212605309077 0.7580206044301074 -0.1352060877219091
Ni 5.236034772600259 2.9444120968942675 3.721158504928905 -0.4463550787634571 0.8511359336295535 -0.14260829372325118
Ni 7.496044381541871 9.261357731520945 10.160629818831007 1.3103239024916207 -0.6069502959824321 -1.0411013764805295
Ni 0.9738364401774661 0.3127374576020034 10.080854133537482 -1.3575432404899006 -0.5984281174440339 -1.4599297105786277
Ni 6.464575317007865 4.803701966647379 5.418500050910717 -0.5149379700391777 0.061031561291023925 -0.8137780618063856
Ni 4.229694756735474 7.9823828432172315 1.4323539189186345 0.8588672408355403 0.04715326064703492 0.3830822868467402
Ni 7.809846739397558 5.697874962760149 13.531731121379021 1.8747052147635908 -0.19609418145653326 -0.5315385547103362
Ni 4.314998090645458 2.6587535314573394 6.043429529399424 -1.2654087871464852 -0.19173847559099882 -1.5689390853005107
Ni 1.3873108644601628 3.040401537879536 11.20058098085602 0.2548593153108837 -0.4712356440552207 -1.2119933476398224
Ni 3.4653876452181582 -0.003946067664779003 6.413539879588775 3.480055491703284 0.9583745896042589 1.3401720962013048
Ni 9.143940419577426 4.221216369698314 5.918715609968563 0.06914364887519706 0.8706452073070747 -0.8691300562141289
Ni 6.476253970486843 9.184041149513579 0.7874121076137692 -0.6760150119905777 0.2591101201674376 -0.6623405998272787
Ni 8.543171561304243 1.2834552613222558 1.041380614369023 1.1053997814482832 -0.5606375289588216 -1.13876370162071
Ni 1.9688874002170607 2.50639302042303 -0.13179346536823486 -0.20659919475291516 -0.5697070953602575 0.09526605699386174
Ni 0.8318679827511773 6.442498116626639 0.9800866996803529 0.8243645790729803 -0.9236731815673318 -0.46830792888546446
Ni 5.951567968317367 1.7267431822542234 9.360699567555697 -0.037786474720154284 0.5467605138664132 -0.21155268210344857
Ni 7.900187014402923 4.384244435538678 11.347846111146879 -0.6251807029475298 0.44314299958406267 -1.4453353577042207
Ni 7.647384517768645 7.378645621867581 11.575796915536895 -0.5356029545876968 -1.9115591503671465 -0.21147092102291967
P 6.282846563785757 3.016469110575516 6.94039185919061 1.6046797332352298 0.3106962197748456 0.5433062367692255
Ni 3.215757586621854 1.500693057846608 4.179123126047081 0.15161358254565502 -0.9590926987172064 0.6082715858970169
P 2.0787353863155866 6.247903364694965 12.561209971712584 -0.10309943699535147 -0.22234103096820415 -0.1667139285222032
Ni 5.311783687857865 6.679623945763323 3.353695563558377 -0.024027730373165072 -1.7555926901694348 0.3938996891772184
P 6.133779080539403 2.943419550490574 11.21848855872827 0.07102338239641318 -0.3049773150131973 0.30367427993105767
P 1.8655976412906052 5.5774614593363205 5.317341020105089 -2.1894362667294422 0.00656942568740159 -0.9859134184544763
P 4.363410237195722 8.163183982977946 8.127716682281466 0.5967725841184819 -0.5403445830377404 0.3594445928231423
Ni 6.254851189520822 3.8880918234417465 1.499911079698651 -1.5340507580637581 1.6108514092635806 0.9332070891996961
Ni 8.304273990456291 0.05236841796311674 12.580991328776857 -2.026911693698238 0.5372656870021006 -0.6586685502923301
Ni 6.185539911685306 7.279437362171269 5.464918756132439 -0.40974642640148784 0.7727273145126627 0.6086744777623905
Ni 0.5560949939723471 4.596398910294579 12.633288320503445 0.8542150867755094 1.2128842348852078 1.4581165686292887
Ni 5.821368142875811 5.624871783348275 9.457744632660035 -0.9742076999817737 -0.030547533769553846 0.8673040587489838
Ni 3.0362458295724815 6.3962009287683586 2.5394689336160305 -1.1821631516522673 -1.0186474183523877 0.29535573276303323
Ni 7.854242319659974 4.3869066861728845 3.39200878235442 -1.4057545100878048 -1.1289737121134813 0.6470170820963308
Ni 3.4121611848032503 2.5859822554108156 2.1601529474357837 0.6550157840310912 1.473314873636282 -0.8302056112347895
Ni 1.6207169636166494 9.266691508923973 5.420048237777787 -1.4464908114649022 -0.3398882679577695 -3.4744754265123454
Ni 2.1204501636745694 7.945742111492086 8.449142167562904 -0.19009914021536292 -1.1837220114989548 0.639507403982847
Ni 1.569614738028338 5.931197576705109 10.438162490346105 -0.6283336467542147 -1.025418161417318 -0.8136243098373407
Ni 6.12644165805976 0.6885526305789416 4.628263360306996 -1.2275289813815762 -1.1460286107132394 -0.9218320145935349
Ni 7.17817907672527 2.6559706910731506 4.980343687647193 1.431695912543915 -0.38696516684091414 0.58975887180481
Ni 0.6475790163756145 7.269484069730488 5.989286586884655 0.09020304064865756 -0.8525130164827383 0.2553740501637731
Ni 8.257531548136543 6.799601470860295 4.463239997911169 -0.4069578079127572 -0.11940768723707178 -0.03063572260798595
Ni 8.282855395632655 8.879487097868012 6.1699355980377 -1.068166608128438 0.06715875723468433 -0.16098499645822598
Ni 3.517881290998564 5.673321034436994 8.778549766679658 -0.9236328152476996 0.7802596183339658 0.6401627781786589
Ni 2.501690020173752 0.888870757567429 11.506311246370636 0.040849944136826424 0.08874213983241491 1.7399177026363388
Ni 8.544989683688579 2.1216096805013143 10.020968336083211 0.09567357684492556 0.05888751836482761 1.0777763633040598
Ni 3.4557868458927086 4.432795724108149 10.989316087409597 0.1779367938212161 1.9094971256317954 0.7171673178591713
Ni 4.2585899160579626 2.9048957634387937 12.787192380337517 -0.5465594535992007 -0.2827660690234808 0.9316837105766342
Ni 4.60920925219646 3.4137937844953075 8.193522508846366 0.6355412202462474 0.8378070777311313 1.2333748986393918
Ni 0.46938168760103977 2.681851106646102 7.658605857811153 0.8065028683012111 1.2679528937245776 1.3246696296903318
Ni 5.2151263651803905 5.727604974197893 7.22801139948493 0.30003822584036716 0.46429160863721974 -0.5154552759952284
Ni 8.504601393579394 3.644982887479057 1.2098667578162419 1.3807129937381448 0.2434500450326775 -0.7796932043075345
P 0.9661186961786504 0.252156877665147 13.07329156216861 2.064593524519728 1.3674106202022838 0.942054512287997
Ni 8.665616538208528 8.238070217716453 1.2728795402488788 -0.21102483462443655 -0.26628324087710914 -0.050386422872351934
P 5.888044998480963 7.972485207584135 12.661038804814572 -0.6778546363024778 0.24904476551163562 0.17134011444030492
Ni 3.3821528893270862 8.497690673291993 12.83895970477765 0.06520857548684898 -1.4100420817195651 0.3191055268844633
P 0.144318102324005 4.044060750840886 9.624681661626722 1.9057014060347888 1.310548359797601 -0.16205200427015962
P 2.392537744171273 1.716789889813443 6.891679165878855 0.02603113395643904 2.8744825356843524 0.27240580883507926
P 4.613791662695756 0.43415649401798434 2.7860193155205 0.6697471767039949 0.13038552640481416 0.5072555137932554
Ni 4.8768721164823035 6.346657093795194 11.606737462541762 -0.25500021176412213 0.1407534999026995 0.06808563992432791
