# total energy = -381169.7200126363 ev
CRYSTAL
PRIMVEC
9.29912042583285 0.00000000000000 0.00000000000000

0.00000000000000 9.29912042583285 0.00000000000000

0.00000000000000 0.00000000000000 13.61020271270133

PRIMCOORD
 96 1
Ni 6.5596553843906165 0.08753820059157351 1.8094489013841708 0.38145992075196883 1.5713420383150487 1.2489043617335587
Ni 6.131858645628109 2.4759559228043035 2.636595439435481 -1.1071293625448804 -0.40472017683149003 -0.044604011862619954
Ni 6.720632459095377 4.300117892618829 6.119664708936967 -0.7237843089550566 1.2986642067655054 1.951167765897704
Ni 2.4473704264353797 5.963414377174407 0.9884555913573619 1.1008522712869169 -0.9724837753121317 -0.1286646870589655
Ni 4.915970744936555 6.347793522395437 2.3734972833955736 -0.5805759197539614 0.19784793092284636 -2.2478676713934576
Ni 5.056471156334752 1.1178379743044595 10.392587323699283 0.039941316279627985 -0.4320006098139979 -0.37945086074174006
Ni 6.985145941273004 7.168877963802993 1.1831159402805715 0.9479497947265094 0.14149089228935632 1.00787912409229
Ni 3.3244355731587842 1.0808460730176745 8.27058010424299 1.2518914693863408 0.9376414708219658 -0.7371954401546401
Ni 5.9957567182190115 1.076057025968229 4.996128233599691 0.1429042276971152 -0.7719747526173544 -1.175096731723789
Ni 8.622274700785592 7.7753387044315145 8.380985772017654 -0.6472369114166208 0.47702936791886225 1.0949752436808498
Ni 4.294101361665448 0.4316196071936288 3.162344463819998 1.0261079883954909 0.3607435141402239 1.5427398011973237
Ni 6.84659834517652 4.637666667080621 1.7510346162375652 -0.20426591863404822 -0.13667984405395817 -0.7753197578301874
Ni 2.115735892601641 3.7670365117323943 5.276104293318712 0.158623695314901 -1.5386838859603953 -1.322932592394567
Ni 2.0551800200074872 8.6077029789866 6.850845253501728 0.49062947520080025 0.7780538689318988 -0.1954210666489086
Ni 6.462358686762755 -0.2646892355547813 12.50191054281491 0.8837514056717296 1.659762533141987 0.2856631880656177
Ni 1.627625058377572 6.649280307618881 3.084915337106972 -2.9284155382573824 -1.0613740106866365 -1.3655740812141772
Ni 7.783931091759063 0.8987153590350918 8.98406721226216 -0.16622593314219114 -0.23109460879111815 -0.6636014688175733
Ni 2.365621858257369 1.441345076834868 10.722784213506142 0.5278845028975168 0.09025600537378003 -0.9334338604985214
Ni 8.59721357108024 7.666678481571765 12.617515348852379 -0.6742075264681937 -0.25203958647390146 -0.07535646255412828
Ni 4.273113246732247 1.366356969248987 1.0465332483424337 -0.19709074104184765 0.19494386990217397 -1.0362707878611057
Ni 4.005298576782672 5.4009384764369095 5.4011821133936 -0.05066590178598371 -1.1583035714258503 0.4846683725213588
Ni 5.657994063986079 5.932187930587925 10.152612360655787 0.6469209228380988 -0.15870777038827508 0.8680195967587696
Ni 6.078556087011755 2.5029884660523387 8.084623732093142 0.5077735910802545 -0.12495818474165576 0.8793663892301565
Ni 7.307816122959819 2.813839465603533 4.632449860488895 0.2925501449934381 -0.9508052618974336 0.7792905695524772
P 2.563683825453758 1.5083545390451676 13.022228880836561 0.3145410474422325 0.18632527499522747 0.4734105402193524
Ni 1.3587595878132646 4.87300880829881 9.727306856271039 -0.10995914022966224 0.26202935069676164 0.29257045670841225
P 7.40700984116649 2.3083485751941946 1.0015096966933068 0.11628533955800618 -0.5574195362421561 -0.7871949120012185
Ni 1.9348587000603499 3.9668374144593583 12.087874642545158 -0.6016530521392348 -0.8876594824768842 -1.3370620898174135
P 7.237245097604009 7.20664169208998 10.722090499118007 -0.7418709912534384 3.928636631583783 -0.0177300702899114
P 2.8716985932572214 2.487868096144769 3.588983462082203 -0.06415802273514758 0.07690246688500949 -0.7200587804743535
P 1.2191797893430174 7.021561297089758 9.51677104885693 0.04033880882836279 1.0237775404901013 -0.7690701773760497
Ni 9.163241735842764 8.790486491227185 10.660545200104318 -0.9028747567647418 0.7197047395690443 -0.9882536365518787
Ni 3.0533569119191992 8.43056403288002 1.798139311051092 -1.0608744453423986 -0.7301495890514522 0.5429090013308069
Ni 9.41768427053583 2.736154613077187 9.387133870008562 -0.16995557538795247 -0.25187272187873394 0.5547535593742188
Ni 3.4483370544924 7.244331027413092 3.926203047678849 1.42999872734715 1.4038490655349758 1.451506776622255
Ni 8.247157479566983 6.579769381998288 3.376582251098931 0.10350952794957657 -0.35629370589898635 0.08499141454073104
Ni 0.5465995123345493 1.3748191688897546 12.202935450034293 -0.807122504163081 0.42496427179250684 0.630929689616165
Ni 3.442822676045174 8.726452747571878 13.110096270293282 -0.04083451751785871 0.0761373065842108 -0.9468257084243952
Ni 4.019675017051493 7.176726421491793 7.406821998932705 0.20887873481571123 -0.23008750768284245 -0.8367984339609588
Ni 9.185838598619759 4.7647391484994035 5.59744098112807 0.6810014094615756 -0.3316766786812546 -0.3790690519222891
Ni 6.974600738643739 8.837186674299641 6.81692857135912 -1.2027018950355675 0.7856759042535307 0.5536852660107044
Ni 7.557748584217969 1.6354921143073409 11.156051624849598 0.7673344256318656 -0.1101098068749136 0.5269792174744279
Ni 8.295066548302408 2.6208269208301513 6.909423203168858 0.34962657829145594 -0.5610951853215305 0.3331514634545682
Ni 5.921754317404473 7.758776970848869 3.8303876999441466 1.305296110259726 0.6724134106822484 -0.11922488180230434
Ni 3.6903094686159377 4.130660020032332 10.369136801661824 -0.01973347387318537 -0.586527509351706 -1.3769679248734157
Ni 6.45705818808667 3.119213283189438 12.850331848947016 1.9035946441044311 -1.6028781612501168 1.3558938778119358
Ni 0.8815203553474613 8.240573702264058 4.698636350536329 0.6302935986940629 -1.155405423942449 1.1655756796072314
Ni 4.8595808783193934 4.581248903102008 7.8834781765441395 0.48148997479337724 1.8609863225156014 2.220820951688311
Ni 1.6000996617438659 7.5184226036896105 11.532999842891577 0.3134110476028473 0.20285438299850228 0.8951552766332971
Ni 7.4561091973239115 5.513113766839746 13.209355082343341 0.9882448948011304 -1.2458684031207123 -0.34795690389851686
Ni 5.912092531221223 8.534528199895169 8.973030086159273 -0.27473291430635904 -0.3057396471005186 0.7421574121456057
Ni 3.4480394826369007 6.112841944237592 11.665318888087635 -0.33813451849145637 0.15051237906167625 1.7456798019310966
Ni 1.8479398208930349 0.5685686844788505 3.473799906202675 -0.29724549358657837 -0.14450216831185436 -1.5521700933722882
Ni 6.181776324388154 5.150699144202775 3.965917731443455 0.11323781098093402 -0.6966288315861873 -0.5218226129741529
Ni 7.286465342327728 4.409466250394421 9.209547636206684 1.0174389998665834 -0.8100682170549662 -2.2693430676584145
Ni 4.595318472394845 8.585245603016869 5.5838038209377565 -0.35802123011305437 -0.6016319690933122 0.7179049673561443
P 8.79555451189116 3.6138892964754654 11.464962827867755 1.2029993716713283 -3.110329571558792 0.5298200293573327
Ni 1.483293409339817 3.9352854986559236 2.6587942998557454 0.23687984801432752 0.11818281369103519 1.6847212599698536
P 5.784071539513036 6.444104513251957 5.570438195065585 1.1684077497393877 1.7599743641768977 1.8532727559214275
Ni 2.4191382966448622 3.4581569257238844 0.6240072510704607 1.3740939457597303 -0.48070835943234635 -0.28093312957980004
P 5.147742023888749 1.0153802648077785 6.921168922252653 -0.6478367497841488 -1.0414127370733612 0.3455601215315661
P 8.54656126180193 5.204736333337393 7.5551327416257195 -1.1983353905367555 0.03369019316359359 0.6394724369798536
P 8.942536410266959 5.815084106328377 1.2932342652322686 -0.308809544275094 0.21456730056005627 0.9482434147075282
Ni 6.373645077341958 6.2976061691413445 8.01683128393806 1.26681775167887 0.9643722019485905 -1.9831831424620359
Ni 4.809477217149661 3.126392204203364 4.393795372554178 -0.12110255844099142 -0.01793447299123363 0.2513677572178574
Ni 8.142467981154056 6.9831001347664445 6.102256755390244 -0.4168701819304627 -1.2127592792715696 -0.6017306994547056
Ni 1.0138273116868903 6.574664164852374 7.295667751959051 0.6226934177493018 -1.2615721870092145 -0.5567325374774607
Ni 3.163049337152712 1.1118493407125316 5.287278116492719 -0.03914067475520355 0.7838434790304822 1.4968908611840093
Ni 2.5768885765415495 4.63098989857285 7.338077320840024 -0.21287011536329145 0.3076456058739798 1.3667688728532268
Ni 4.0537376953857045 4.19922243536352 2.493375965207655 -0.23246834921019321 -0.4948586827907993 -0.9175436716308263
Ni 2.842824824153283 8.58138646801586 9.490843241122436 0.12164788942150016 -1.3721303942754561 0.6621297693680532
Ni -0.052216421343779594 8.412598132104236 2.3607714370127266 0.4431849085655916 0.46320171800715065 0.5147014285483393
Ni 8.527628252495774 0.3035093439287916 0.5696799293767315 -0.5163124817892011 0.3728726933035901 -1.508047906242093
Ni 8.26239873804085 5.47025412052733 10.941854753700795 1.3587686282565696 1.0580472603062487 0.4824641657811884
Ni 8.411937894549848 1.5904657729220686 2.7979444789596157 0.5055115345189553 -0.6251462501651686 -0.3436166246519501
Ni 1.5065133131892645 2.267943896689649 7.120013875393825 -0.3028276156600462 -0.04387330434418251 -0.7928755073257635
Ni 5.361993759848409 4.844032748869543 12.134462306259755 -0.7719611257705996 -0.06124959083910097 0.5594494221879914
Ni 0.33075390712387015 1.8893767017713439 4.756180238005598 0.15799686036417948 0.3508090286353313 1.3357264017251254
Ni 4.326499497432959 3.055346923702852 6.552128676270575 -1.279694607641538 -1.8334400374662168 -0.3327922803429365
Ni 1.1513148080481566 1.3720759283468686 1.3144120822233507 1.195421302213754 -0.12635840752329205 -0.6055996954918087
Ni 5.982282292637174 3.2167703561908616 10.598060689921708 -0.3201136564340036 0.42781511097774055 -1.304905816799843
Ni 3.6678055970437864 6.2641479336386165 9.39358466988856 -2.2162629000039833 0.3405577832209683 -0.7642069357464775
Ni 8.035611787668273 8.851851387303478 4.644400160223346 -0.8440340324774497 1.3318144682652289 -1.5322823533094254
Ni 4.758443643931492 8.21494532620916 11.213786144288798 -0.8743411681014233 -0.3812588604847563 -2.076273017740186
Ni 4.226896617924977 2.6739248987958484 12.053277264783096 -0.9397461758697945 -0.8150708124758802 1.5258337694706043
Ni 0.6776204003109914 5.637377913872252 12.9997305887367 -0.3293050931252845 0.2825449541516102 0.029160166503723974
Ni 9.248877336383236 3.5103807863640517 0.9574216365649065 -0.8952702049446065 0.8048301085844786 -0.5722224055829436
Ni 5.738663934187904 6.956262873048581 12.833536707440212 -1.1757893869154397 -0.14923016991514299 0.5397964238437543
P 5.019562947132327 8.311730572210381 1.0256539331188996 -0.35675547602675334 -0.48008075315067633 -0.8230512595781955
Ni 0.8967644035574731 0.4622258024438036 8.605241501794389 -0.6164651774514028 0.0010366687946304727 0.08948981663171685
P 1.9284516060466257 5.886529249009716 5.14450685987224 -1.0050840778456562 1.310976448473955 0.25908286647392803
Ni 1.327254167612252 7.830361600337474 0.3734303607627446 -1.3396000257479186 0.8282885967177349 -0.3267229342204051
P 4.25838343988502 4.930003117747454 0.3395592443105109 -0.3081024909057404 -0.09802073692086345 0.6128075260941575
P -0.3191179176617902 0.2717147210807155 6.486635900611275 1.4185830293110406 0.8491304731637505 0.49747066649234967
P 2.3513942039162976 2.9751048130433078 8.962345396722743 -0.04995113510714624 0.1918230648850051 0.4164238384216634
Ni 8.454909130308076 4.129153562513866 3.4518056264330665 1.3517523448397364 0.6863055952833084 -1.6983452785111912
