# total energy = -381165.77507845155 ev
CRYSTAL
PRIMVEC
9.26615620176835 0.00000000000000 0.00000000000000

0.00000000000000 9.26615620176835 0.00000000000000

0.00000000000000 0.00000000000000 13.56195623870872

PRIMCOORD
 96 1
Ni 8.625336374429052 8.075714336073219 1.3911715391037947 0.6677471155548307 -0.02549325917509803 1.0572846711086115
Ni 9.39282427076048 6.159047048780784 11.416250646862034 -2.479276468990885 1.4954834393135212 -2.5616227325992846
Ni 2.9886132686657167 6.003727743260756 7.880974950041121 -0.6887106051803752 0.6099044935147496 1.8376746443728547
Ni 0.30112782860444304 3.825680729795492 11.250212252174508 0.7514110695333898 2.023823798801534 0.40157674610650196
Ni 2.0270828012273268 7.031705814796754 5.967450742836528 0.3476869380665818 -0.055002838598440754 -1.3055449930457388
Ni 1.7461978168442804 3.2979360855652273 7.753614416776526 -1.1818062825334807 1.6706215873436776 -0.563783530786971
Ni 6.7602537771396 4.3625988683859065 1.6186334281494603 -1.6483900296389866 2.000761774775748 0.8851588275422175
Ni 2.787000248172651 8.841682582833874 7.004858981251642 0.5613031875672784 0.9516915211571286 -1.935597422263273
Ni 3.1600093547058057 3.640663394553969 4.172254420106353 0.0437689175558343 0.0648229100126561 -0.0005687280192764399
Ni 6.213606174833876 1.7369131286130985 12.973041750405796 -0.1781594513549835 0.30142353622366796 0.11777992182566166
Ni 1.4377460186011883 0.7107262050163078 12.291865316616274 0.7297533820542981 -0.18533565738844854 -0.6032340234731096
Ni 6.809948171335037 4.117017938055557 7.488003763810925 -1.4419741545414715 -0.8736940214357275 -0.4891356642640931
Ni 1.617648435775234 0.21897316360795552 8.848783238114866 -1.9460456141797902 0.14515934227987903 -0.6964745653965102
Ni 1.9768695023004064 2.0465324625020274 2.424185766381957 -0.8823655810677964 0.6373150243172185 -0.003969526170709292
Ni 3.974013353752335 1.4439265445993903 5.132359752764349 0.1665954006664679 0.05234354659872276 0.5933743570702104
Ni 8.921788500756595 4.683634106367466 7.63148926160636 1.1471280144250051 0.46488373369526387 0.8554613004777848
Ni 4.982152585465022 2.850473416220151 2.4214059196061544 -0.3725145386332229 -1.1573185818047618 -0.00930173701690011
Ni 1.0401538004140165 8.223676313793288 3.931909794486024 1.187872800442535 -1.2275760325694278 -0.41442094905902177
Ni 1.692824758748864 -0.04906985528647311 0.9407520394048557 0.046044600963888446 0.5278125120090007 1.117751875255733
Ni 3.6646905368528255 8.58473207919049 9.00550451302549 -0.7832243573892446 -0.22031525878742703 0.8810743730601988
Ni 4.768141448351875 7.395615556217114 6.993846154941504 -0.503227623580785 -2.0789310241883228 0.1697876823515205
Ni 1.7713461640093773 7.642706869962318 10.277317771116635 -0.36449166832874647 0.6592318789949678 0.22991370110913953
Ni -0.04025959423836173 1.5087896360347917 7.667740316794014 2.3425578012791917 2.3212618680148926 0.30736124186434166
Ni 0.8658703801894606 2.3737574926377083 9.697463045842762 1.6611259891484165 -1.2322358999389422 0.1725413338372577
P 1.2150710257034554 5.649408473216915 9.325065505600284 0.9909486668855386 -2.6938332280279798 1.3086822531231397
Ni 7.353973451515587 1.186049425364073 6.594839921361039 -1.252551728678159 2.387779392121152 -3.467066535642784
P 4.928733196590009 2.540779953083867 7.118006157951557 0.8121096729650272 -1.200155988685262 0.4087285266599348
Ni 5.332580070022737 7.576296330488385 0.7885137307280089 -0.3678631559041407 0.711172276618001 -1.1400032304547658
P 6.428571726006715 5.87685553641311 13.615660782799342 -1.0761038606976434 -0.8885280011247665 -1.267523776606959
P 3.44035690204553 8.275298068419948 4.405926486849163 -2.3238257720873268 -0.8781931948576617 0.7811613042126289
P 6.793176429121027 3.0543751772252947 11.03296259356755 -0.4742680031236412 -0.7725329391136695 0.9179319082081803
Ni 5.630208998152036 8.032617444892354 9.407264648145183 2.366202951501957 0.06560581092526765 0.6109843568424898
Ni 5.1230815508423095 3.672538970916509 9.254542646129346 2.8502984822389816 1.0535342029272436 -0.909623131232169
Ni 7.576314862800224 2.4861003670038238 2.455270013028985 0.164014270202853 -0.9138253422389746 0.06904980360981013
Ni 4.796634877803854 1.4855871816127566 9.891113658554337 -1.491924261207353 -1.8711915451833774 0.5758561456807888
Ni 7.974175799509056 9.146622507983533 8.36871667255199 -1.2455164190979324 -2.261730288308163 -1.225385195565696
Ni 9.088106733352882 0.2586508432545825 10.250749848864695 0.3767046654551706 -0.44177542981257467 -0.21146706436817772
Ni 1.3903681633855873 4.822200201985322 6.023407205202256 0.742945712374856 -0.2764714942640206 -1.0411718247071486
Ni 3.0468510586187882 3.8792669094770527 9.666338028109688 -2.639712534924177 0.4044468685654454 0.5100598160112699
Ni 8.705970463239176 1.9029533765318067 11.773391461383312 -2.225514500509238 -0.7203284891959724 0.8972952057944353
Ni 1.7411106972445611 5.929487302034979 3.7810465833476083 0.12850219333917223 -0.265830983831039 -0.6832349267777846
Ni 5.1394548483517895 0.23774176242258488 7.061005399813717 0.012655226870165301 1.8988812977891618 0.7041953310795357
Ni 2.082105235076386 4.420910787586332 1.8231069109748277 2.394153928188928 -0.5014764452176331 0.03771782626574795
Ni 8.153197931870764 1.0215658916398143 0.7058966845511463 0.9903241459276622 0.5920895768205158 -1.4636117874159051
Ni 2.4291505727235414 5.647666435904079 11.216198973641376 -0.10602278128973353 -1.3743811379828461 0.42725641026079325
Ni 6.6501440463500465 7.47791755309272 11.990979334681327 0.1706132635766094 -2.068041630969329 0.7739030799883188
Ni 3.1390956407958486 1.7463646076508283 8.129999183911098 2.201084906711964 -0.613356199508776 -0.034304943929457044
Ni 3.5463895242305723 0.502265495298847 2.82859046240103 0.8819020111678166 0.6958618715131758 -0.09068409405013414
Ni 1.277534182755747 7.544578278776474 12.842060003407925 1.118473583913106 -0.04724710591242186 0.8595005035441649
Ni 6.134009895486719 1.3781553698838933 4.123051132174641 0.46450141065518064 -0.20915949928092364 -0.18411361205588936
Ni 3.974865840096915 7.285329768465094 11.328437140445603 1.4308081106223227 0.5792132350784799 0.20483078999858273
Ni 8.820518682714093 6.519574643290584 5.878592940647987 -0.34235292744817813 0.5910747624027562 -0.34861510630780607
Ni 7.664649127179321 3.8080287027691435 13.28510178976388 0.9492178628056556 -0.5570819503970793 -2.418315613036796
Ni 3.136658641789061 2.358560996929986 0.22136661168192182 2.5353928523684788 -1.74235099466818 0.8478073834769527
Ni 0.7423562282469853 3.6893663100660357 3.8411116592479737 1.4311297556277998 -0.6065564029781231 -0.627292864194526
Ni 0.5007717909646489 8.743387200841482 6.523206049795374 -0.9726609243199442 0.6884707212554272 -0.8625331197229016
P 7.509848726390776 8.516820422457625 6.145654673630557 -0.39783733366872776 -2.7522080684224473 -0.0008834310462178334
Ni 3.50791644485346 7.4223391498885 2.387053499766374 -0.9445045164903861 -0.51035600709545 -0.2563963207807004
P 6.4281732813021835 4.881874246105891 3.7013150181240286 -0.6072603710236832 0.42246104575467885 0.8988062431223232
Ni 5.827457659207092 3.2948597218000053 5.260411541260527 -0.1413361118790469 1.270969311953398 -0.32715307977928815
P 0.5968488552299493 2.7027986893335805 5.968277283944532 0.4021398176988235 0.04800583845531733 -0.49733516935574995
P 2.7641313753637125 0.6559483976835194 10.623853470188227 -0.518369621428546 0.07598226906358527 -1.616769060299596
P 2.425573836538675 3.7945279135946604 12.365736964836461 0.9838146269439186 -0.02202715500336852 -0.7952571201840627
Ni 0.9498458448240991 5.158515331077878 13.238408703470721 3.0533742372196704 -3.0621211301743654 -0.30297828230529755
Ni 8.445739740400345 1.9269249218951474 4.53696290416696 -0.2827755821051775 -0.717884398530854 0.8998781360302631
Ni 4.1441214441196355 5.886798121714565 4.977210944513236 -0.450879706106688 0.9237130336663318 -0.746834763016617
Ni 1.6474761916795995 0.946547093316813 4.80072866548902 -0.04439703805813644 1.57591577372866 0.33885828403135837
Ni 3.1393921577852675 6.063392521225405 0.18899807582447267 -0.07443575051207181 1.1303687926887953 0.2634442287664172
Ni 5.399731901970216 8.567154181411498 4.8651210362037185 1.6858826272678062 -0.5666256282214563 0.1614395674971413
Ni 8.520248900147783 6.205655813055079 0.1337680800828203 -3.5284102288575876 1.4288319607325586 -0.05497687045651177
Ni 6.811532683997245 6.505323295486634 8.10428560123492 1.2017418451151434 -0.3501652244037453 0.8504453353204321
Ni 8.30731263712128 5.916134771355205 3.224057024420305 0.4589743101893644 0.40218018401845573 0.022554231151432125
Ni 6.628146192197526 0.14891268531739457 11.073106360856922 0.36662542684229765 2.517494374821503 -0.650856510447079
Ni 4.375126711188858 5.128530050522884 2.6219060747733076 0.06293032097563354 0.17448457360655756 -0.28950235930604984
Ni 8.304097281017267 4.238858622238999 5.0948068026700275 -2.035231012197211 0.7896577717194142 1.4142160105915966
Ni 8.692469674064693 8.777634913119375 12.260075915503784 -1.3748159115274192 -0.7770560237950037 1.878694538428642
Ni 4.455992453896965 4.273995885485148 13.474006277413569 1.829452256463062 0.33614885551999524 1.0307781401776506
Ni 9.183223823864939 4.146363853852116 1.6851412622605448 -1.678804380264786 -0.16535870004588943 -0.2311133778441955
Ni 6.264709024729053 5.896583182365391 6.07113161464924 0.44170369603437476 -0.5641303726034285 -2.8069944201347075
Ni 5.908193675732329 7.0506273051840544 2.9075344043714653 0.9312389097297316 -0.6197214796051713 1.4263426186518016
Ni 7.959201691543399 2.9339522148975123 9.25025704901665 0.8292005670090429 1.134372771641866 0.7197690171480765
Ni 9.210308797617179 0.7058318214597108 2.80497844388736 0.5877505831255296 0.06882380364193308 -0.893569677313732
Ni 6.608640933987309 9.419788784485768 2.214206333709316 0.7373306801809237 -1.029872854754562 0.4381296055298713
Ni 4.246947976356585 0.4336838954930132 12.025480939631407 0.9762897793217831 -0.16377001540253086 1.464861086441974
Ni 6.3151447113980375 5.156708430673606 11.105817744483387 -0.4546754257036944 0.16221809753437866 0.6020783126021114
Ni 8.047146777373884 8.284795878237276 4.133005763478791 -1.207347878448011 0.1807783770350693 -0.7447927928859237
Ni 0.4373727521645037 7.066546561053485 8.159156996742494 -0.7645645761962122 1.2019925276733685 -0.7972926625568527
Ni 4.0012836506229625 4.370132253148332 6.758709108947846 0.020484750216913112 -0.5200760625966915 -0.3478167787762268
P 4.977176659736335 0.8262825822552513 1.1411623128595914 -0.4820898131609052 1.1427915918331801 -0.8268341236593955
Ni 6.47010263683721 1.5511359685861894 8.540058088272154 -1.0880335222556938 0.7113658806860459 0.6060753495766464
P 1.068990077635012 6.34767818483085 1.4747272468752866 0.012027877698811543 0.9487512075818821 1.5567374010279964
Ni 1.0035061537530148 2.6422628927125125 -0.004231853408363975 -2.5564964671163133 0.444825272382492 0.5578885054587747
P 4.9547710947233625 5.939754202793611 9.45520588564068 -0.6658617256066598 0.0910363351832303 -0.20030204889029374
P 8.019552165046079 7.53250447761357 9.643879646007976 -0.0694498672617062 -0.9905306055115135 2.4623616955134175
P 3.407545443935136 8.238974737216124 13.460525873782109 -0.6845968401223177 -0.27415775852917945 -0.05526894777563385
Ni 4.4640910741704705 3.0147438283582644 11.523783459690419 -0.2052640208812594 0.2681722303697059 0.846468095840239
