# total energy = -381162.9997681862 ev
CRYSTAL
PRIMVEC
9.27988946760836 0.00000000000000 0.00000000000000
0.00000000000000 9.27988946760836 0.00000000000000
0.00000000000000 0.00000000000000 13.58205626145600
PRIMCOORD
 96 1
Ni 1.0307266239184276 2.5925877322654745 2.4498630293649386 -1.6625730060075883 1.4020976300615078 1.7341635737613812
Ni 1.8043075054848494 6.632235057950655 11.868693976684414 0.9049406381548349 -0.2306986589042801 1.98381974760477
Ni 1.8778506310041438 1.9915571189521455 12.765503440974276 0.4518708663753637 1.536812379969295 -1.423012268726988
Ni 7.424709794855534 5.379941788619145 10.472390739735093 -0.0062781196992278965 -1.4282336650269274 -1.0117746024919543
Ni 8.125109466599223 1.8698606460108174 0.19300500103159457 0.29974486296966446 -0.6672372657979476 2.2773379129384326
Ni 7.787943235748433 8.199162986049567 12.137700346005028 -0.4517808777647187 2.8698491506773993 -0.07632216890150727
Ni 0.0267604177993677 7.134787482240545 3.4781341944805395 -0.13853566631577433 1.0708449262915491 -0.296780895245334
Ni 6.950646631807818 7.490671250526341 9.491480419464953 0.34255013106064874 1.1605494300372337 0.6501299166936997
Ni 1.9897568203589917 0.9688947191442878 3.8000962541198713 -0.6846081529762273 -1.0817482034676145 0.22342192273720876
Ni 7.408664865641294 0.901610879197582 7.010785884708807 0.7041999590652259 -0.2981011567186544 0.015046867030793441
Ni 5.9357422197519005 2.6612960352742894 -0.18873346782319947 -0.2779146544684504 -1.0054620300103652 0.6097808234526918
Ni 2.0073700509250005 2.621188352183515 5.647799307600415 -2.636150528604531 0.1430986030961084 0.8375715646815574
Ni 0.4092143661465955 4.679013163165097 11.213373224919916 0.5691571363940585 0.12213948434593802 -0.3749072072351156
Ni 6.515726043326713 0.8073318402432261 9.161110779797799 -0.4141998341871512 -0.20107620805215692 -0.2898044639275009
Ni 5.605972060956489 0.4178261037468359 5.766465896569245 0.617513159099943 -1.2032418266994374 -0.4865470776013105
Ni 2.5982948644035653 8.426882198304199 8.516913831763263 1.0072044666227684 2.971154986107438 0.20736486927434608
Ni 5.143814996336692 3.20083809973073 10.678131461329802 -0.5950699996050784 0.7304020713818904 0.6655573069923634
Ni 0.3323351202961736 1.590656605947851 8.121675907426715 -2.0567699147102516 0.3426048955579842 1.417213916877656
Ni 9.062879435839195 3.4880878041249552 4.6210778840572715 0.7053214742641789 0.5139336971443794 -1.8050617434338396
Ni 0.24412884113233202 4.276609308036622 0.11169739183760076 0.270255852371612 -0.513284750706471 0.45881773000684206
Ni 9.238482787788925 7.124820880750611 10.710320614577595 -0.5231513590879056 0.6030987834468259 -1.9190590582886178
Ni 3.9982218982633335 5.367284019129136 10.877828190791927 -0.30142456466493245 0.9363685176468132 -0.05081939664471248
Ni 7.925963034593665 4.397646908812414 6.666834198541965 1.436056503505456 1.3561551018931224 0.7170660163946166
Ni 8.148021514158485 6.1256551615503065 12.537773092852056 0.7953514796700819 -2.1392025673848702 1.6468473677422155
P 7.3087018942729856 0.1544266437560349 1.3694379563968482 -4.879983110696666 1.7135741796458035 0.5159476422506146
Ni 3.9950667357804868 1.676152229343341 0.4846691489349087 0.4332838474017957 -0.5658954349236512 0.8992369029018384
P 5.9416535094624106 5.716931701566484 8.542461367984668 0.3593065245833812 -0.5856394503197979 -0.15025912540028963
Ni 1.664691565618883 7.146637901330531 6.972280838561526 -0.5515419944154565 0.1382207061785168 -0.6409657336959284
P 2.4157223153226064 4.710035834283204 13.028207837229886 -0.2272394967110861 0.47340642645429437 -0.49903801097946965
P 2.071039373850916 7.532430753975783 0.8874599754620145 -0.8028611577835657 0.39320394866177444 -0.5933825846003264
P 3.4928483875181913 1.973906768827515 2.5935751125248125 0.9891018434847869 -0.07998341980317838 0.4012245049734058
Ni 8.843261567253753 0.8270451098382592 2.9002040104864757 -0.9067851475627415 0.2749362885664168 0.5408667740897974
Ni 1.6287969524316743 0.044133299223300934 10.606975123429885 1.0783345498003751 0.35864986483598876 -1.9600907794189468
Ni 5.639760139191915 5.365474440646327 6.274529647325497 0.3618169497100608 -0.4872371616897996 1.3731385238249962
Ni 3.418423672481631 6.353337254246317 4.973001923427096 -0.51341896229149 -0.6064497021969297 -0.882876202155628
Ni 3.8516089215971716 1.7293445568482742 4.952655765357563 2.757678347508399 -0.6653079099857188 -0.29934479931776836
Ni 8.85261569602643 8.506800608016775 8.191297351577623 0.06294574759460128 0.05509668386382769 -0.4574918121065669
Ni 2.86596400162483 8.08146614554973 2.7863861638626086 -2.084813194000713 0.09296723365735601 2.6560405826602387
Ni 2.803166988326525 8.992723470044133 12.981268299374783 -1.0810869157345318 -0.7243394101275784 -1.3143363660851235
Ni 0.45607316896169664 0.38554693556938313 12.300399083399913 -2.093087261084047 -1.277735169922322 2.1684897463847626
Ni 1.3963913959010488 4.630757736956853 6.802260268228504 0.41002410554290675 -0.5725126831298528 1.176196135435555
Ni 4.176822654571767 8.666461109538472 1.1419154778029108 1.7088749743979215 0.2511186173215288 -0.341766715927405
Ni 3.458169439875844 7.978348011698575 10.746856468139994 1.874491813201204 1.1724191848916259 2.1559774728503647
Ni 3.530181383601992 8.490625760347358 6.099430193384057 0.8741074548240624 -0.07190912743547616 -0.44160959365867175
Ni 5.034052461492248 3.0043828357252456 8.377888092879383 -3.637556900488284 0.5417028968378478 0.9202392161851185
Ni 2.610293761728038 5.602649860459844 1.806522615145601 -0.07983763825393347 0.44306098139321765 -0.3132146153213251
Ni 4.072331097051609 1.0100788694350926 9.348895842898214 -0.49529757010043085 -0.8658616698755023 0.6766385045071895
Ni 8.498049672071703 6.931418700441764 6.3438253673495 -0.5431445143803808 -0.3504135929691255 0.064412819058431
Ni 3.588468370527757 5.7739473436094535 7.29949995569066 -0.0850520925753374 0.3083205204538174 1.4716048329237108
Ni 5.581463872376495 0.09006875301768666 3.413225078296658 -0.7228913648271421 0.003234704887213784 -0.3224669871575285
Ni 4.554746160789214 7.308154380783315 8.970323672393851 0.5418360799816023 -0.678353173205451 -0.30195909701216384
Ni 1.1189690946519255 4.914620281626846 3.3844035970048196 -0.22647536485155192 -1.0887323480949314 -2.6962122697831177
Ni 6.154979612861469 7.725359659912203 7.2800910664763245 0.3339996703874764 0.21903999161942925 -1.2157746690591256
Ni 1.0382247747600162 5.96627305671827 5.132306077186025 -0.5776340635168181 1.2832522430858093 0.6176957074243943
Ni 6.177325587151749 3.158020688860569 6.623765302662142 -0.14201873976836832 -2.101766791135916 -2.2704915794405607
Ni 2.3586231542727365 2.453157390192617 8.27045388234949 1.5269979649820349 -0.5605346848323702 -0.7731638878294491
P 7.142693948226973 3.974818016552335 12.21208886947193 0.8331621227599522 0.5539256641562846 -1.2841174192995821
Ni 6.223669356090973 7.244104582381527 0.37813415971262443 0.4194117174053938 -0.6901033717628438 0.7391883022149528
P 6.4131090235169514 5.512412213450429 2.656012066104487 -0.6363472610873105 -1.1401842361173202 0.9391900462560083
Ni 7.211569289249584 1.999073829573045 4.625831043538784 -0.6170963832774984 -0.7150718687827232 -0.057446157932610736
P 0.17718742911391167 6.463285386883869 8.390899426165264 -0.684857292872556 -1.381847364452904 0.25548589315128906
P 1.5602000080987248 8.235558713278168 4.814988602319237 0.4548700582130037 -0.368603633614591 0.21101943530779788
P 1.388911804838771 2.8893493235565177 10.227750576682746 -1.0452976739500643 -0.8485995403609451 0.31079032215054864
Ni 5.1264059233431025 4.724271185014635 12.84118279709225 0.7423201629757151 -1.693369679673471 -1.196958821904203
Ni 5.616820251963689 7.106817894819074 4.951691584822363 0.06241764300527314 1.5664093769001217 -1.2984757449037831
Ni 5.57737144103845 3.923045512164683 4.291603753741868 0.08319164232783093 -0.20938267103532326 -0.5311336059624336
Ni 1.6255489910522731 0.3312929886878686 6.840507333443365 0.9101998296712452 -0.06479308521598519 -0.5049109248204788
Ni 6.955899049352793 4.698872127027719 0.7745831096492085 0.20119139347378254 -1.6805645574890027 0.017062354798925452
Ni 6.988063146898518 3.4153984284539605 9.167535247406253 1.34471703525951 0.12143345941784893 0.1100082483000428
Ni 0.018432644822583506 0.7182885150324646 5.325673921903147 -0.03184516953505483 -0.8374622927972029 -1.5093383429187426
Ni 6.020597530761167 6.686949287359078 11.736078785574506 -2.1284008487836763 1.0106356037915045 -0.9930520863817864
Ni -0.06492118004043294 4.042060096995591 8.54779916051447 0.9965793828087547 0.5189031253345128 1.5947596459080406
Ni 5.906213610868319 0.11941918801988527 13.13685028939292 -0.03268823426164048 0.8590680439924366 0.9393137163180663
Ni 3.3134866802580123 3.824975638286084 3.9090384467187747 -1.1672831492166411 0.7507978614294232 -1.223601621302712
Ni 7.570478301563052 8.450193281118644 4.674074405890475 0.22954474780549497 0.9399747469408328 1.0967863287476594
Ni 8.506726368899532 6.193788111400484 1.3125633686766398 1.116496148471761 0.3402255966925302 1.168338587064349
Ni 6.887032988219835 7.537015019465566 2.7284044853065077 1.1122335165406652 0.7781870520756533 -0.5116893811948929
Ni 2.469675593779285 3.2777498251949457 1.0517567098555665 0.4222419877653373 1.4517654296002802 -0.9104803370261417
Ni 8.596379382860654 0.39425889597790215 10.126903231830275 -0.17969902792796147 0.2803870272683429 1.1430499877008895
Ni 4.6309340548603055 6.755722549595481 2.3785851249105354 0.6931095055790192 -1.4499777415722384 0.40823564618391633
Ni 7.469652300456789 5.275812146795549 4.611773866688736 0.5534281556945759 1.7762317065760245 -1.276943527258962
Ni 6.132976994488441 2.160349031894788 2.4137076512784126 0.4603243964593556 0.3832555791998109 -0.9131234310759435
Ni 8.93556862965633 8.482589375905754 1.217583698053299 4.277228597963137 -2.255286589565348 -1.4330192593410287
Ni 4.186037584999611 1.198089433854134 11.80392127487847 -0.6094771761693438 0.8341985344442666 -0.7531043980754127
Ni 3.897312378150172 6.333246293142308 13.283196933225968 -1.702354399670584 2.850253745043975 0.8645599203449433
Ni 2.0245935261254813 6.689928131938472 9.561332932868282 -0.5832676076535116 -2.0853927206532665 -0.013256093678957815
Ni 4.631017573867204 4.140742443591449 1.5793082288882239 0.7332626807591371 0.2289125135381348 0.9418441960494036
Ni 1.7147472904202805 0.8290588458934878 1.2425735129064104 0.1346273324003036 -1.5351609604088012 0.09734325123786461
P 8.738426653816346 2.4556629603995836 6.329713439150486 -0.2612155965462147 0.23028753950879047 2.082789478702465
Ni 8.797121955886947 2.5265241978084583 11.811527072440061 2.35207679651322 0.9521319511286571 -1.9378257973731594
P 5.631361839053749 9.19947013167749 10.971979167269039 0.3256153029785231 -2.01213145006527 -1.0750006003311356
Ni 6.790457176575761 1.7510409388626729 11.401837575943105 -0.4439094454364419 -1.0227231310836582 -0.4314017998877344
P 8.308090330825022 3.2585404536082025 2.1608640657706646 -0.5228001463960739 -0.18395600343210253 -0.07490369128742583
P 3.556758987575148 4.028390819533141 6.108095754344299 0.6911387550058936 0.35148034367074305 -0.48072352894099785
P 4.450542279848373 1.2684495572216152 7.2659930581117935 -0.6961084403063431 -0.3951903829641839 -0.1942177903694268
Ni 2.5008467431318793 4.455228624124366 9.333643416260546 0.17547547676491715 0.3609795414104299 -0.18835593227201108
