# total energy = -340888.74648312497 ev
CRYSTAL
PRIMVEC
9.10526479191768 0.00000000000000 0.00000000000000
0.00000000000000 9.10526479191768 0.00000000000000
0.00000000000000 0.00000000000000 13.32647539723935
PRIMCOORD
 96 1
Ni 6.361493466965129 1.821262397275311 11.443937597154523 0.41628345618905727 0.3130786039640931 0.2783833665747528
Ni 4.970199887896398 0.6992697744304818 5.7751080349487705 -0.9734944759648332 -1.2056733189590656 -0.0193272395737022
Ni 2.6752178746617097 1.7141935875406284 4.870866911204542 0.5312547049213303 -0.7069610667501308 -0.7289303719323704
Ni 3.5493050926998118 4.216447850524472 4.499897477846828 -1.104355142233853 0.34054544192579417 0.991525622434931
Ni 5.376850122742954 4.2624203329082135 2.9585573282790065 1.3853965152567431 2.443144756265334 -2.245642638717681
Ni 7.117212241551333 6.316996037492097 3.0236308353299317 0.789691453170827 -0.14725453424601093 -1.4388371515743865
Ni 4.94903014704827 4.41966825740162 12.039497494064893 1.3486991598357094 -0.39290981446012335 -0.5825996350522095
Ni 5.612549009450327 7.790746895322397 12.545810316191993 -1.0149532573302522 0.7677573721018972 0.958162216483137
Ni 1.4939736511308124 6.628660149100944 0.4907510139191297 0.790791113992909 0.1204764948212183 -0.9132571284403304
Ni 2.8478081704794582 2.1435250372055443 0.09091060667701022 -0.7123824948760183 0.37434130742931654 -0.21600197612405378
Ni 0.6623351779675372 9.099437511391464 4.615331294427607 -0.26873864439613715 0.0039803248039866936 0.11084668504093813
Ni 9.062524767564234 2.455699043647724 1.2066989020319838 -0.5386548540401433 0.02373462461277848 1.0011186654400048
Ni 7.184636727994511 0.6328122671176575 4.780113825609972 0.026312669752599847 -0.2592836696308244 -0.5620542068006901
Ni 0.6556528240714334 7.4133427712733395 2.692160951552117 -0.4293441460277574 -0.33637639814976905 1.0263288461570454
Ni 7.704811405376318 3.8787335760913253 3.837705252537922 0.9743982187260251 -0.05746338432379136 0.17894055249538215
Ni 7.49919631383549 4.013646285831847 12.562562182519901 -0.3795637321705205 -1.4431864296820176 0.599012272082278
Ni 7.741296201754145 8.764236290065451 7.336957793660854 -0.3440287724887042 0.2875190103274339 -1.6860888297413412
Ni 6.9301627851026915 0.7524208476463364 0.4511585906374459 -0.31975755864616545 -0.3056172625900414 -0.8459196795359367
Ni 1.8811568296619716 6.383892418572181 9.387302281654577 -0.15952975206893816 0.4953063118511792 0.8408067837894034
Ni 0.1583396457526281 5.0717873281727694 1.7355472547393511 -2.410780738112332 -0.6186781259423216 -0.5875754910002461
Ni 6.40149289558699 2.1308687190210724 7.073999564952998 1.222091612416089 -0.4282087468717335 -1.221833987879328
Ni 3.8503797812521556 4.662387303332178 0.8146343909981661 -0.6329739737397034 -0.6150790957371536 0.24419746472166332
Ni 6.12721500157918 5.590313952611131 4.970389277405922 -0.5933779566146361 1.4898036153199246 -0.10215635635579182
Ni 5.428167395611793 2.837419063250334 9.15115723696804 -0.8793460775151823 0.4741124513823835 0.01559425489383121
P 9.003659230109117 5.644226225971031 12.335412229009222 0.9016041175824343 0.3294207927675423 0.8229360741565699
P 3.9994602831473807 6.201067805028284 12.692854880859846 -1.0619396533821195 1.2124751723722473 0.30191898780284776
P 2.1211716119228976 8.524740507902736 1.613836268549669 1.092714472671131 -0.3762920033977842 -1.2743364286534182
P 6.297774823328485 7.984124510863275 5.663485682247143 1.3780156494116398 -1.3017893826580482 1.8183232364294362
P 4.689065729433259 1.0079437170524372 12.545171126597355 -0.35348734679844285 -0.524668052842748 -0.532168217874535
P 4.158638523795541 5.988951554362482 8.193130403045757 0.25533856894014734 1.1335520755127835 1.444295089365164
P 4.537900121880304 1.1764184331440122 3.6085566933858795 -0.32886003516806595 0.018334536643129715 -0.03505699160413317
P 0.23785228185170862 5.52384551898045 3.9403051982690505 0.19098899901948396 -0.2974774070917264 -0.36890728089793884
Ni 1.8287469250074233 1.2377514973818573 2.6777955751494966 -0.6643589158088881 0.23834409126467987 -1.1888971279419913
Ni 2.0784406038367624 6.2058571743556445 5.054132219568674 -0.38397060298896457 1.3524192889997741 -1.0219883098001628
Ni 6.348400096066373 5.840626789452373 9.20948738484816 -0.1868675206519427 -1.1248566046213144 -0.18728095404027745
Ni 8.471665918911881 2.2717817983181168 10.242556169812993 0.48224793600532434 -0.10072810854969748 -0.06135757717187498
Ni 2.32055870228518 5.578240371379039 7.202839973544436 0.25391237801658206 -0.8990335286417807 0.3488218230019734
Ni 0.7200971573190873 0.32627077753081235 9.234087989503415 -1.1506242005037215 -0.4365704885728675 -0.13060741260763312
Ni 1.4422102202828093 1.0534063046028472 11.569432731428712 0.030021486062754742 0.2513932111391542 0.10417724344056252
Ni 3.8022402458267566 7.016954169947575 1.5189648716494604 1.256702774732055 1.112987363987554 0.028715879877453773
Ni 5.541964996093471 7.871528805345877 8.346704353159712 -0.8116324762182925 0.6179828996475099 -0.7128491500997917
Ni 5.409683707903534 2.9384692928987315 4.6902266507055765 0.8112385832139836 -1.6943446419922306 2.107183848386429
Ni 0.8201703920457626 7.700531930882288 7.170270441065403 -0.5214516027879794 -0.7573217785908699 -0.2782090457804176
Ni 5.150848343133757 4.539457122174941 7.0291024143516925 -0.39305251068557473 -0.4491768644829684 0.27259555624838216
Ni 8.323140838174393 7.49481668142777 9.299947280913564 -0.07119076121221288 -0.865608930434748 0.44129566196267866
Ni 4.471276898746647 0.12177654409682483 10.37904591143089 0.3594906155697293 -0.15760939511777372 0.23742286500199108
Ni 8.363167582590895 7.101787922843063 4.9866603857481175 -0.17370578645900409 0.8550620081568371 0.33191090617924773
Ni 7.6041162810582765 6.293276822477313 7.114179277819501 -0.9364999010183548 -0.2819140054358306 -0.15260525703496297
Ni 2.27291085116335 5.552363208587477 2.689229056260462 0.9504756464721568 -0.4828274626578782 0.1447801045635894
Ni 2.559216800078849 4.977247362914226 11.280834987342686 -0.6542963893665635 -0.6172897302352272 0.8604253293512794
Ni 1.1574703769268275 3.3978845377301914 3.5180030130922013 -0.3793991815681982 0.1956334397700308 0.7105384996887439
Ni 3.68389001290462 2.9239099743541477 2.40193700715836 -1.216885385624801 -1.1175392450242947 0.30445152441671436
Ni 1.0153736131952642 3.2789242520610338 8.005160404317653 -0.3254245271239557 0.24258512592922096 0.9998480262576974
Ni 3.7589265007882426 2.4695845725911196 6.976663372849526 0.29613477702090285 0.47906568162260077 0.26501311591543386
Ni 4.33401503066685 6.903010885227802 5.960132480487897 -0.5140401408152567 1.0582583478757903 0.7415753143898907
Ni 0.7604007017879705 7.496665050198596 11.62220593615201 1.0508970224147127 -0.2036514249785009 -0.6942652164500173
P 0.14327316395417766 5.546881839129166 8.287042105027515 0.38963242926043223 0.3166041006188483 0.502458092404612
P 8.5572007772032 1.6151283056362706 7.854012096767971 -0.30411008191689565 0.5351882356477815 0.7484859254667948
P 1.7243914842072536 2.944415030865969 10.484111562891771 0.20614770903779336 0.7291088064917637 -0.6295441221225481
P 4.193921425209088 6.155414006915374 3.8281237823037344 -0.909191185901073 -0.027968460188467964 -0.9235230291427128
P 6.604613144550447 3.923932110960189 10.53469859351716 0.6558040842603415 0.6836113362805969 -0.36094585995901707
P 6.30917461495939 7.913085234262374 10.516814942764553 0.891491968849097 0.027572510301629934 -1.9384012102606554
P 2.399537769862239 8.536413457480071 5.886850577146827 0.2565145915261195 -0.3375408507715154 0.30252473970764676
P 7.221467524437813 3.74328365572283 1.665089804564341 -1.2464916385270082 0.6708360388927994 -0.6735925185920141
Ni 5.382750334385787 2.6533470284177514 0.30623008952791786 0.3772535959801051 1.8761802566472205 1.2019588462219557
Ni 1.4774931216963558 1.1855145927600466 6.933792143684225 0.2626929524226895 -0.9575911744710152 0.08835698857885428
Ni 6.861181298364878 0.7410110402240615 9.309755472243285 -0.31459375505703885 -0.5000003748927389 -0.2643621125949963
Ni 2.7978384768129954 1.4104874774377003 9.076569638643045 0.6223524894701152 1.4568400159097104 0.44145069948330423
Ni 6.394818736429279 1.8439709278883136 2.645225132143975 0.7027837954439897 0.059142828908743304 -0.5474665387945022
Ni 4.3642718258661315 6.336444883277732 10.563257256816149 0.25318089916719627 1.370200524242595 -1.0091073400724362
Ni 8.065816947374845 7.336139230348059 0.11134100001680786 0.5292083639152627 -1.0587067482671186 -0.41940477542685833
Ni 7.550695692001947 3.861852415002109 8.23705420083129 1.0641148066565673 0.28956612266444964 0.29090129653610547
Ni 3.139722962561601 8.548996933545496 12.549782032733049 -0.41427876705420263 -0.6297505817063993 0.47804598210883475
Ni 0.050079867371521966 4.53915664843387 10.40980349619862 0.007613293570883662 1.184184295847354 -0.9507875212856206
Ni 8.691976907970506 2.1302859820686937 5.700626057696396 0.23345385305191407 1.3519626610783297 -0.2364659004053605
Ni 3.8792707867192995 2.609650862254239 11.078219170053634 -0.6105822363080646 -0.616363618876532 0.017155428733364002
Ni 0.7471771256014174 3.6142893681549038 12.573249942437121 1.4946704564939226 -0.2485179464738881 -0.19408666410820122
Ni 2.9161249728809655 8.338546946352901 8.194929603386225 1.1323675682863787 -0.761918911043249 -0.7814099298883252
Ni 5.339755273618106 8.03580599432735 3.7496036200766736 1.1678531627874984 0.12427632818328274 -1.0904436743590833
Ni 3.0688748965232 8.573116780215038 3.7459123456939505 -0.5817231459845271 -0.8490703093497763 -0.052610684217180355
Ni 3.143383279043729 3.9429985356208253 8.958589990001562 0.6363937980545298 0.7030033676539635 0.43998774178453254
Ni 7.037887173908801 6.126523001448231 11.498602875920072 0.1860087721960732 -0.521930856417243 -0.13712053113580255
Ni 0.2129739666175839 0.005749064245809889 0.6844555084692326 2.0010733924788955 1.0864386669647483 -1.019403836902438
Ni 4.286949916497399 0.6840521452350081 1.3710543962914328 -0.0038725955815288146 -1.5137835231742898 0.8515951326541593
Ni 6.253441288623309 5.5720761070546585 0.6980423847245344 -0.19321814546031887 -0.18792835781628925 -0.03916278624239062
Ni 8.149840331695932 8.988999753650843 11.33556673454187 -0.7991813949391333 0.4465088307325019 0.03360046166326471
Ni 0.27672812078726433 4.735976054099735 6.230980421215067 -0.9896492313478247 -0.2507823170280326 -1.7220426221281313
Ni 7.841909378688259 8.735026600327474 2.391822878928639 -0.528432919201819 0.0769592882648739 1.7856506858970795
P 8.682006642925904 1.42739595432156 3.249620778094784 0.5371515300217394 1.1160053248782715 0.7413529139664393
P 1.8300216620907515 3.7739957141661575 1.3072929579098473 0.9253788514045288 -0.7369581273328534 0.1598303140284925
P 4.9171526147001865 0.9774228691716094 8.11189231925174 -0.9958039380953109 -1.6174046370010662 0.8294533064497973
P 8.611941629667262 1.7191377463709656 12.47270141288366 -0.9073821577167921 -0.5698364218492703 0.35897382383431076
P 6.396293789339987 7.664693608311005 1.3002973829018403 -1.865540003324555 0.11716311417726918 1.234534723275448
P 2.133982719610345 3.429798491137799 5.963411286371515 -1.6470139752270667 0.8960366507969858 0.5948203454881175
P 6.952889526245456 4.017634391849688 5.985079995735117 1.8554633358148431 -1.2080050524160355 0.7977310356458519
P 2.353610813802902 8.452890862727434 10.334628608288808 0.016726825836377645 -0.5492547410431766 0.3486205056244448
