# total energy = -340894.72528825037 ev
CRYSTAL
PRIMVEC
9.06066533561172 0.00000000000000 0.00000000000000
0.00000000000000 9.06066533561172 0.00000000000000
0.00000000000000 0.00000000000000 13.26119958476040
PRIMCOORD
 96 1
Ni 6.280671970309669 1.9246755829728932 11.37032492377808 0.8229098489043247 -0.049044821242792955 1.0110248688101233
Ni 4.77352090487023 0.4023959246876912 6.122072272824608 -0.5196919397843953 -0.3017708922607577 -0.2655116528184073
Ni 2.6534611354410655 1.5292500280978905 4.868345297531985 0.9271559979096098 -0.4590653272412739 -0.7474297162881386
Ni 3.2955361210206044 4.295308051180029 4.821507094347648 0.7505402368926622 -0.4000523390421755 0.04188815559335367
Ni 5.031405560542571 4.528293998617264 2.7448035144293312 -0.28288151155542246 -0.4706293779297894 -1.06416777138169
Ni 7.2623044485452635 6.048320269443197 2.535607249794896 0.5291921659653467 -0.046357761328933066 -0.3658456112534796
Ni 5.306034325683063 4.607303000003773 11.5719482843576 -0.5023308227981285 -0.28837698745235496 -0.21196920081557688
Ni 5.726322346131986 7.836496929722539 12.437095943473345 0.21401605604227658 -0.026892967736102072 0.4823885753482467
Ni 1.887019458000149 6.301121891884136 0.48515151117435174 1.0156721377741476 0.8153628897950023 -1.1604332161743434
Ni 2.699570861135555 1.5728680708358094 0.20707244468890787 0.17193815303562002 -0.5566780300904414 1.2264383194205586
Ni 0.4399668794066474 0.030181982169564237 4.716730466924088 0.05044221581095184 0.5136107665873219 0.41291273994461153
Ni 8.521990623403472 2.26975102079459 1.349432970687739 0.6879207622892282 0.8560336280414871 -0.4847699310962296
Ni 6.823949461494885 0.706721926404378 4.730402104790154 0.6960673026557626 0.4626648716670741 0.12652450078751112
Ni 0.8089969041395428 7.224249654299468 2.315630605590545 -0.26016684356672615 0.43576521906275273 0.8358808072426959
Ni 7.662278457399168 3.8652526335413513 3.7530516969737415 0.6691792200156669 -0.7935388519413752 -0.4204154760795598
Ni 7.513339241253362 3.9063065080003274 12.667362785255065 0.6553420570222586 -0.4565903833382201 -0.24602911861376336
Ni 7.964034854437735 9.030248643217258 6.875255478736984 0.061275301870713825 -0.3003961234004181 -0.012481420296462375
Ni 6.758341184082073 0.6971901065123359 0.5892866434949121 0.3115611388783021 0.28289873794660314 -1.8564213288527383
Ni 1.8086084605232167 6.447016724490279 9.354941208387684 -0.17041888817761616 1.2640376178305714 -0.6587305138785172
Ni 0.157024047789979 4.851587597065891 1.2817878557162483 -0.7770064015039908 -0.7109786725499563 0.763910230441665
Ni 6.401858368651935 2.0606671084098327 7.200048617292201 0.4860117739231307 -0.02866548625549257 -0.343434333437815
Ni 3.2885503480769116 4.216534627091231 0.34583653370661266 -0.7296279122200273 -0.1508144836831274 0.6761350825082098
Ni 6.120678742501988 5.502478609979038 4.512773078964157 -0.5858929610915006 1.7286102480433196 2.4628052108087393
Ni 5.345547887041614 3.0822661812688095 9.414125474105193 -0.28339573218767966 -0.9834608431489257 -0.4674080427790144
P 0.1426076232365301 5.576939157386645 12.434204685177194 0.3735900310855888 0.2510278573799354 -0.5473410689602316
P 4.134499363495652 5.985520798272337 12.803011817543792 -1.0993597459017905 1.3686501490363396 -0.8530889435908663
P 2.3621607461547973 8.52231680735415 1.0453815071295396 -0.09627752897751161 -0.37291871605017707 1.3405135387011236
P 6.357923202628634 7.802637223509078 5.6826762153316475 -0.5628476492362628 0.20116902487627936 0.4137786874893325
P 4.740703175165879 1.0108078204907047 12.843392484571229 0.9340085020550689 0.6352419438382737 -1.20722575104785
P 4.120373786298225 6.182689935792042 8.0267917404817 0.25822000425300046 0.03610060237729911 0.9334215192033474
P 4.781666442971889 1.24628545088451 4.061998637991704 -0.6857864895550447 -0.5108586577634815 -1.4504317983905215
P 0.11470258625600596 5.54681244527539 3.607059915248924 0.7291232046694669 -0.04852828661769062 -0.46405429581543306
Ni 1.3763422405521648 0.8785130464947852 2.696810982486205 0.47929630957616814 0.9541145287763246 -1.5111255167261524
Ni 1.8481945072041406 6.340843848544509 4.772613026207509 0.1878656228991539 1.1506139160910767 -0.572541222374943
Ni 6.053774789951761 5.748221974153911 9.3752307561864 -0.935334419955344 -0.441452242145201 -0.710982272094382
Ni 8.806477392386684 2.5861132102913045 10.268504532515905 0.012652398656687885 -1.070928230033975 0.313218471976067
Ni 2.3813240532571442 5.299012310078185 6.998067360433463 -0.18447845159447585 -0.3840348805679967 0.18539247876831297
Ni 0.3820882555583813 -0.18242924721516626 9.054455116623704 1.2618724918584527 0.06364354499257426 0.7644794726815737
Ni 1.5228531983984779 1.072565315152453 11.520335110561946 -0.6693777091797181 0.4719092730834776 -0.9408743759369667
Ni 4.099189950834731 6.934806701399006 1.7010538331197127 0.28692225728369936 -0.5404296865523789 -1.0889341796930925
Ni 5.846149644679759 7.855469962853658 7.897428997775767 -1.5514504415974442 0.4895714662499311 0.169196842845057
Ni 5.484538492691734 3.0635740287618862 5.0030927936237 -0.44800032767636394 -0.06279482383903379 -0.15455800988595964
Ni 0.9374707955798786 7.4869183412484235 6.82120317384348 -1.2775328241035289 -0.25451041661189716 0.4507035855401399
Ni 5.304956106512766 4.33653407827964 7.357777584842257 0.25149759792750237 1.3252411859230853 -0.5381236641270216
Ni 8.032778122043176 7.088031612230113 9.248228316790234 0.47961975435385784 0.1500410958522126 -0.01776452307227263
Ni 4.521480378314207 0.34940099943430214 10.341958440009059 -0.04748853249926661 -0.4205270619567596 0.201492212543653
Ni 8.08015634087919 7.280534507122059 4.544016065039955 0.4526715078997881 -0.3582762835466539 -0.016755622191784048
Ni 7.364128205148656 6.358693359178847 6.941826904870825 0.8872956713795623 -1.7194257533305741 -0.21474496378850114
Ni 2.3137314901443737 5.044525403892074 2.6559129514703304 0.21523218783756481 0.1427371059916316 -0.4839854875217213
Ni 2.175103311106118 5.262253190969805 11.4609786922038 -0.028825408872124546 -0.6223069809441605 0.41146983685049787
Ni 1.1537126335489638 3.263225788572864 3.8615948429611064 -0.7168341028894687 -0.02253803320151602 -0.3406061199604005
Ni 3.677542830591316 2.5755937778819304 2.5603002809277693 -0.8925687468530434 -0.34160396509729557 0.10014035436702753
Ni 1.3539533366042218 3.4757708751009293 8.388384771139132 -0.6946375121877714 0.021640718198227247 -0.806076836507386
Ni 3.688234415641325 2.6962637183022893 7.090047610258611 -0.35290293504988257 -0.005104668216417015 -0.3076142384154122
Ni 4.0880725145157815 6.867639989555177 5.871184262894314 0.49990190164166165 0.7094141562763138 0.22812215642635553
Ni 0.9587542983616343 7.662097244093236 11.726546792047674 0.2701427238325154 -0.8611354680444266 -0.4482862343478989
P 0.28573804686067505 5.688883677126361 7.950327879977011 0.02636537736740621 -0.40143122166757317 0.3115436553768054
P 8.63065518230581 1.594722395531252 8.23439604622352 -0.7701050463984673 1.1966063236607907 -0.8771932928382375
P 1.9853911011255305 3.1298980987331304 10.471640118133433 -0.708792977752547 1.2008910670790738 1.257154517557493
P 4.03556595912188 6.1868850238243756 3.819981019386799 -0.5505989137758969 -0.33725160166587076 -0.8549841037310502
P 7.036322395382314 3.93812756452205 10.392828639250391 -0.38049549995617055 0.42174679329647363 -0.3859596083945353
P 6.191442538468575 7.8971309018875075 10.148292155693026 0.13984718603834626 -1.138174404776143 1.3244294886550674
P 2.3669357167661147 8.56975845084724 5.634975436811072 0.7642411314185226 -0.5233598755542858 -0.12308076521328479
P 6.905712905131565 3.914388621444911 1.5703120571556333 0.02832635774851896 0.17078835570189296 0.4888690408662677
Ni 5.257813464974462 3.015144772751463 0.3796337213295275 0.7116505018060002 -0.6521392338142445 0.390981744199475
Ni 1.3396827887620482 1.0185999926457963 7.022866401350306 0.23473657641907963 0.9584648353252204 -0.05642131621252219
Ni 6.829231829362813 0.7040118814141597 9.268690017229588 0.25414943372805265 0.3957521690049248 -0.14082420523963488
Ni 2.7995553026837348 1.6863166610147633 9.199386800508817 0.2549963551093802 -1.546131600487692 -0.3264131162894701
Ni 6.268947469415845 1.9732679309586556 2.555168320103765 0.41064142741193144 0.6891484640487421 0.7250855442649835
Ni 3.9636605193279193 6.6255752554907295 10.563685604748716 0.6154141104790691 1.2351443318349888 0.12170625346326137
Ni 8.06654722160367 7.098242982019402 0.28931700965283913 0.6366105420510262 0.456118328797808 0.7086541381818376
Ni 7.943838631491573 3.797832223069216 8.075897828189781 -0.23677674677755994 0.44661013219705664 0.26007531229418435
Ni 3.5330070977796653 8.316440370484395 12.386000133666128 -2.613182349844132 -0.19927772139083744 0.38152934053732357
Ni -0.1431295175576153 5.033571059548462 10.202888100504326 0.6728530693228283 -0.0818639246553429 -0.044904830932490404
Ni 8.47379694469076 2.4097382996273384 5.790847874041851 0.7888401609141253 -0.27349158570009025 -0.016341160362184762
Ni 3.8073731036265555 2.8253963201096894 11.625908170465081 -0.48210909643461486 -0.84575410049235 -0.8277216684706713
Ni 0.9183346704734213 3.3484413456875566 12.58006418118868 0.18668368677591074 -0.17609228441330962 -0.40963869717903
Ni 3.0478084711457716 8.339481642333695 7.786101509342751 0.7513737885375512 -0.15283408521631742 0.8993106935625674
Ni 5.658648237031546 7.978386948267578 3.515385009844273 -0.4430884921970433 -0.40150398388703756 0.9637106571051919
Ni 3.048397414390051 8.277252993076523 3.372654161559709 -0.3488045966107928 0.14712469353636598 1.083952924428417
Ni 3.4443031845257748 4.546759634491771 9.454624835848016 0.4134575567044879 -0.3832555791998109 -0.5422055475058791
Ni 7.13578131834329 6.15767343890808 11.559429163117262 0.9186698148154696 -0.030777133281856668 -0.8424636026665363
Ni 0.3903180578472994 0.0705626491970017 0.34999356694470096 -0.024175054584306754 0.3477964670612526 0.17109328853682146
Ni 4.6807125102369715 0.2868978120186422 1.720507987578081 -1.203380666270147 0.4282210881669077 -0.07244211712081072
Ni 6.0322375885417 5.603994303962346 0.5281461801398635 -0.5697104377943673 0.501928188043071 -0.2895113581671143
Ni 7.824265031572105 8.644228058920145 11.592065679515681 0.2170648701709294 1.1310629905423424 -0.7572413030619216
Ni 0.14708268582652975 4.871267362090145 5.735111191469705 -0.12070172345814695 -0.28362584592061474 0.7593760900167373
Ni 8.107256790781376 8.887153556187771 2.4640234636189655 -0.5374109543307132 -0.29791063797440304 0.4262127994876273
P 8.471069684436477 1.7376815725812909 3.456505182480731 -0.09704063239578126 -0.6043529675689011 1.7529493390093163
P 1.6657942541179238 3.089541895501994 1.4551645922335636 0.4159116746719353 0.21175039993655145 1.0749905730288065
P 4.758643292453184 1.0927796594292079 8.232101885770415 0.006681525785233654 -0.12592286264777025 0.40450446127625816
P 8.403214362030106 1.6855646257951442 12.361162131888507 -0.29206034984121315 -0.8638461821073703 0.038947327797474854
P 6.335624905333657 7.804657751870224 1.464606711539169 0.13308775582732565 -0.6222046510383413 -0.14915560792346572
P 1.817352002534453 3.1479469440039938 6.033010463291501 -0.8865654780817569 0.5228052886023964 0.5690787177476392
P 7.0778836670979 4.152013629514014 6.0232629995654 -0.30342565425536133 -0.011704432921121777 0.32004423664864884
P 2.3108864412412355 8.57694355842746 10.202318184657171 0.7128005562500433 -0.7784673023202334 -0.2893740612583016
