# total energy = -340865.82237755164 ev
CRYSTAL
PRIMVEC
9.34758307909725 0.00000000000000 0.00000000000000

0.00000000000000 9.34758307909725 0.00000000000000

0.00000000000000 0.00000000000000 13.68113270443669

PRIMCOORD
 96 1
Ni 8.786812206789314 3.234908722779645 5.240475667673575 0.4979162386702005 0.43245800906639065 0.5555691132969788
Ni 7.730927919240464 2.2041600860852615 12.991097074909646 -0.2661960804799416 -0.34583600090077216 0.5198503197391305
Ni 2.423949806628615 6.316451650256487 5.3206741913146995 0.5908307647127502 3.127937514448542 0.5828732004285704
Ni 0.7787256454773754 3.80683124486209 7.210928416794057 -0.8147211424459452 -0.7237855945066374 -1.0597758129615813
Ni 3.1265608875047755 4.100878165252184 0.7061968137388506 0.43658411541962233 1.354688287539609 0.4053133303307987
Ni 8.89112188618128 6.846468957470738 12.535351923675037 0.8453972313735634 0.9064411339597616 -0.9785816606797534
Ni 9.1086401440405 4.720192933460381 2.306734854060868 0.124348833292431 0.8301973837046733 -0.19266715805285528
Ni 2.392037158053996 5.5056703381836405 3.14034015969688 -0.416256973826496 0.10655242854095842 -0.8803968873771999
Ni 2.204898545147181 6.5053008708636995 0.824681168086455 -0.9351539285134217 -0.036014470421396036 -0.6122228572352811
Ni 5.441293533633729 8.108373975712206 11.751655233525142 0.13367268179651817 1.630650960488011 -0.08233443653385819
Ni 7.964103378729 9.11918421773475 2.2937099318218888 0.924789297449646 0.8384897056204527 -0.6052153155691964
Ni 3.7783304641052036 4.696627676560377 11.563840790362924 1.3036971412037224 -1.7471250190180554 -1.2512515218094966
Ni 6.31445126748116 5.887453673196279 11.411446208940292 -1.1393370576256763 -0.1792107754376333 -1.1531009441789883
Ni 8.21182367746244 6.487531115462308 9.344172129219036 -1.0471221287533128 1.6532830960652298 -0.07936249838972784
Ni 1.8443903091842877 5.655521442255027 12.039999193488939 -1.1018169491930316 0.0682699880209921 1.0880188669676747
Ni 7.4071369895462 5.026933871649049 6.158699034222558 -0.13213284811322407 0.24180222501660942 3.0049858186139535
Ni 2.7881129475688593 2.4297826984594764 7.27859557058189 0.5520659852397266 0.6090632285603769 0.7330958161639697
Ni 9.074736460273616 6.967221035469251 1.1989378292173476 -0.1300667096128147 1.6778931813044264 -0.18556654245233203
Ni 6.847515886773714 4.6251093185508845 1.1773449123434845 0.351452318646285 -0.8843481587154642 0.6414794401075533
Ni 3.261764328917571 1.7129352485794658 0.9947725937625925 -0.5098047625776704 0.6352262601089897 -0.16596985126732705
Ni 6.265236242658263 8.952853324724567 7.31051289294804 -0.07386573694121472 -1.3146125025646456 -0.43323833887584096
Ni 7.5722994346735994 4.827035807862224 4.002169557631135 -0.6508570246677113 0.4864110662440784 -1.7546303262561653
Ni 3.919684615172978 0.05678656710334165 7.654115090184497 -0.43397470282123324 0.17448045984149949 0.8082458191342468
Ni 5.19998567688101 7.13152350295492 9.386501724358258 0.09559567241913859 1.4714109717453496 -0.03667987191953683
P 7.439049638120819 3.086431713418414 7.286174590928786 -0.572437349807227 0.3888533850025626 -0.12348082886518089
P 5.873768811593103 0.07338320083041706 4.875804952973049 0.20142587808209178 0.05958300176995545 0.7855614901628535
P 6.474752969416173 8.556665364212956 0.8291726817478798 -1.8770086660857868 3.279952446197674 2.4010123458716586
P 3.9299389137922978 4.484175808720912 8.978202100472853 0.22382661437479515 -0.9750034564101919 0.44899740148231065
P 0.5322261410918675 2.338970929009441 8.826301071435909 0.5032093687483399 -0.8892149998894621 0.6109619882449866
P 7.485694077601588 2.3074976168387495 1.5394964534087263 -0.1411792745862085 0.38700347627801734 0.7983280457999026
P 7.420578813989756 7.729824904439115 11.08366012224521 1.2108684900067597 0.9162267525916157 -0.08859944360696353
P 0.8939280634118137 5.071269458113435 4.937986010261632 -1.546838910967362 -1.9855773537258254 0.1354472571984377
Ni 0.6655479140342264 5.832302933128836 7.981313213904961 0.22804090956645887 2.9219589839987616 0.1699596891530105
Ni 6.616976445708739 6.961266625058579 5.021441231841654 -0.6786995008012764 1.1487609220427377 -0.26876898341344035
Ni 6.053999560616894 5.078224059911771 9.05718356879927 0.2679050927512483 -1.0828576344817094 -0.46321843017769904
Ni 5.5180745809072835 1.8216943775090757 7.793936237630058 1.246839251674414 -1.235134561642976 0.8905085218899051
Ni 8.17329294007973 0.6555609562904882 8.38516619252764 0.12071509319458566 -0.03942658142673855 0.7507731788390748
Ni 2.786561248780521 4.95186343207589 7.153536126308279 0.8738560009348885 -0.14660995868347654 0.6148353551574637
Ni 5.647089922332851 1.5373876386698764 11.74865933315368 -0.8997868618680375 0.01742822277877644 -1.3977005294350766
Ni 8.180574707285245 -0.41321177878463183 13.392487900153723 -0.6601106820554954 1.545907657402344 -1.134421108381298
Ni 1.9907080268581325 8.426397446657043 6.763993362595643 -1.1293408656449129 -2.392940110386485 -0.4660013922394749
Ni 3.578413705152254 9.081952794397694 10.461099873197789 -0.0032570734847169715 0.014275021861775416 -0.36161768921506104
Ni 5.147227918077511 0.2651021294377483 1.9782916322765083 -0.5060355253432253 0.655131226563033 0.8820951010152291
Ni 1.0560899343762207 8.858648382622924 13.66791630460037 0.8816698405523526 0.094980664542959 0.5194451138809119
Ni 9.320222686655173 1.8726013148662444 3.4623251363435115 -1.5299205379454683 -1.2814128758842254 0.09606104209133133
Ni 1.0709525914452434 3.0176708924122932 1.941544413742079 2.189592332691332 -0.6473814074142851 -1.4633148250007768
Ni 1.7841170935987163 4.206533896605118 9.45938109046162 0.13916995746566355 -0.15373191444023848 0.9253297433341482
Ni 6.842991656571571 1.7514566383791155 3.889655504585409 0.27443543767059836 0.08762653817073297 -0.7871614876601217
Ni 8.344970650601537 4.191699282285281 8.983852714434 0.26050211541895785 -1.5191023642840418 -0.6822041715204251
Ni 3.412073464559009 8.865911454662314 0.3764140833016665 0.36240598944431135 -0.7133939668596682 -0.9426620639650087
Ni 8.06789894105254 9.07233413142661 4.583343382670318 -1.4414506779378335 -1.0340046175347484 -0.22332576347897667
Ni 5.381151184211029 5.225607402054715 2.913889351463347 -0.8551185724263853 -1.2645973469887835 0.7649754384813857
Ni 3.061398885977632 0.967213114620077 3.4077371207764178 -0.5233801872692598 1.1925473231000687 -0.7421329866655734
Ni 4.300579929794701 6.873941504090775 6.965420690971456 -0.8367932917546362 0.4857554349379506 -0.4975498564697174
Ni 5.367344804028044 2.842628051988067 2.419946236803041 -1.2312719933637761 -0.44805663483559605 -1.778835719857775
Ni 3.734976373862356 2.2460092154550817 9.42560266430777 0.9185993665888502 0.26812440785090597 0.5643288617674798
P 6.3544121850724 6.737279839720264 7.2417249639510395 1.2463306874691116 -0.7069816355754212 0.9420408854412422
P 7.147629388571226 3.8358367951043406 10.874489256060606 -0.35425147865797696 -1.3504824769883776 -2.227076445679719
P 5.768356117399789 3.6435850542624593 4.390001713643375 0.388364361181286 0.08704675440786298 1.1992496748209087
P 2.499749357680631 0.9043964216832595 5.895733762272846 -0.15417825794903767 0.483639159925896 -1.2343107801901
P 5.841968334015233 0.6963369831247592 9.581595130451072 -0.7036965370662461 -0.4133922506841912 0.005539184650674331
P 5.306903331947351 5.030841161369081 -0.2948068788930568 -0.23509061732438868 0.9931024800037477 -0.2607666819342542
P 3.1510702502940697 7.385338425844967 8.766801835727895 -1.5489035068058743 1.1160348925646262 0.014850177638955069
P 8.96111658815162 6.790776057585683 3.2202517125379924 -1.0996363966019451 0.27756472732819937 1.3828673210769862
Ni 9.114949762607537 5.075120662335094 11.132310553051145 1.2676762430244233 0.5465823364173361 -2.1611775289940653
Ni 1.1290384725942417 7.015127398663428 10.246087702357567 0.8278959892650064 0.4641584254934651 -0.776088774785728
Ni 2.755069241443705 7.974161378104013 2.665864321522075 -0.8985632738735815 0.9833119762758873 -0.13027651163077564
Ni 0.18797241731597006 9.143300982035427 11.153584717342584 0.9061696254659297 -1.231223142403712 0.047528127487950406
Ni 4.995927938631471 2.9693812783125626 13.331949213209182 -0.02017827472008783 0.02449284293504169 1.2432052544662524
Ni 3.886210920226959 4.5604146961768555 5.021892720103562 0.16060884406572987 -0.618606906384754 -0.6814140715189619
Ni 9.368147745015474 2.853891889578113 10.947232147451256 -1.7562385512835494 -0.7766294777805464 -0.5929622092334561
Ni 6.80577892840064 6.89550637821545 2.2936416944655345 1.1537825436270452 0.5069300121330366 1.3395977117550737
Ni 0.918818807590049 9.207079541269353 4.487274532506057 2.2964324676760386 0.44574007088727746 -0.26717644211533986
Ni 1.3922851067941278 3.261465206259578 12.978059066054382 0.0993548823512547 0.4962640477787582 0.20924820233998803
Ni -0.11753557466678316 7.172475264350762 5.2909180301525485 0.4403191569820223 -1.015726645161167 1.3260505691982583
Ni 1.2555112714268692 -0.00842404185572535 8.776337305209724 0.003519583117484261 0.26623773235115433 1.0537000390811466
Ni 0.4967810408780138 1.4957067657951768 6.755237481541207 0.47597367296083826 -1.159290617929468 -0.6726532946071964
Ni 1.9047756957666069 2.773558760740891 4.78842374650687 0.06761847047992225 0.5245109584395934 -0.04926259368055387
Ni 4.510844463197593 6.840178034069825 1.4008792746615866 0.625137251304104 0.22773829072437554 -0.615175769216018
Ni 6.739457826573774 6.936084236288802 13.601371795538315 -0.15877281929825557 -4.490560483454195 -2.597168748024695
Ni 3.764019314436855 8.769724824951469 4.988100272575119 1.2705923882299537 -1.7066358006547575 0.23428277671111264
Ni 5.108014807131252 3.703661970603723 6.938167812553384 0.029707554366761743 3.8839930247324785 0.4039190210864334
Ni 7.658110247185315 4.5587321312256455 12.686007854648086 0.1895970037679638 0.22028440554949158 3.274816153412373
Ni 7.489423763243438 0.7307772181594181 11.00463752455332 0.9771382433650073 -1.0069147032964918 -0.9052867086403441
Ni 3.959925960256087 6.678511585007719 12.770639936935648 1.3744068490144588 -0.5219064309372109 0.6900095264974568
Ni 1.86318829872253 1.5659912428404485 10.65399098872113 0.939265379578634 -0.24106174730615904 0.5923711126166765
Ni 7.5665880614225465 1.2848813774085481 6.094767174626409 -0.7974615840345493 0.6417522341529657 0.8355607048991159
Ni 4.566387801753652 2.0488406459224424 5.557536337562999 -0.05206920989141355 -1.8291961745881982 -1.6211761882283562
P 3.0373008168430786 3.51698138926696 2.852762701544189 0.7377261158471294 -1.9468673387501374 -0.1886071290508687
P 0.3800540321461177 1.413747157505119 12.586656133312353 -0.17909584712632381 -0.8455633246377825 0.36233991209306626
P 3.6284513172846307 1.4843868427067575 12.330723048100394 -1.2846668640451486 -0.4214128069958226 0.39619414163834993
P 2.446112926069277 7.846108837733859 12.090318167871489 -1.7989270912910116 1.2092448383604077 -0.6490806494935789
P 9.128064421643915 8.031546190523338 7.561466520662724 0.22501780646941894 -0.055347623532369196 0.3434001377657699
P 0.16772555240307488 5.212791865676332 0.17158329993287721 1.467038553709267 -2.0065210458570286 -0.9548984581302007
P 4.358525597197765 6.909957741629733 3.5814741038468436 -0.6150099330621149 0.34304532552951245 1.5647343031905439
P 1.1293562904183592 0.5046881613903951 2.076932937299508 0.8115913385677118 -0.06734619065514208 0.3169910516446218
