# total energy = -340891.2218433944 ev
CRYSTAL
PRIMVEC
9.10538449730635 0.00000000000000 0.00000000000000
0.00000000000000 9.10538449730635 0.00000000000000
0.00000000000000 0.00000000000000 13.32665059817764
PRIMCOORD
 96 1
Ni 6.367049358732514 2.025756832605591 11.613269594442396 0.7096352711481844 -0.21308300270504596 0.39260848116962066
Ni 4.534153674691142 0.31894522846594586 5.818336126809975 0.07966151768738539 -1.3044029090214955 1.23912105709455
Ni 2.742778543855608 1.5347216586397143 4.878593979686989 -0.2936950572311587 1.011303833503123 0.2528955067162935
Ni 3.683911083187922 4.419316565692892 5.282244778846632 -0.6377860504163662 -0.6040058686421275 -0.5234138687206727
Ni 5.29798616752695 4.465389811136212 2.721381800877889 -2.1878038733323417 -0.04419957733534968 0.5377395413147255
Ni 7.214797074889593 6.11765287796324 2.5716300951103883 -0.06703303029009745 0.4385481811245286 -0.32692502292888215
Ni 5.557726365059783 4.5351734777523385 11.830827277318061 -0.6108136355925803 0.3560455944439223 -0.7364166530070865
Ni 5.8314888546840615 7.863692299497927 12.299485968936713 -0.5345958534794213 0.3688625437029325 -0.24540896853126123
Ni 1.8374847978167537 6.699195573610262 0.6499050117466072 -0.6940656988447015 -0.5051315254717171 -1.3675697714879673
Ni 2.690276896972964 1.8063261721434256 0.6197142884429679 0.23475097459678282 -0.8439476434112304 -0.565443177877581
Ni 0.429712230603887 0.3260665496638155 4.857670716701968 0.591330330056988 -1.7331754988164991 -0.34516828540978617
Ni 9.088748937528578 2.39238513849003 1.2739762266608454 -0.7865377380331937 -0.5476611713038116 -0.02588920906193606
Ni 6.783611593077657 0.5837862623816537 4.86835861699868 -0.19743938263051802 -0.6435957151196078 -1.4050844806039735
Ni 0.7392625233685647 7.549474586651383 2.8122826751683534 -0.3514600319557689 0.44830937427635054 0.07992814108521074
Ni 7.470430744024217 4.02027309107758 3.964531748398743 0.09795311690772163 -0.7065720588418284 -0.8930893952432039
Ni 7.795055911325646 3.652424663673495 12.679162290773776 0.44804043688567996 0.6409505641872768 0.3267000514022696
Ni 8.128986781560489 9.017754254777282 6.812636827168501 -2.4247014619584824 1.6678687071888887 0.3824523665722252
Ni 6.764754341830006 0.7209798218812837 0.4523627850238083 1.1066974172137845 0.29926586645071684 -0.7416205658055292
Ni 1.7968929938273623 6.772330021713176 9.433229306216115 -0.39261825136163353 -0.3112880877225736 -0.9509690411688075
Ni 0.01447209808450832 4.9121728165537615 1.2852222870258738 -0.5358734346402642 -0.152347375387886 0.6267930417399721
Ni 6.356168424284931 1.7625839051256968 6.989774797821352 1.026414463892316 0.7142005219213636 -0.03161042781642943
Ni 3.476690743306684 4.501638346731045 0.39944593260910555 0.2458771664169314 0.18699813269253604 0.16761921394529197
Ni 6.065834134916218 5.7893218191805005 4.854552122519292 -0.1719144988865362 -0.6895187029039673 0.5570338707679632
Ni 5.682825242361319 2.798940555297188 9.474315532582496 -1.1745681129138286 0.1769895994165984 -1.0298970231242779
P 0.4312118874269137 5.523890756350816 12.593751052783269 -0.6683433543779328 0.24632376703604675 -0.8039091394321057
P 4.169109705705346 6.384668277691569 12.654214447850823 -0.5373417916556746 -0.7198582344277732 -0.8385257010647107
P 2.3802112394470027 8.491025973669545 1.6797977494793213 0.15825011402556616 1.1274817009489873 -1.221311539716955
P 6.263712350326143 7.781379623844249 5.9292269621767755 0.28631727670984886 -0.37697334573552493 0.18796126793675372
P 4.5975817829437435 1.2116353013145547 12.754150595155794 -0.03233162225317012 -0.453618959414722 -1.1765954277565027
P 4.125030539462045 6.168233288721667 8.181164276755824 -1.042549936001598 0.6563134197965922 1.9328196024078195
P 4.758756193535087 0.8234263236860025 3.6840995646465537 -0.5445020568495397 -0.3725834441979454 -0.08672253829922484
P -0.040440654607106614 5.659779514255184 3.5076281081372698 1.4345256686832262 -0.46463613646083207 1.3744081345660393
Ni 1.596064633847549 1.1422795877687513 2.866922266325719 -0.45405347584897937 -0.8421756391124722 -1.2869314917096095
Ni 1.7690305173339718 6.2934050090990015 4.917853665927692 0.094936698678901 0.34299390346628666 -0.1805983998137793
Ni 6.117953355650914 5.588156559975115 9.324790550888423 -1.0988306128711978 1.0086957064563145 -0.12527005955511974
Ni 8.735824235278962 2.325679091826441 10.473361048790926 0.05408958275555201 0.09797677105680545 -0.7559099858450079
Ni 2.357165511340868 5.1357555323365105 7.185316571575001 -1.0397631172850803 0.8445539095366617 0.3335597546365804
Ni 0.48073880520158724 -0.02319869856531414 8.879747584444036 -0.338753640132694 -0.13067143307634912 0.7747507727005947
Ni 1.8037311375680607 1.3516032714637063 11.730037955487788 -0.30875272289522954 -0.9991080627678792 -1.1437236167291462
Ni 4.069023319556538 6.671105462504997 1.5532210682774994 1.17331881388776 1.0707078864930528 0.33347439401162565
Ni 5.584596354645403 8.017901090965923 8.040594440692876 -0.5174555942547088 -0.4686077195140703 -0.17699936960861132
Ni 5.151708165936649 2.6124804920188684 4.804457028753381 0.14930524612745255 0.8697736033353989 0.8512238653576695
Ni 0.555733483352736 7.58732566991381 6.887266379402203 2.3868656220576314 -2.5477436606243478 -0.1757079044906974
Ni 5.183904805440123 4.538870263849174 7.312426828307056 0.056607721191715414 -0.8354828004733289 -0.17988877534126438
Ni 8.083623756106215 7.195120339039196 9.000979404959056 0.7859065322070982 0.7789054182989167 0.14347809792271418
Ni 4.854563048980662 0.5648834842116276 10.510223287299372 -0.5325492553630377 -0.7140210589207059 0.24245837054336952
Ni 7.954791671169945 7.31005760726667 4.672803185168319 1.178029589099868 0.3228292555929537 0.19964693180479812
Ni 7.249115268975734 5.868638823341915 7.118643304295523 0.22052223259191053 0.8985059382730849 -0.8761234568128267
Ni 2.2950849999905616 5.406622509697749 2.5255204281291688 -0.29035725110717736 -0.748978034611865 1.4711924279766404
Ni 2.475972567970203 5.361132008860828 11.399150104744477 0.34839039189150967 0.19398279154048528 0.36410060353791485
Ni 0.8712896877171 3.4093382143453725 3.595077131173275 0.21525584198664863 0.5797999608198853 0.46470941290092876
Ni 3.585427244706708 2.6001791175931914 2.7626282820110304 0.2942912960542609 0.5894601096174688 0.11508154905789213
Ni 1.1647061497305884 3.3956710322484507 8.504748698611763 -0.3095351095872088 -0.5457112466662923 -1.0029780872462468
Ni 3.6825908024390523 2.65666892287587 7.104290486747636 -0.29946718382824555 -0.2555519705025341 -0.33595113768689244
Ni 4.123846839480299 6.7132907087775076 6.090518832227847 -0.19525240228152824 1.359938737305271 -0.4044327274980583
Ni 0.8764879517138572 7.387498902226242 11.748948017965393 0.37008176082201427 0.7488813611330006 -0.6273442862577518
P 0.22299815009945664 5.711543624995356 8.15992141477573 0.7005456501420902 -1.096899457286756 -1.9568329346032816
P 8.649978670448997 1.7627022751238715 8.018552125955884 -0.13172687092405702 -0.4224327636199047 0.07906090798890901
P 2.0397882300815113 3.2255642394871673 10.491045526518201 -0.8589634000937723 -0.2926607024293734 -0.25972975602930753
P 4.150689512912494 5.912717989585218 3.8325319002036324 -1.2509185639501101 1.3871996299037528 -0.5361696257244444
P 7.137264726085272 4.046205226062278 10.385578768683137 1.0088443162190368 -0.4445931017670278 1.2024882363628646
P 6.434984632300222 7.764461819489766 10.13887566064156 -1.9389336857253572 -0.587085181627389 1.289024369682896
P 2.372772140330957 8.573475230090347 5.725076047402048 -0.6888234766091557 -0.6893268986081355 0.46371542441877556
P 6.9459605982662715 4.038720600023857 1.6172027839061789 2.2947242267356804 -0.36788346761911483 -1.2686208663258798
Ni 5.412012897306929 2.919313738056217 0.5367797150296503 -0.5458994514176985 0.3681153811242628 -0.3337479593879865
Ni 1.5593517236444927 1.1524320914583366 7.089804730586415 -0.6041488219778949 1.2023064593693618 -1.0085661228569855
Ni 6.983620468454724 0.5557799208135583 9.249961590734717 0.524548239435432 1.1639121758618793 -0.7816395294006281
Ni 2.9211621311046345 1.4515257606919652 9.118573624376324 -0.5112180979854293 0.7285665608350486 0.9488681927757209
Ni 6.183284489258783 2.132444622498748 2.6828277819339954 1.7811003475222356 -0.6118132805016883 -0.48008743801889575
Ni 3.836817804675998 7.3103216634164445 10.495017295226182 0.916277403323893 -0.0804215357818615 -0.05395897071495868
Ni 8.1578599557306 7.396139912092982 0.3590462522321363 -0.011975684304637439 -0.5001646683847452 -0.2023756435898708
Ni 7.811600394916655 3.789360540792484 8.218025604725822 -0.17582231858137462 -0.21109631129232032 -0.22295860994754504
Ni 3.003401963682512 8.51025654568067 12.74227717380044 1.047980877209182 0.09700977915784584 -0.27435547636228236
Ni 0.1677284663364231 4.925585047885384 10.131199821529163 0.1629799154010677 -0.506264867745212 1.3370566905007748
Ni 8.383418539944417 2.1891893785467262 5.450267349101596 0.3136661010364469 1.611079723224303 1.6625701777941109
Ni 3.811295411992673 3.0487467783678346 11.747602242139994 -0.001870734660151617 -0.990885931968403 -0.22132621655044463
Ni 1.3089354398140236 3.512338323526169 12.45849967179215 -1.1291696301743714 0.44879531277383355 1.577693177344057
Ni 2.958885738984412 8.417873314797681 7.880768537542275 0.7617265925267849 -0.7765047792772239 0.07827800707629745
Ni 5.592381458371497 7.780487296165703 3.436810069844787 -0.6624907522518978 0.5428059000940393 0.4798526963002704
Ni 3.1099531728085448 8.104220135788585 3.659871047097121 0.4920399823950817 0.0016143956749714132 0.7092645180723268
Ni 3.4471801922233243 4.102494712886507 9.24798936445744 1.395969919897215 1.043135633301739 -0.5956078743864193
Ni 7.510640121865659 6.056938174284178 11.377361830234337 0.4270589495380064 0.5158512258820663 0.6845397616321371
Ni 0.6609999227293513 9.147542405083422 0.3205659869024895 0.008857707500946036 0.11090016398669288 0.391933309479467
Ni 4.6225214310206715 0.4029797323238392 1.4361331082370379 -1.0757518766748635 -0.9001625000399014 1.0809642741137384
Ni 6.269867590231219 5.7238085778831325 0.35685731780435487 -0.5786707323114485 0.5238157321447817 0.08733343241034637
Ni 8.081839100749121 8.670575050131367 11.168412377841301 0.5944845594152536 1.0607798287460635 1.0832759529660505
Ni -0.08702653319636666 4.738378343080117 5.685869172391299 0.2698226214889353 0.2636092935893718 0.7659838251412422
Ni 7.692283436756723 8.722512163176564 2.5537862731548007 0.7197402207926702 0.9892453110411865 0.29384906631051977
P 8.520518313983954 1.6769477641386572 3.3617143219259664 -0.7328952701173894 -0.8004692605126214 -0.48415826565415965
P 1.837311795511729 3.4943642945725895 1.5552597638614438 0.5138624775868118 0.4325261433001647 0.3540871851659709
P 4.854071358219014 1.0575357744602583 8.234577372624411 -0.9680007998401136 -0.5470135104174837 0.5649356421135432
P 8.597039965111554 1.4825478055981685 12.484032990936845 -0.4110633454406985 -0.029295149419691486 0.3626877823507883
P 6.117580034887441 7.861552534146311 1.2656284101741981 1.196906885620345 -0.8982295446832466 0.033294243276755564
P 1.6833215332711324 3.423706511046866 5.917512885049734 0.7380043092091806 -1.0502611886029267 -0.11790564877024856
P 6.706971571951882 3.708568464346125 6.037318802355972 0.9599064528677533 1.1528734015492146 -0.4152087350676398
P 2.094393220777872 8.84594475511918 10.239785173546903 0.9729853975388985 -1.1124949977321679 0.918165107264909
