# total energy = -381169.3960513153 ev
CRYSTAL
PRIMVEC
9.24993678380839 0.00000000000000 0.00000000000000
0.00000000000000 9.24993678380839 0.00000000000000
0.00000000000000 0.00000000000000 13.53821748104039
PRIMCOORD
 96 1
Ni 0.5074977736387688 6.075386133587247 13.434311049930084 -0.16398727361965953 -0.14574503958001997 1.506128320621877
Ni 1.9483419038522698 8.719582270835986 0.8807475168769379 1.6998771417746852 -0.6199960734227967 0.6625547727206137
Ni 0.505605236602653 6.563940036991582 8.43911586703167 -0.25453124254750353 1.1529037405665177 1.148241559204158
Ni 9.020482709667101 1.0517270456666663 6.934085501494069 0.6616906249481055 -0.6877353857512993 -1.0217558820743822
Ni 7.472237565150861 7.48740746123703 12.782216416780223 -2.1995743836047086 -3.3107581187246207 3.761923474392528
Ni 2.8043772900073756 3.0159788405361367 7.83583869948203 -0.5194317441444731 -0.6276157947515837 -1.4775109139955005
Ni 1.6105157179626295 5.404608478416143 11.407518583464396 0.33820882337281755 -0.5732076523143483 -0.22331599328696378
Ni 6.468952437656914 3.1383092525724567 11.59308711231943 -0.017308152261144384 -0.5794256081996021 0.8649622979896845
Ni 7.894293674065283 2.0524591906485514 4.96114709112794 -0.02123139857495053 0.3550670325807369 -0.11204533333472962
Ni 7.318216870193072 8.809408405526701 5.1914187137666525 0.3622710065283438 1.2750062010269332 1.9518236543141483
Ni 4.747520729469142 1.1461411489297835 7.971207822203144 1.2946476294069447 1.204192363538165 0.23770774323226154
Ni 4.2797051840069935 5.439767487576828 4.155840207482445 -0.739124795966869 -0.9343656282841714 -0.0011377131488690083
Ni 9.048223269644184 8.565533826068283 1.919840999083551 -1.0129179720677781 -2.8795344962859635 1.2786509968683721
Ni 3.391757516451109 8.877497189118335 9.397892149411337 -1.6986157585637582 1.5486947332291778 1.5368871990712887
Ni 7.084452471479886 3.9672978239983223 9.60571695081084 0.7264587704634262 1.1024039320447532 -0.41622792036077344
Ni 6.021681001467559 1.1108063909729786 12.675426823289252 0.021622206255465987 0.6351496412347836 -0.0958970057096413
Ni 2.8428755262943444 4.851897014491285 9.22976067611242 -0.18111776265235904 0.8380742153495889 -0.20243092230783846
Ni 7.922894478149693 5.460468845772463 7.599529643199755 -0.5113574517767709 -0.8399693754897728 0.8380613598337824
Ni 4.068334881894181 4.833415641088746 6.853262330133029 -0.7695437745783585 0.6117639153209915 -0.34603886094019765
Ni 2.2968980162418826 2.136670613800057 4.669899886172145 0.4421335844829418 -1.9492486944981207 0.1383366629310908
Ni 2.2193187976597564 2.790604134353532 2.0408320202947023 1.484792278148262 -2.202241131803594 -0.5173234395522187
Ni 3.1902753966042185 6.59289233866823 13.359093340171615 0.15204912742117685 -0.1423313859127807 -1.9318690655690922
Ni 2.2495013409092466 8.408016655061363 12.105143254733362 -0.5544599393932 -0.14251367712691584 -0.8348839905470653
Ni 9.215008877162287 8.68761448981538 9.749073393818788 0.1625700815571587 0.24345441590805172 -0.9991407157780277
P 3.854901843911114 7.578685835979896 3.878739855620664 0.34230613337064275 0.8909630929288205 0.1507869728793016
Ni 0.2275623161974696 3.4178423377700073 12.071148812595391 0.5805646069000517 1.6511642499500145 -0.21886567082509406
P 0.3814461120930185 6.457445516479359 2.0858200121268267 -0.523206380695557 -1.6798281935436103 -0.6997378095288143
Ni 5.587868223086357 1.908326677956684 1.7250391834765564 -0.533387692103933 0.4307176293365163 -0.4613839480721215
P 9.114776563753926 4.98393061006077 10.12589638758018 0.665240547082893 -1.0249959862782347 -0.2973537370296685
P 3.6685248705939255 1.2379375201243727 0.6567797260569589 -0.5317807526281294 0.4434775001053459 0.24349503933799999
P 4.205964689129599 3.2616201578923953 3.4531798707078036 -0.4822944729725435 0.1927689737380422 0.15309505218718794
Ni 2.645935125336666 0.3507566723157705 3.028769652919034 -0.20406485836683566 0.3764349567335517 0.402018718739927
Ni 5.811540940927587 7.253004816895827 0.937378403955196 0.09306442135685263 0.007271851071064895 0.9974291324035597
Ni 7.245743616635071 3.333205417533158 2.9321068900592424 0.802877869954114 -0.3922068748558277 -2.0882898396954035
Ni 4.384432966621377 2.467957094486697 6.037043296235794 0.5271147146110277 0.5494401175811054 -0.9312412237225768
Ni 7.656117055575816 6.4889785504779836 9.812743482678492 -0.5538529019368204 1.4495398827038712 -0.16867516601363208
Ni 3.3268784608728295 6.788741247102636 10.530431266515079 0.7781297164751566 0.4935607899149822 0.6204478162482346
Ni 0.45511723244562896 0.5573281073008378 4.40398178271193 0.10618038991352034 -0.9137050146110264 -0.30683545126785866
Ni 6.198882037639944 3.9152206807269057 4.685238131105122 -1.3117035564479667 0.06968512320096386 2.295994351697356
Ni 5.355361815755925 5.961325164905215 8.598175927469793 0.11304549246446984 -0.2341326242864935 -0.7745761947959434
Ni 5.026008571826608 8.110011446397912 12.35769797473279 0.08525315284254996 -0.41140324527862054 0.12219604861548633
Ni 0.43720103017166684 1.3002265934440387 1.6039399380067416 0.07201942776109532 2.32940223773384 1.1110109569874735
Ni 7.529337424016663 7.887430221079957 7.320303655898584 -0.2948181150920084 0.109350817221702 1.4831115480117296
Ni 6.407930605656642 8.733392426236382 3.2088825691450324 -0.42417571445294044 -0.37156451601512785 -1.8377769742786738
Ni 6.319908208610319 5.923825921775141 3.285521994164747 0.7659712267357518 0.6463725065337965 0.46403989763772985
Ni 4.753921685622573 3.4212740642626702 9.963843972639696 -0.1177279855418037 1.2271235184130416 -0.9143552466005156
Ni 4.548499092767934 8.056648561933827 7.739216636343445 0.2124587388574857 -0.7047627735472314 -1.3255396910001107
Ni 3.83162900333014 0.8985906446514605 12.065421251829198 -0.7531666187719158 -0.4117750267957424 -0.46691181986888614
Ni 0.2769616028122121 3.0412219176209847 3.4752335696399013 1.0529724168865027 -1.1627832044637587 -0.5829657601423767
Ni 2.181754804973216 4.3855244591446505 0.14211232653014835 0.6926415648036652 -0.3583595872890796 -0.3166645215431385
Ni 5.259356723391089 6.91627012352946 5.916729370386538 0.6201763077544028 -0.029264296181756053 -1.3368327474154267
Ni 8.233516600387247 7.247427105103169 3.8051186849258984 0.5769455220902258 -0.956802360021133 -0.9344584451082939
Ni 2.5464983064791658 6.56368103876572 5.441456526006909 0.2404565096219923 0.8211399014880956 1.1829679069417498
Ni 2.9410821035790033 2.9848343038763034 11.464907040353298 -1.2897252524046627 0.7914158920611015 -0.6031694887837613
Ni 8.108688705458693 1.7403755784222066 9.83276682051857 -0.4176885640667 -0.19555399268234708 0.8146941458627518
Ni 2.1856490282977745 4.823351710026704 2.6432831685025784 -1.073093870226726 2.409851027209211 0.34527704307350854
P 3.1246378462216304 1.8849705879459688 9.536334101083565 0.6873808306253582 -0.8829355946386536 1.2517773124059797
Ni 7.709563189469642 5.160632149654708 11.858138496716675 0.8192964205214536 0.20844473260208618 0.892459989189321
P 3.9335263053333236 4.904482904277786 11.941830998422795 -0.939435072387279 0.5840299397408328 0.317181313278557
Ni 0.05447380185429825 3.8079769153470115 1.039009307783208 0.23131598077330484 0.3527440408745151 0.7234271827259541
P 0.1983186415167266 1.010971824840048 11.51475494889498 0.6442847707668324 1.064669907829089 -1.3158427754273208
P 6.987281887098673 0.39313433202867776 8.631114026843717 -0.4476473152123194 -0.9648262587668739 0.14381696931937166
P 7.062308123168736 5.643913589175435 5.749694014579212 -0.15929835278442242 0.254166145898601 -1.7066581692522607
Ni 4.496828946708585 8.902657016773441 1.7787998152160722 0.006759687321336745 0.07525027599356718 -0.13270131902218435
Ni 1.7038568285757496 1.7479420265920143 13.281302298040481 0.45427253383832084 0.342782558786429 -0.8594413681714552
Ni 6.993645843505553 3.3972334789407506 0.49936707933404856 -2.265485384475221 2.369099813433778 0.5671177373665265
Ni 8.331380930016305 2.0592301442674996 13.30159665902405 0.6698140253861884 -3.0137054578751385 -1.0020874571111775
Ni 9.298683803988794 9.072476603508777 13.199085161228108 -0.24508655219483597 -0.9297648962873666 -0.2404811922123407
Ni 7.1731038642175875 0.2580602822863129 0.823505208986914 -0.14286874647348943 -0.9161030825295577 1.1249759038079978
Ni 7.617748318401778 8.965445586671555 11.435082469651697 -1.3348465702233334 2.950971826291344 -2.7530459909427103
Ni 5.467036300785377 8.014542850358074 10.02383166172385 1.394600036132882 -0.06999159869778913 0.029797542977406746
Ni 9.099421668935001 4.919578800870851 4.578990583901131 -0.6852175044254522 -0.036960122164116996 0.40346573559909865
Ni 1.5683267569571357 7.501976111441733 3.4229085280665887 0.16906803057667658 0.24623300709445337 0.8820822454994228
Ni 8.904784502200162 3.226942145436882 8.226050976526793 0.6659200896484209 0.3711271713673931 -0.9456761682009843
Ni 6.015705542399471 3.8487228862369918 7.566916216601823 -0.8868634689381502 1.4971654550016344 -0.09007062883585133
Ni 4.975633416896567 1.2677593158449851 3.906655239400204 -0.4111839301789628 -0.10094742364935518 1.038732362027721
Ni 3.479567164954761 6.710116785680427 1.9784208478114162 0.4944884439355742 -0.5160975375649176 0.7209306415563456
Ni 6.979234442223693 2.0534119341222556 7.082559009450105 -0.6723473333310034 -2.0418678007874385 0.12071509319458566
Ni 7.613909594697045 5.735228963664854 1.3950051442106892 0.7758236940497993 -0.30383240277547674 -0.34547039003123725
Ni 1.2583521302842335 4.8302244129486684 7.243338633109214 0.6402090580355619 0.09243887195771176 -1.1508239752193536
Ni 9.281386422475908 7.26860021006734 11.620663948418024 1.4854985601866675 -0.4137198092269391 -2.0692348799464813
Ni 5.570459842333816 5.673420887050359 10.826863985950085 0.053707773936101044 0.10201108902717915 0.5114998908919063
Ni 1.3550694677701893 0.9279351436415568 8.57870758582799 0.49632395448241623 0.055628387997581616 0.11551709393341397
Ni 4.410998784645447 3.1322875438211795 13.134886900986379 1.5531663958472866 -0.2806485084598457 1.8776552985308503
Ni 1.1153111101156394 2.72971180146619 10.10465483308489 -0.31204707737578513 0.2835047469617182 -0.9325823111315036
Ni 5.780738651923356 5.334475458827532 13.274194646727913 -0.48010826395450223 -0.06703560139325875 -1.4087336473207868
Ni 9.178434627696001 6.77577283593629 5.893484279615477 0.8244910773485156 1.2352389484313242 1.1272258761844394
Ni 5.298021458537541 1.198107292961545 10.16552219114331 1.4200251610742058 -0.7225321817155105 1.322153033916065
P 1.4720904161763513 8.48948084703141 5.865392222046154 -1.1027132357550558 0.23981707626578055 -0.3207700590710798
Ni 2.3365247447986763 4.274386470440198 4.966048632552367 -0.23936353366812974 1.0781049502880724 0.62516939009362
P 0.7205645141309743 3.098710273825577 6.082097887611712 -0.6516442964556971 -0.7663813176899769 -0.6218953473280385
Ni 5.000820994361588 4.563123242592465 1.7343399947659721 -0.4046718400920579 -0.463730336817111 0.9586203870664782
P 7.950246540787983 1.0641774603812892 2.9469992880462725 -0.7725653350135018 0.5013576602515818 0.1423252152651936
P 5.3631595123416815 0.2988802526693966 5.997024370365553 -0.21289556928458822 0.1993229728064761 -0.37360185816013075
P 2.5428538314438303 7.086450457793674 8.3606616044436 1.3918232447186931 -0.7029038659616217 0.6040390358729081
Ni 2.9535880179134537 0.5335326452998219 6.761134811206803 -1.0318312640325131 -0.2846902826293871 -1.0981994070451022
