# total energy = -381167.566037314 ev
CRYSTAL
PRIMVEC
9.25363517382011 0.00000000000000 0.00000000000000

0.00000000000000 9.25363517382011 0.00000000000000

0.00000000000000 0.00000000000000 13.54363044866837

PRIMCOORD
 96 1
Ni 8.965809992590334 8.466891004834682 12.917196370186078 -0.6003263629080112 0.09327885136050386 0.6652929975873833
Ni 6.259325318267356 8.016377782064374 4.147926183307217 -2.1069668472796166 0.670085276769704 -2.180516081421677
Ni 0.6840546136223669 8.928906495981359 1.638386623911229 1.6955571742430926 0.2235391650413634 1.6418393730046628
Ni 0.13281927470610633 3.9054596614422805 11.169715866492451 -0.26293669300237943 0.11235052327997426 -1.5055657632501878
Ni 6.4663939099471595 6.1518998688858115 2.4347387257728705 -1.1456552865342204 2.310313596533505 0.05094126693455743
Ni 2.313704880675889 8.857246346096728 -0.0886572267580932 0.7114905791893682 -1.0628130571260084 1.437650587465453
Ni 1.3549172451068812 2.4150321845545966 12.721680941875459 -2.161369590400213 -0.8763648833996713 -1.0299903541690327
Ni 6.007136002047592 0.4803349124698433 8.895957077632417 -0.8916716889600708 -1.0754554284803672 -1.4069721845449898
Ni 4.198892429112949 1.712042782877745 7.393264832839633 -1.7694625061729914 1.3769404140695898 -0.1998158532824946
Ni 1.0527027777667253 8.381720547766223 9.400051623475681 2.548748190629462 0.4662860133594292 -0.46958062495030095
Ni 5.194130133173119 4.623504727357549 6.163231870377124 0.4457788945450129 -1.3234995206416302 -0.4378161880545105
Ni 2.6403674518377387 3.922097697275515 0.18807643108796146 0.6501988222584221 1.643053190807106 -0.34210507310343014
Ni 0.8689302123439681 2.310780731997746 4.303597309787613 -0.04152640137856074 0.36429395049564356 -1.2463769673260148
Ni 8.097652458773661 1.8694933833796819 3.039203749629906 1.9900217626504242 1.9327283282455938 0.5053176733405943
Ni 6.866280495318343 0.7549189508920601 13.451506810582323 -0.32423744879439 -0.06342577255481335 -0.06834814955709519
Ni 7.950047725972814 4.8936646028588155 8.314434591173233 2.1096595636204314 -1.881121916923212 1.6894119805773031
Ni 4.850302068979763 0.37815257271183056 0.6837409153939203 -2.726509120994446 -0.028789413427866548 0.4710047589913372
Ni 4.573063162659573 7.906546387567901 12.575504044963973 -0.7208463093726554 -1.5087163930640275 -0.14109571373346666
Ni 0.8539115626457815 6.616071457000866 12.025023802668397 -1.3836484222173848 0.4460393472952512 -0.15143463376562952
Ni 8.79230433526378 7.16978121793148 8.218288397563173 0.8084149977222593 -0.5913478135584849 -0.7942523330686322
Ni 4.891119853218026 6.927002848565108 5.685358424832553 -0.4466700389007146 -0.40518503228305053 -0.6841106445145186
Ni 1.417795695322024 1.026126337881826 7.661076135763326 0.4495247347406903 -0.09340997762172945 1.4204236820642053
Ni 8.462227172765743 7.3352084518529095 1.453055746344803 -0.818187760838307 -0.9341763950915007 0.3742009251967104
Ni 5.4230650644935965 4.129332854386351 13.314689040167908 -0.167713316320995 0.22654504174722276 -0.6041997298204884
P 5.2564070971095305 7.776199684149136 7.736757915443912 0.3325043167888725 0.9644760745163067 0.2623936760147158
Ni 0.272441821906425 3.5271247921198197 1.7530872811749143 0.1658783199947853 -0.4956402981518303 0.2946615349094861
P 0.7331830875056952 8.40268003117127 6.397293315519409 -0.05635626730254165 -0.4059126544776945 1.097153482279091
Ni 2.0630516678756563 1.7656861053055868 1.1189301185091471 0.7533563661852187 -0.8933246511824615 2.2088097861600473
P 3.294247812264883 3.8314861027932956 6.516775326017262 -1.3507830389479318 -0.23646538618472823 0.23736141563643634
P 3.794943497951559 7.03551097324837 3.363790730448377 -0.08150397021276286 -2.104064328920841 -0.037101275727671586
P 4.850246547169418 2.545943359711864 9.310053544997768 0.5212492569691861 -0.24548250208167405 0.7828376634737871
Ni 7.574951628920449 1.812028309673127 9.49441001479265 1.7018090686900755 1.866944339871249 0.7983226464832639
Ni 3.2485441087163043 5.7965417754109145 12.192937488329756 0.8701708387738175 -0.7256280470320149 -0.9789614126166752
Ni 2.551504794381371 7.143917307946002 6.1157884834377505 0.05184500969574942 1.7180702677439443 0.18410332764324422
Ni 4.8085033994254145 4.8150087048707775 3.2252527092767878 -0.7281009340525396 -0.17110331583915048 0.8207794328248832
Ni 6.217397097822204 1.1000351210854091 2.3001149922305677 -1.4928233759828549 0.24109388609567506 0.607807758886721
Ni 4.4258193216259665 9.220470029370428 5.931134971957528 0.8163216541638457 -1.4033410155503059 0.06309949956364616
Ni 4.365041446568857 6.238532400293342 0.9588283515632607 0.4336090919516984 -0.0687852370945138 0.6752218266653209
Ni 2.8666743508019095 5.425406234163123 4.592022010165207 -0.3256227591776908 -0.13562440620625027 0.23024280231378408
Ni 0.40021231332520507 4.640457386782735 13.246469391797623 0.22338387041042174 1.1234985479315234 1.09098514868485
Ni 0.2704985585443676 6.1901914107534 5.727127482754718 0.02905140884000158 0.32398599490521623 0.5099353746182637
Ni 2.843355190457221 1.459723915767177 9.82599829589556 0.11478715774592488 0.0867950434083731 -0.5024604063974573
Ni 4.407524885117454 2.8006866792074745 1.5551205649375868 -0.2275539426277113 -0.46592940135095884 1.4780798991250932
Ni 7.553714536463679 6.141646841242195 13.165600024303853 -0.12351810986101952 -0.20320893812444357 0.31641178210238413
Ni 7.754453641764208 3.3019375829975957 13.178385771862684 0.09463562249871443 -0.3969104509790842 1.778643144230995
Ni 1.547938818769526 8.377343578384066 4.249070265211788 1.2941519207174486 -1.686108627235683 -2.1591016203016427
Ni 3.206874990052759 2.9766260425541287 4.350620581695379 -0.277899742070115 0.5617266482579423 -0.07322861757784808
Ni 6.012355052219975 1.9404965251752362 11.429916979944927 -1.6483825734398192 -0.6934324361360767 -0.2044356114426931
Ni 3.249913646704802 4.2071004034088775 8.968280713150664 0.06305270548611078 -0.8451956568857186 -1.0831042032748766
Ni 4.273754336727445 -0.2254583406294057 3.412548133565903 -0.9320855740007431 1.7235752567225737 -0.2698352198944256
Ni 1.651394458711439 5.830937536919331 7.690303742092175 -0.5253686784541984 -1.2239402355890534 0.8655094287424062
Ni 4.653051584095879 4.17800697478836 10.909868241899169 0.6847724464682335 -1.1016608832311412 0.6083230079602426
Ni 6.796572862430827 7.045967580863251 9.593630265968782 -0.8735330703778311 0.28749304218550487 -1.1157016775949236
Ni 6.3497796009536005 2.589814843519074 7.486702487468388 0.9854840442265413 0.9262597113475854 0.06285755875616918
Ni 8.825737718726225 1.289077631673365 0.6377244389804011 1.2214125840711934 1.7714890496847167 0.4047176057283288
Ni 6.516761445564676 3.840795259661056 1.981758483896255 0.12538961585211955 -1.7439162822727707 -1.495895072929643
P 7.9062965394213505 5.7866033713592495 10.987256391884342 1.7597285667146791 0.6099800839476914 -0.13666390321435817
Ni 2.092524495533527 6.355387303798395 0.43476261053907994 -1.1160495478526458 0.6095144571651825 1.9303726835292236
P 0.39038957971175775 1.2919092440009343 9.91347660954734 0.6500530407091772 0.3909963994874943 -1.0355161690832682
Ni 5.105369265702382 1.749575526670625 4.726727175696015 1.3161158265830495 0.359927960217464 -0.2797295961900021
P 3.982884825967682 2.446855435517051 13.063738785682332 0.6069158432000709 1.614419329120497 0.2807374686292262
P 2.6501207831882554 7.802313442281164 11.402152373318653 0.34511814889814113 -0.5738529992078311 -0.9712553022216693
P 6.137306886400267 7.877554748933015 0.4548383717961444 0.9586761800050779 -1.0468742744085646 0.31210801252070763
Ni 1.1338108890449783 3.4040606994912412 8.899871365261703 -1.1483552019638867 -0.7026827510897511 0.14648577440078642
Ni 7.020760678966849 3.866150219718377 11.192808312778233 -0.04219180287670153 1.1829959319662078 -1.6654421000252673
Ni 5.81557650272402 6.069274161458143 11.476005634711893 -0.2337659849756942 0.3218625208043102 1.1919024904272182
Ni 2.602196207225897 4.467617991180315 2.331197027024923 0.31811359528483923 -0.4210927046522426 0.6657953911450984
Ni 6.471668481929886 8.84097845566579 11.494127028244831 0.37753281778342074 -0.11543713262509796 0.5023930434946315
Ni 0.999337064390606 3.874274911298788 6.004080451751634 1.4491315915218592 0.6081821115070041 0.7805905193108235
Ni 8.883498908754618 4.4775934097722105 4.008467425447415 1.048503839592188 0.4145376771425442 -0.4174692489670423
Ni 3.916980437088764 0.786489577617447 12.025497588783336 -0.7874293966095278 -0.4967672126674219 -1.449359134151633
Ni 5.716460817624035 4.554685443435544 8.795395974736463 -0.15638195046857584 0.33488258721306197 0.3055149326842222
Ni 8.338672637479123 7.483063032800305 4.253119655912914 2.061660152923017 -1.2320461525256394 -2.0257295004646787
Ni 6.815283712516922 3.5699321078954265 4.190818632525353 -1.1558520245615642 -1.896167755512741 1.4474421196345781
Ni 1.1445173448064088 6.12540671171643 2.7506300657278873 -0.9685350750770289 0.8715571775983829 0.44645200935263757
Ni 8.862705990780603 2.065633432056676 6.557108219778516 -0.689377806450729 1.6177525072587882 -0.18540456295317104
Ni 2.266252240101459 0.833714578769465 5.588832832185139 0.7446164152090594 0.6389772425109899 -0.16034659154327868
Ni 8.450438041702595 0.20088993955196568 7.886929606609684 -0.30668324196071056 -0.05809304748799027 0.4073660990947694
Ni 8.431458836199836 1.4695512761981533 11.786479896704298 0.2911308960484083 -0.1098948626506301 -0.6180836868914322
Ni 6.850114394873037 5.689930645914423 4.904324790444959 0.28979777905928156 1.3151475491325093 -0.603860858423831
Ni 7.116248939124326 8.32131281811141 6.141792123312596 0.23128152799094362 1.3765802025166938 1.280736418642491
Ni 4.618100604484018 8.67476466276448 10.243549145227847 -1.7369120830407958 -1.010928452441575 0.19818654520918771
Ni 1.3951427967014696 0.2897877608215517 11.602327006880682 -0.7872784728539604 0.7256385885549762 -1.7901182347501297
Ni 4.064159502676969 5.977755710740296 7.745331408324607 -0.24369378561236738 0.4671727868397567 -1.4809939874480946
Ni 8.462911941759993 8.335970576042357 10.612761781110708 0.17035563903984854 -0.04405173890357574 -0.08406067519634557
Ni 3.4200602345055136 8.883535923294847 8.22283933528441 -0.4176633672557194 -0.9222631885936826 -0.5530951978351893
Ni 8.983419660104596 0.31821585308144007 4.855554432238352 -1.5639598869183646 1.51681922467682 0.6121176991159846
Ni 6.87184192998785 6.3620314137696194 7.1538538612706555 -1.80206717958189 -0.3319345603283315 0.33033250594853436
P 7.869309760096858 9.083645781411471 2.7167848955053877 0.8337167097118415 -1.2627379251825415 0.42297629482820054
Ni 2.547544238576797 3.512087635151518 11.156565525712358 -0.8230520309091438 0.47328584171603005 -0.026695249902999187
P 2.409257916278769 1.071728251444773 3.192666958785602 -0.13072362647052324 -0.07687212786770632 0.14132017103944694
Ni 4.05405453319427 6.347234851312811 9.93075869838057 -0.14684161507830842 0.6817010066317615 0.8042284704447377
P 6.937468709815046 1.24379034170237 5.970343549059306 -0.26859054885404715 -0.7784089382784724 -0.8909396958900527
P 8.078293854233547 4.433074171510981 6.24307223365251 0.21016582905825096 -0.5225216959237066 -0.6689516773858931
P 8.139571425583755 5.179000439854243 1.8933177921985054 3.0967451480061374 -0.34847061031014176 -0.7811384213944934
Ni 1.6837729277773383 5.877159444031125 10.079210138789168 0.08504386504522127 -0.5517142583272627 -0.8345415196059821
