# total energy = -340857.5696149015 ev
CRYSTAL
PRIMVEC
9.40608155172312 0.00000000000000 0.00000000000000

0.00000000000000 9.40608155172312 0.00000000000000

0.00000000000000 0.00000000000000 13.76675113224272

PRIMCOORD
 96 1
Ni 5.327689208377216 8.691407414650394 5.7225903710508765 -0.46882034974550874 0.378301063408013 -1.1381396948834657
Ni 7.880349226361115 0.6552172896218591 6.483258299603608 0.4966458565982092 0.2287327934271609 1.1947846970710199
Ni 2.9101757691834904 7.564624695203613 7.835938412625187 2.458322749557353 2.131124675472743 0.001523121512745764
Ni 4.026235555736285 6.548655021742846 6.185043189132207 0.1128616585884379 -0.9776617199686453 -1.2055771597008333
Ni 6.955223487891682 5.170833393517462 5.0316233875253555 -1.0736523138333574 -0.15561858993999006 0.14871337817972452
Ni 2.6980121951863327 3.567933641414706 1.5227956809520817 -0.3599891524727026 1.2395146929885426 0.8657097176786703
Ni 4.404369437553086 4.8435770064581805 11.749205989107027 -0.356369039221612 0.8921308879846764 1.714534486676544
Ni 9.120616318935921 3.0702202456669827 1.5707177849067155 -0.22660571978182908 -0.6152343903680952 -0.30785180834751497
Ni 6.030361119703858 6.07672369534812 2.7231179672804897 2.4109748564010087 -0.1240385011408638 -1.5373643958180232
Ni 0.9922851602791375 6.752475401461963 12.607108344412648 3.5941600215598872 -0.8174665664015662 0.5684950773300274
Ni 2.7917155789493973 0.6020578794958465 2.9871645461460172 0.738270932607006 -1.3557213567898136 0.23752133825306834
Ni 9.19420009440053 5.8821400876482075 4.736326984139046 2.6724365075197585 -0.5182719195084171 -0.2689736432250788
Ni 5.414855365507543 1.1553866132455644 9.283677325751958 0.5115628829193576 -0.3540640452375193 0.7455947199619288
Ni 4.665106016343707 2.3431959893732093 3.012247743644608 0.6323191137645239 0.1202165562916123 0.02903623933134999
Ni 4.800450122845087 0.6155838246726472 11.496531362758017 0.5930285436950175 0.17969054328752923 1.0044333316355347
Ni 0.39442427434232324 7.877621462730188 0.9127275824627974 0.8766579891600579 0.8013935720991037 1.4866007921119107
Ni 6.511754964073451 6.075199910147395 11.323482978620193 0.43255802497936474 0.6272023613632488 0.5002613418636094
Ni 1.3313273674403174 4.43297333135187 7.450964428351801 -0.8706128114072426 -1.1033755519294028 1.7533208634161224
Ni 6.365424554396478 1.2131399535693166 4.972247498145277 0.5336725703342035 0.7694725550207909 -2.481086268506114
Ni 8.459218293169641 6.158199173179445 0.2632508243718155 -1.2626787898098317 -1.9067504161245936 0.5647361245082274
Ni 0.13302456680694327 8.567444666747019 3.701563019261196 1.1691945073067413 -1.353726952067604 -0.49109535909362523
Ni 1.5622278557574945 8.947102333764544 9.247291780739845 0.2627531162366636 0.28989548097941037 -1.9098372825800332
Ni 8.115980973665726 3.807412476047072 7.209909134462389 -0.7973062894036076 -0.14681924648080522 -1.072026091083844
Ni 5.702211154903411 6.475541550352531 13.82608571215215 0.08668859973749586 0.058684915435718285 -0.8575279531988264
P 3.6067901640331783 -0.012854350958703522 6.843672064509022 1.1476944284514363 2.883535132804924 3.773489581963572
P 7.111336222314047 5.521191116706243 8.483388160155945 -0.9772418588224073 0.30590188370999577 -0.8606353884795565
P 6.144052426624572 6.809946559341137 6.241872852254039 -0.08007392263445565 -4.489020906881217 -4.410507900975979
P 6.103135972160676 8.202752075373644 12.20422518099001 -0.03463738756821131 -0.23636999825744454 1.215053217512069
P 5.179308272936305 3.319396750311367 5.108910337270986 0.41215889249772236 -0.011786194001650669 0.6094028712879828
P 8.9927312350529 2.4982176183432023 5.780576041587332 0.49051094734506484 -1.5157979825011572 -0.35682926668748227
P 5.035611566075399 9.230272416899162 3.230615568989901 0.13403495023194337 2.092910626296866 2.100058035974925
P 0.684545451695061 7.738213929026878 5.836070041138158 -0.5832953755676535 0.6221858819852639 -0.42491310683959727
Ni 0.93494380632447 1.750462358454388 7.478539296836021 -0.555587882350056 0.19016058958091767 -0.14640632731310269
Ni 2.9414227718798274 3.193138918525418 4.310521200135137 -2.5130509943381685 -0.25890443191453477 -0.024921445832028048
Ni 1.3379492488064284 1.051402382418353 4.944383862959437 -1.125062292874217 1.6917372862763704 -0.1595140683396543
Ni 0.808817659679325 4.6585781957924555 0.4835224406098655 0.16945678137466297 1.6172791671667954 0.21759554586341878
Ni 3.847012079102935 6.581642149514082 1.5263333081989487 -1.6883508863026406 -1.2817846574013474 0.6266894262825724
Ni 8.83447391405174 4.602988254210472 9.240078256848268 1.4572007416832387 0.16118991338018046 1.066919108874582
Ni 6.638407851281809 4.174785800643943 0.20377993356872834 2.2742667302122768 0.4943647738735163 -1.9971144078311474
Ni 4.4425016918971405 3.240705472599883 13.593358562810401 0.2125839515814403 0.6503934547677316 -4.161013192411118
Ni 3.731289058581254 1.675251330892707 1.006526908257019 0.34851868993925783 -3.474271023811023 2.7577549663826053
Ni 7.3849026962515065 8.180111637236955 0.33184937664887154 -0.7117677441101548 1.8802657395705038 0.9463605958625185
Ni 2.3594026677735065 6.2239382766847715 3.803326474249574 1.3317481338036679 3.3912056226484113 2.0028230281801505
Ni 6.657323481150061 2.5201431942869594 1.897182179904879 0.8339457950035122 -0.43948149157207544 0.13423446783725915
Ni 8.432552052156964 6.88631453492559 9.437974686447532 0.3866396651806954 1.5515676839015988 0.6957209750599372
Ni -0.007737442630345029 1.7540084511745924 11.190344598227272 1.995381484300441 -0.5065865127506889 1.3629854945513946
Ni 3.2123085125937907 3.097563724546649 6.659789755715678 0.48343141479046425 0.39950263718629264 0.4116413294313556
Ni 8.491264812792284 2.3857020716082316 9.1858512564736 -1.415372749903859 -2.2710996453382046 -1.1251574236911848
Ni 3.2202660575309072 6.655075427674919 10.437964368071812 -1.755437652648809 -0.5648777922924143 1.291699088301582
Ni 3.077133715559159 1.7291199595627604 8.611460425060535 0.21536562809163554 -0.6804859032777377 0.2521874249056753
Ni 7.746350189512227 7.538993123154391 4.887554199837606 -1.3500189070883977 1.3078175911299994 0.27692683663388434
Ni 5.293074828508908 1.6479172580945272 7.035264538296401 -0.023540249213785266 0.32072943564113154 0.41010715217501625
Ni 8.694078741792405 1.2003759009928783 2.937783558952912 0.3934487176827288 0.1635681838043699 2.2644438305845838
Ni 1.5108988690886482 4.874570044954397 10.329440762319482 0.624707362855537 -0.7052623388914693 0.12503968871186852
Ni 2.675296508397756 9.191726294969726 11.08969576389498 0.6404743958818065 -0.5260955293178939 1.628607447695421
Ni 4.071864457024644 1.220862346469284 5.044742989981963 -1.3911989808711331 -0.06826021782897922 -0.3990670923107708
P 1.1208474820291447 2.6544244135804256 9.558696098670849 1.301014452165237 1.0264054650312517 -1.1716625092312596
P 7.660538508115877 0.3295477085092588 8.919367561895061 1.4869723165187165 2.758959785323984 -3.1738512462615214
P 8.732295650869832 3.2758183747869465 13.091849813183094 0.6675481121701471 -0.11647920073636714 0.3704265457559427
P 8.003474833012241 0.9915514859232331 1.041377380770624 -0.6148633801819217 -0.8725995028199681 -2.194092791664847
P 8.071330304851907 7.298912299306923 2.438903809100931 0.12819983160740503 -0.8943124690170274 -0.04810739703018812
P 1.3800320573745826 2.15520604479495 2.8239182395247067 -0.5028887521841274 1.15050875797178 0.060804532881882374
P 2.8566739776913894 1.1553395828381345 13.106593845912325 -1.2706037010838636 -1.4665875822147774 -2.968784686103048
P 1.5043710485373967 4.550474101274396 5.439353504737708 0.384235426614577 0.10478453800725826 -2.564137528601339
Ni 1.2155855347556643 4.736413520088717 3.1048017042500895 -1.6204046001696544 -3.78364749633318 -1.4228454041318206
Ni 6.781041670934803 8.486684051108625 10.075871617621157 -2.5586528513376834 -2.375143705635013 2.697608893020328
Ni 8.485940970671233 7.5107936908595025 12.07514740597457 -2.5119798727611773 2.8310969696098662 -1.571466736818371
Ni 5.456289154453166 4.592190072664598 7.137565080537627 -0.3117472867471793 -0.13411336887836256 -0.4718935893541938
Ni 7.3830685103617455 1.730201658933645 12.010058262699925 -2.080115017194095 -1.523485580953402 1.1526191194465634
Ni 6.46796965475634 3.5262176700245043 9.217913766434767 -0.30089080364864956 0.027072430736759825 -0.21205996075717026
Ni 2.489441744316808 2.2114167877550064 11.113320078155098 1.8163224039493235 -1.4242016610493988 -0.9424651174628542
Ni 3.4455605212824563 8.057917232652937 13.340573885308004 -0.23397450144207446 0.06649181307464677 -0.7532077564224964
Ni 9.31685539697736 8.633259018904232 7.762713008865191 -0.7430282447863332 -0.640341212738052 -0.4578167995461535
Ni 1.3184974722934772 6.534461244780543 8.593206042720746 -1.722046735893189 -1.2189952328789524 1.777535770099429
Ni 5.178819156699036 6.1018473389971 9.36239588109975 0.5914254608739555 0.3926797007271882 -1.202960805123909
Ni 4.552317693245643 7.256048785975435 3.8660339976919778 -0.6079088032409595 0.5826963085310739 0.6023127972104207
Ni 6.352256040316145 8.007293702095538 7.643396865215876 1.433147300278461 3.08380581423665 5.5336534364434575
Ni 4.262996032819211 4.861185190999885 3.553019358610579 0.6409158542945995 -0.5352219170991943 -0.3952456616821516
Ni 1.0545063893087174 0.8612650294368508 0.85268103947277 0.19099671232896784 0.4282167172915335 0.43515561050321183
Ni 7.605456494934135 3.8586003714936288 11.347520219857548 0.6250899430059363 1.7334210391684017 -0.04753866901091167
Ni 1.8785731882930694 3.775497641565233 12.453402626242541 0.22221761801646248 1.2833658858455381 1.3182249025062522
Ni 8.318954806051108 4.839955665086089 2.9601822607954116 -1.4286535261731654 1.0225665509011357 -1.920891483511666
Ni 2.6938170828435974 8.624304429329603 5.322886463170488 -1.6775638229894656 -2.755688313661564 -3.065362262819482
Ni 7.594103354580589 3.0527907766735116 4.240613321315237 -0.09454074879206299 -0.25275975246937765 -0.16269683694301013
Ni 5.845569242830822 0.761067687015884 13.791944458182584 1.0478649204566082 0.8069651526496102 -0.42904872627452556
Ni 4.952189029376481 8.57531755695076 1.3143437467092804 0.35446153778625406 -0.33431668740726295 -0.07888195920888351
Ni 4.202580771434935 3.9646351280847787 9.745937319162826 -1.5923667201958318 -0.8298682825000288 -1.879776972859543
Ni 9.124463406263676 6.153138701340003 7.020023864464711 -1.427959071209302 0.409366674464566 0.7993109785384621
P 3.2912537545053953 5.197603101426485 7.850985321178266 1.007736684977155 -0.039498315204938426 0.7533465959932057
P 2.7405370895843264 5.718060402207241 13.52017454580894 0.6473541537207754 -0.07163839027259275 -0.6227751788298307
P 9.059956499433008 5.630630874795308 11.366930609611961 -0.5778361522252952 -1.1854459361685972 -1.5004564670480804
P 4.3132903505246025 8.180299758866672 9.618677739698624 0.6241831149209509 1.9823259366680637 -0.2411255106645589
P 5.584305923476988 2.9137124558222096 11.198839230417235 -0.7251588207050802 -0.5785120952463971 -0.015581913598657036
P 5.088436119700512 4.172594183657716 1.4882132817608265 -0.8499051465462459 1.1967451632315003 3.5810499665404905
P 0.4609205674072687 8.979581533135539 10.972954064748368 -0.9604708100116555 -0.3595430660742195 1.456739228665788
P 2.1525817480603693 7.9915949520954825 2.4547492939721676 -0.26913202317981394 -0.4769157251591335 -0.6735009873194723
