# total energy = -340862.82968574483 ev
CRYSTAL
PRIMVEC
9.30952044824383 0.00000000000000 0.00000000000000

0.00000000000000 9.30952044824383 0.00000000000000

0.00000000000000 0.00000000000000 13.62542419675337

PRIMCOORD
 96 1
Ni 7.7137382734985795 0.08650127073818137 12.965449128576422 -0.5565967832305447 1.2746328768479145 -0.9244254863523241
Ni 8.314044077712033 2.04762901286772 4.2416902650266435 0.09254917228333093 0.5896557705680425 -0.7208550511234036
Ni 3.5774811199037653 0.2582796102814134 6.758646646687313 0.7846155813098165 -0.34444117743577457 -0.40271985857200965
Ni 6.084013631568037 8.256967408114889 6.231097537287522 0.020521774102435622 0.1403503509270099 -1.052359723003168
Ni 6.196919495028184 6.0288081755721015 7.213898951581401 2.9575985875792417 -1.0009356028949212 0.46070723372007105
Ni 6.659044087884531 6.31985171196348 4.897344891850253 -0.2638684607880294 -0.8820645048876099 -0.23447303834504782
Ni 2.181844368532707 2.535019644100621 1.1257788905631452 -0.11107911276671838 1.0893730670027237 0.7730386751054945
Ni 0.752773405582594 0.7208073053712556 5.023830552723769 -0.172553932242748 -1.3476933442790144 0.38841963989925365
Ni 7.111170255826944 3.2474027644582644 7.922912025552783 0.297302572076759 0.9498809503109513 -1.1640345603723565
Ni 8.365395392260695 1.2468706153145626 8.543236091491035 0.08246659123634831 0.8530246660118341 0.2352276571228852
Ni 4.793118294262787 9.053080354986433 3.251816408081818 0.685263012951407 -1.6915591088272932 0.05791589848017768
Ni 2.6072894509971527 4.976236560610175 12.026085936487775 0.19741238604732453 0.5172630186279286 0.23202303414265846
Ni 1.4648064879730458 0.143806023585225 2.108793492874277 3.032005284625591 0.7073199927514463 0.7650728832911985
Ni 5.419323184240269 3.004023972535551 0.916160143433628 0.6789095599295534 1.630527547536269 0.004164672900650892
Ni 0.40371386898530426 8.889093153069338 9.43071453351187 1.2340361863724747 -1.1158356320696268 -0.35771578305749363
Ni 8.080179615642246 6.760974026788322 11.348193658275044 3.335729186847661 0.8597743260308419 -1.5589395508856378
Ni 6.397567588296373 6.041431885239975 0.4812174882529848 -1.7527048270986785 -1.4170447382896434 3.3208741241127
Ni 8.753118298047987 5.553510611344044 13.538452902300959 0.8829319950942277 -0.2729688804274008 -1.8065249582429275
Ni 4.588569511945308 1.603509032472778 4.504565054579489 2.195761180506205 -0.3829971833321017 -0.6172041124999563
Ni 8.560737058898583 4.448759134517495 3.6176042218931195 -2.5242617754523238 -0.8284863145508377 -1.2574419668909247
Ni 4.1365922963293595 1.1363107509962311 1.5739140671083476 -0.9786870759093661 1.8219621187336041 0.5948835946258852
Ni 8.726995783794262 6.1526434159865895 2.1317926630324475 0.8308895246756917 1.712588932914399 0.6614268297637577
Ni 5.607533758248665 8.948944059746886 0.6749662959497419 0.619826637724468 -1.8185158120562164 -0.14073935883531247
Ni 0.732825896212866 4.281476362377372 5.036924393172045 3.1434844610442054 0.08711334597974028 1.9523815837001472
P 8.636097626569255 7.7408103588335155 6.546934188418929 -0.6563010785014181 1.0551660821037119 1.396707312283872
P 6.55519638777751 5.5349194990971835 2.8345246035872274 1.4749932897799694 -0.9426772334736604 -0.7073328482672527
P 2.921048217174378 4.730437293382413 5.588154129623583 -0.08799343459184845 1.757282933387664 -0.7224043978883945
P 8.298273750147596 3.1485077292061896 12.136219424771602 -0.057220929295682094 0.5599451308774873 -0.12667208210896894
P 5.172844322023011 1.949450810686756 6.9879755104162555 0.40222183588966853 -0.825941436641797 0.7729126910505915
P 3.9235904694850157 3.297432127109554 2.617444275853875 0.7077789346657358 -1.0237680274084044 0.18262879998024675
P 7.773961560992288 4.224306597576187 5.730921210731718 0.430527110592265 1.6857126773488451 0.36195193262602826
P 6.71951873242915 1.3456166982401727 1.2316467565978424 1.422658227821679 0.49308050784445395 -0.07444063560807825
Ni 6.338284562363471 1.9386610765384784 12.027406957433108 0.8926188833646885 0.013731747763795706 -0.04120064260802582
Ni 2.4753921659127704 1.5337993436873565 3.7860553388439495 0.46615283021567466 0.8065182949201787 -0.9901014883938949
Ni 7.827333041468626 3.953399553818739 1.3743961496172095 0.034529915456069565 -0.4059126544776945 -0.982693883075914
Ni 6.117574452624586 1.7434497431862472 9.292579869756784 -1.3668562903607104 0.31324444011799596 1.2295539822314052
Ni 6.24278750205887 7.469195791525361 12.229867614323963 -2.1158649211001945 1.9252417900605616 0.5592933562261013
Ni 1.5765114233010735 6.255206402277854 6.455766986054244 -0.6626658443771813 -0.23686570694694042 -0.38497076211870473
Ni 8.813797752041493 5.112434844121222 7.60373604945245 0.3937827039833799 -2.0573862081380114 -1.187355494486484
Ni 4.645217943603867 4.036775618557286 7.2388065734224 -0.029974949095535476 1.0653687336683266 0.46407100798598144
Ni 6.714091282033597 5.124797887217782 12.072561855200844 0.5902083006374029 -2.7293589317384153 0.14704807466215966
Ni 5.902720031219838 4.045740686706372 9.970008533853392 -2.052284368135072 -0.591516477925865 -0.6674108152613345
Ni 8.8880877248657 1.0312621227570886 10.997774931698766 -1.8390697249481682 2.3837700138514433 -0.22854947377176124
Ni 6.135579065085992 7.2837315260361555 9.840404183644523 0.18793015758850215 -0.6892556790505678 -0.687086953534023
Ni 3.405813563653341 2.032947899190555 8.585079592851056 4.014085445376907 -0.2621905588649742 0.08249487337112245
Ni 1.3549075996034006 1.7770571118448173 8.828770253707305 -3.4874214451500523 0.28706418217820234 1.5965043965132892
Ni 1.4221409559613487 8.500774437976187 7.067085021953631 -0.7396801542497067 0.5071238733113976 0.7573965976928634
Ni 4.750424833689877 6.520229829139951 3.0411261351537964 -1.3521662924487035 1.388745377124318 -0.5973775646923325
Ni 9.091398340969445 2.552335352052128 6.406033666151803 0.3344154177686563 0.30558255269736406 1.663690150331167
Ni 6.460155493972707 9.096984053211866 8.361814019761262 0.3429311685491513 -0.9410396978702374 -0.40606820621895223
Ni 9.177362452380311 2.0504591070705467 0.2852902527816834 -0.8912310018782263 -0.49880198370926354 0.6442117514370518
Ni 4.8057606229714676 5.761224630598895 11.116847421474548 -1.8556363710575976 0.3206499885534478 -0.32697541655084333
Ni 4.200315963494986 6.792356420070328 6.370417302990042 -1.3675546019793157 -0.9275871719097574 -0.7384102863983477
Ni 3.2340436026784727 2.6678665002662147 5.821912463160765 -0.6891348372019873 -0.10162542355298626 0.737713260331323
Ni 1.0321465271954722 5.584399600044636 9.922401508411234 -0.14181279440514932 -0.8205187229643288 -0.6185819666840894
Ni 7.64246458528528 0.7037569187512636 6.283568787140791 0.6087230716121387 -0.7086983611562117 0.746568653839424
P 4.564560258823299 2.5844159593644362 10.980729199838976 -0.8831677652541178 -0.2813326790110639 -1.7983809889795543
P 4.653931654702045 6.331200017335999 8.480968433316601 -0.6808985653351242 -1.0640880671836899 1.9246013282630854
P 0.6803229939902241 2.1652175650910985 2.7969048316345173 -0.7630576526333827 0.6506299962585698 0.006325427997395557
P 1.6894917629244546 1.5836145873693532 6.8578665842014885 0.2057774701825682 -0.9082434772758228 -2.068895237218876
P 7.042270495316674 9.071308395937534 10.782206470079029 -0.15436594847981155 0.6431969370192923 -0.48599197642878883
P 3.3040325770760153 8.732106710496078 9.231347430251276 -0.8847911597901537 1.5412197650083717 -1.8022571841055088
P 3.6489223794843375 8.12849602653919 4.800917810457289 2.62823153086777 3.6565110729932835 1.1485714317397508
P 4.805229980308438 4.651241203305278 13.203390229631138 -0.15760656690429628 0.3175106715935177 -1.6072824609653995
Ni 3.1383138043637704 7.569105564501476 10.896537621113035 -1.2362540199594 -1.339966665058718 1.7975253258474786
Ni 8.520585097395976 0.5296009276968408 2.4549884900432444 -1.3140579156127563 0.12513610508041675 -0.2804567041640138
Ni 7.159449428642275 7.936738525256858 3.016696091709525 -0.4604583509340586 -0.7462634638941793 -0.2392915427796137
Ni 2.4067344529330046 1.0221015546795174 10.837635354564659 1.1390352101145416 0.6217102279004261 -0.20022722978830035
Ni 6.418923628103231 2.676477806639948 5.31181684261446 -0.6174126289663368 0.35580545340865816 1.9877514785590087
Ni 0.20485506553877195 8.76733393570495 0.5766745176198489 -1.1132904970502697 -0.5947997766628272 -1.3438927395860016
Ni 8.619899061066233 6.954975122488029 8.6829785094199 -0.8833282020913819 1.8631799877328103 0.3377786778139344
Ni 0.9266054253269563 8.875920181697627 11.839948592673357 0.7572672712038507 -2.6561511400961737 1.5270956669021636
Ni 1.4356025224655846 6.899695190328863 0.3568758099285183 1.4585377153271073 -0.6225548352889085 -0.5128841728339425
Ni 7.952695043229375 4.715383798889086 10.08736434806667 1.168001772550221 0.5477740427325921 -0.13118873903239986
Ni 6.404428704834147 3.275554754160069 3.0522994215427204 -0.8152466759321122 -0.6107917812157094 0.18844566377233998
Ni 2.528056122838402 6.671584011868768 8.54698317345366 0.6781662540056256 0.802157961068954 0.16924955045986334
Ni 3.572100217110232 9.125834256943973 12.874349885710686 -0.9608672741191259 0.8795923891980335 -0.8153677748910086
Ni 3.31354690692894 5.281430568015687 0.9605404891037483 1.1518578158005066 -0.7854164799445571 0.26163931434719456
Ni 3.988943302721349 2.170728801170288 13.033767044061442 -1.380497535293229 0.45765713403983765 -1.7513668250135452
Ni 4.123912729539063 6.930537631427434 13.311957856583007 -0.10703708148686084 0.3032114813620262 0.18167312093519677
Ni 4.700972661303638 0.07970811369935629 10.746031535693026 1.5701878701059475 0.6299084474405023 -0.3040815426718053
Ni 4.758505497400582 4.5409326960378555 4.333021314950439 -0.7641462577118711 -0.6682885898805975 0.6067908875864323
Ni 9.0147158214014 6.531354706022774 4.880722743168846 0.6621030298951759 0.3796655478557074 -1.3590643051201177
Ni 1.9343228400301975 4.044418734808999 7.385292807931947 -0.9209457553338397 -0.7950313773265018 1.1721723589881425
Ni 1.1397925116273404 3.2547107379754325 10.891346632535745 -0.02424241748713244 -0.5242407354973423 1.3510810298043248
Ni 2.3830417235047334 4.836472730784382 2.9244657421146996 -0.6150875803775858 -1.0081873993613282 1.6481370330879164
Ni 3.2358682686776636 4.296520547350294 9.37807943609949 0.7445580511672983 0.554857946162567 1.1805407855574959
Ni 2.4475939379863187 6.774333188568114 4.191739102346747 -2.6743558360296587 -2.4182508212371325 -0.42622745477564655
P 1.3238603490559404 4.70046994720182 1.0310647609245231 -2.266414838268026 0.2331710317041726 -0.4284933679916878
P 1.6570760128776012 1.508859138524944 12.880018452684704 0.786948086097735 -0.6069508102030643 -0.9783713444411601
P 0.05556201062740811 3.5009103145805684 9.14407626217568 -0.5354252913592521 -0.20717563608167547 -2.1908256908778014
P 0.9246588046104723 6.464195825828058 11.793050021733945 0.2789657214407841 1.0276321383495013 1.29967336475631
P 3.357217867144273 8.52292178701739 1.2721441013074395 -0.043503836819905724 -1.8510196982211928 0.4510470849224877
P 7.7135893211721145 7.562709923983903 0.3312494931123284 1.3009344908569207 0.5161517878416207 0.5269679046205182
P 6.828998692380614 0.2981467004596572 4.373951552358823 -0.8267086538251246 0.25468602295781295 -0.8041981314274343
P 0.6928536084540565 8.028185944185703 3.414748841337135 -1.0696452495564932 -0.908621429440532 0.6978614184417078
