# total energy = -340868.46524810686 ev
CRYSTAL
PRIMVEC
9.25613847800528 0.00000000000000 0.00000000000000
0.00000000000000 9.25613847800528 0.00000000000000
0.00000000000000 0.00000000000000 13.54729428737653
PRIMCOORD
 96 1
Ni 4.432385271362031 6.0161661217619855 13.033811266153473 -1.817001175183903 -1.4329292707303838 -1.1548608642928886
Ni 2.245604016065957 8.70983203878589 11.830255928177976 -0.14802020876744187 -1.0274747868360303 -0.03330941278540715
Ni 1.0868187692457367 3.496932136556878 11.870139703769063 0.22982242694691385 0.460996997046348 -0.09968526910747993
Ni 9.088583973946058 4.228259646931151 0.3320797075236639 -0.2569146551780156 0.5436587350126378 0.8322786917137344
Ni 7.928854600989169 6.101535488021724 5.580523181956666 -1.0145251686538979 0.7134050226032617 -0.894617401851956
Ni 2.3284372003507237 4.940741659126434 0.18718133711925963 -1.0023137141893705 0.3357230808364863 1.225005186518458
Ni 3.020953721597047 0.9901754261775455 3.1391925616207397 0.8897963263142288 -1.5030535383512953 -0.6789738375085855
Ni 0.7356917797217161 5.624622203063819 6.64866028667654 0.7481611951375243 1.763869585466246 1.9695025596511497
Ni 3.3143733150518555 4.147222153533773 10.02858835209827 -0.7788887061283682 -0.9502601880272409 0.2213393291765672
Ni 1.0203319257193677 1.2863163243792226 8.002427018609849 0.7447719669503173 -0.9279759227077438 1.1252687524580685
Ni 7.793335475822865 8.327840455117546 10.891767705527592 -0.25980894600667515 -1.2250404106317676 1.3390158711096747
Ni 8.22989199650749 1.764867945868405 10.430671310200463 0.18660526812949152 -0.09371773867013537 0.12135735476427487
Ni 2.1469983716156706 8.031246006124723 9.537281771625468 0.1361003174014043 -0.044537163180426526 -1.5237493761377499
Ni 0.8115115877932106 3.1804369895852598 6.777386331728129 0.2533955862811636 1.316040493260424 -0.9734086011192462
Ni 3.4207726281989546 9.264006312594498 7.056975402894604 -1.6158162094680237 -0.9531791614462487 1.3250678935700149
Ni 4.611426760201033 8.209278575856896 13.090519924868307 0.41215297896045155 2.382280059569478 -0.10223426078157875
Ni 8.767627368171752 2.048503800828522 12.826266424125675 0.0030094762502851395 -0.8297546397403001 0.17989494598885147
Ni 5.906952942482071 2.199582494972667 5.709236268414222 2.2071341982298374 -0.5703966652281145 0.9318701155558273
Ni 1.2392210912089363 5.964600173650417 9.147011497597944 -0.5865802169665123 -1.6939515203188698 -0.015222987597341527
Ni 3.18766603382779 7.030527838087714 1.4767225001849067 -1.24091285888765 -0.9275424347147511 0.38404465076000954
Ni 1.5769498201169998 1.6369573666270167 10.365143402632516 -0.1229403829806786 -0.31849540410429017 0.09374370681206437
Ni 3.5920204483411444 0.5811947935945158 9.23826591677625 1.1482541576096483 0.8899673046744544 0.49473347006684476
Ni 1.513008414704198 2.2115044014827547 1.3515665477893275 -0.13456999679980697 0.7660609582360807 -1.328451465330267
Ni 0.6415448172325395 6.6697790924944105 3.9981724049696066 1.2775695908787352 -0.30736844095319327 -0.27642135775237553
P 5.395930786802368 6.0335121254886195 7.6661700157383565 -0.16561092526601154 0.9139896357309808 -0.8381366931564082
P 7.871133320712066 2.5285734290472495 1.1881929247497247 -0.1569599344592329 0.7502566442139723 0.3507226395691121
P 3.897685913156859 7.681132563776833 10.825589091416429 1.2803039590907626 2.3762091707850495 2.0853397559281444
P 7.307332662764877 7.278944085694659 13.377072389099641 0.5970410072885202 2.423899534882477 -0.26406515017986776
P 0.30396881461128994 8.8817555570455 10.203483090846806 1.5970803236214173 1.774658962772266 -1.2001989261080557
P 5.371559373882289 4.659641986141289 11.351237797303618 -0.024974924777782792 -0.24764325717841867 -0.5775253058530957
P 4.238256276613523 -0.2951643755799267 1.7704281083222944 0.9583956726501818 0.42952258058715065 -0.3729639674658157
P 1.6523503251101506 7.131984373225196 13.239702961828238 1.723399907486974 -0.6256046778588258 -0.46452249370110327
Ni 4.376913232763461 0.5493296108680954 5.110039210866701 0.33836977443071403 -1.063325992206685 -0.5775810987916956
Ni 8.25863230684431 5.642236634809702 2.4448257382693184 -0.035363209990642325 -1.05306291971778 0.7752547089202068
Ni 4.62210834413942 7.971201435060328 3.736695745805414 0.09402781371138645 0.35887457925228516 -1.7799281815910055
Ni 6.187858236556726 0.682086704277715 3.0208704163496933 -0.11812239276674497 0.27978204669449236 0.5932866824524105
Ni 4.982838577455534 5.828396094228097 4.563270773547784 -1.3208564265918283 -0.6655354526154925 0.33823967661075294
Ni 7.438621732593363 3.8574031979923378 11.294595782786667 0.08354619745377224 0.4281400984173272 0.639055661157409
Ni 4.481405781360033 7.4540702279080655 6.129297424509074 -0.23491835341258252 -0.4078720921969105 1.3059851659069508
Ni 7.764613677763234 0.22059599744644764 8.776804829588485 0.7914503448434628 -0.44023842434275795 -0.3729413417579964
Ni 7.831507791387773 7.956363844892882 2.6028280240823656 -2.3260081244506265 0.5699562352565861 0.17762131946332635
Ni 8.848794447509455 8.611004247009328 4.922030374957068 0.6612789913319836 -0.16357923954796344 0.6555194631403872
Ni 6.550411929176012 8.778318208248734 5.314386982623857 -1.1711673147623958 0.4819077790570862 -0.9832189023414487
Ni 8.452576178820921 1.4646636028236153 6.455610557688184 -1.1580981402832635 -0.7383017858449414 -0.3956801781164089
Ni 9.033343338812358 6.212257417892589 12.14004222589609 -0.14296130618729572 -0.4456603666892776 0.638845602029132
Ni 5.138591621590047 4.36247365655559 6.155023936119431 -1.0919197446839777 -0.5145990986425202 0.9053751545890925
Ni 9.048264234227158 3.2068910336891667 3.079503426278384 -1.3193145360260052 1.7661221289458486 -0.47884096720630437
Ni 0.31952745797527066 8.196366262517165 7.7683170588150094 0.9791861270329717 -0.9380471909008168 -0.14195189108617487
Ni 4.734200182522313 2.651939244238596 2.3283603744003867 -0.34213129835567535 -0.1409818138634217 0.9491962655391005
Ni 2.1887713250939536 8.385228514405236 5.17825047301328 -0.328762333247937 0.035523132607274306 -0.29080822260166694
Ni 8.015455033682015 5.96553504364849 8.173827565038854 -0.5053757802720393 0.5078579232639447 -0.19016573178724022
Ni 6.2553354869127356 7.5328399673497195 8.98856214029077 -0.09951454785757054 -0.5789962339716673 -1.0155659512135864
Ni 9.414973933075506 7.022326899292731 1.0475644110790963 -0.3507812607211894 -0.41116773222904673 1.053375308751876
Ni 4.059205531635926 6.16461607254521 9.584778721210768 1.503592955794533 -0.41818298720461533 -1.7607336109404257
Ni 1.429916058538778 4.831158234302728 2.4199942952610782 -1.8800909045555365 1.6481357475363356 -0.9098830697617749
Ni 5.77979211046686 0.37949705431704867 7.719262301104206 -0.8092536915734709 0.5045887655943697 -0.6775427614890138
P 3.902915631462915 2.722915314983438 8.624329384130386 0.6914359745313382 -1.6506371738019507 -1.428259118948224
P 1.3613188154127973 1.197975737630557 5.760391243972183 0.29462991034060226 -0.46326882379966017 1.0931258491769367
P 4.608742480008544 4.4094393037855495 0.9230897104840938 -1.2137260140602129 -0.4431969927504496 0.44468617570146646
P 2.4068366942485855 7.087082844901874 7.207445043119213 -0.27825635407858534 0.7451738303744263 0.584498137626503
P 7.684742457828801 1.971409422472525 4.431672548690232 -0.6351187879968482 -0.4033726616646602 -0.45185055466038954
P 1.6157330408291655 3.5210166091805184 8.903200178941907 -0.5123329283161627 -0.5453286665158931 -0.13929157064519238
P 5.707279520715284 1.451269970276956 12.651005142288787 1.0633367908399622 -0.617369177322911 -0.34768231008089157
P 2.0089245521972043 1.3631978115475392 12.582659666132585 -1.099900191786293 2.744229421092345 1.779306745956923
Ni 3.9518620923521586 1.2489030121790856 11.556438059425352 -2.177703037452914 -0.7527076768576263 0.09651201358582089
Ni 3.5565231568301288 4.687817672023826 3.0867648670059955 2.363595338675781 1.2249054277158 -1.181668985624668
Ni 6.095704120707007 6.711968572209459 11.326622022324637 0.10698154565857705 -0.5661463745921926 0.2612215100834856
Ni 7.4207111044124465 3.9360433514936646 6.614263550044445 0.9900971175185205 -0.5793477037738152 0.5678520444293899
Ni 2.044070110441618 9.070266075666972 1.0903684983968382 -0.10018560578266618 0.14748490508926212 -0.8813173423089403
Ni 2.352845637825182 5.972042109080627 11.516202550567664 -0.38119252602319514 0.8003569033044732 -0.60369090850487
Ni 5.6914422675796 -0.28739662407117983 10.679887288181996 -1.7898115021429886 2.161524113700206 0.2017449519844074
Ni 0.5701846167360143 1.2452190690183598 3.7881219262242016 0.6086580227021583 -0.9153363795668623 0.2328750977303086
Ni 3.888522335948018 1.8207379984265506 0.3068678372191778 -0.3730914941826155 -0.32396028387360337 0.5643879971401894
Ni 6.471836568644849 4.292413943531633 2.005094362046681 0.36751400009483803 -1.4743443433420607 -1.3157918675847273
Ni 3.273294571968182 2.182032856196947 6.386560689384918 -0.8751716344225186 1.661424751335758 2.149219585301241
Ni 9.037129099497626 0.6278216661519055 1.450346207645196 -1.6987828802692422 0.9179373075248191 -1.0883047736392097
Ni 6.544228828594693 5.398790933628158 13.491547683170694 1.871648687325454 -2.113790297959353 -1.4908749940072323
Ni 5.597510973119682 4.123526438731115 8.49520995318852 0.14275381816217994 -0.7571173758895478 1.3722988015325204
Ni 3.5317722422276634 3.8919193388123055 12.175603384763411 1.194245022517466 -1.8254495630615724 1.5076121042562551
Ni 6.649267489368358 0.08556744762566676 0.6904163033991656 -0.11218777244986486 -0.0833893601609338 -0.6738899952277749
Ni 3.007569345188982 4.923654827280454 7.695581396123298 0.41612764733748336 -0.23500628514069852 -0.41581320142085804
Ni 2.2316087345106363 3.0272108712871235 3.356030566797703 -0.7748060514185625 -1.0478104130695889 1.9096099970605755
Ni 8.777494411913798 3.6918386469473483 8.794944084392693 -0.6445927889255544 0.05998692207659347 0.5784722431473973
Ni 5.4140728184481555 2.2830913773748525 10.275487518589529 1.7655387456385532 1.1394406730830764 -0.937437839451592
Ni -0.01822256005156096 8.633820628645484 12.815848640137242 -0.4696071073128622 0.9125282206941059 -0.15278240604277557
Ni 5.430011889108382 6.58562228039059 1.5817417230675221 1.3607956859889274 0.5338471482388548 1.6923108993916534
Ni 6.6917716777956295 4.307806902014766 4.200067299999143 1.2836561633924475 -1.2216375555978058 1.4867409172342008
Ni 2.488401787545866 4.511895501891268 5.411114556553261 0.6334110612771221 0.06338720600739406 -1.3928236609587497
P 6.980100395023304 2.3719410517462314 8.522657180963646 0.22597399973510113 -0.6516406969112712 -0.516288313419485
P 0.19206487584187026 4.596024545579304 4.967521519308876 -0.2928931301551536 -1.4786763950585113 -1.6337067165951995
P 6.638335989687913 6.5240967271510275 3.7544703087489877 1.6631407055856002 0.9781178336694573 -1.4214395249232292
P 3.0097537938973518 6.544488000475347 4.155321274804214 -1.237315628454695 -0.18531148901873246 -0.3217884730332652
P 7.689666723561228 7.960177373993935 6.771899292769138 0.44023379635706766 -0.08426122124292586 2.440804795278248
P 8.624259037477065 5.383472024253782 10.249652710157612 -0.14083089010785424 0.25129216678491556 -0.8491464140033506
P 0.5437907375329737 8.54469327011626 2.789537298133291 2.1095718890026314 -1.027874079156978 1.1299016232443895
P 4.239431806215061 2.5740395818248527 4.604210674552536 -1.0698095430484995 2.3423937648975013 -3.1870844571223436
