# total energy = -381165.8447355125 ev
CRYSTAL
PRIMVEC
9.28691633268901 0.00000000000000 0.00000000000000

0.00000000000000 9.28691633268901 0.00000000000000

0.00000000000000 0.00000000000000 13.59234078877874

PRIMCOORD
 96 1
Ni 4.401914635126852 4.955972047887154 7.252097966573652 -0.09439265324997291 -0.09280422571693049 -0.11209238452258116
Ni 3.125102979187362 0.17782494022448833 0.597703132216379 -0.4809351307311718 0.8880670023279479 0.5005521336311508
Ni 4.262620180986864 7.583974270574001 5.796820573200814 -0.7430349296545525 -0.21944751147049302 -1.1944052022444138
Ni 5.752882315888519 5.110153428488001 10.955263179180095 1.9854930215421354 -0.795195670818508 0.29731928424730736
Ni 9.196229334976485 1.6745238366545414 3.557441426470913 -0.5370042058105978 0.22220913337603024 1.3711657163693418
Ni 2.49219036207326 1.1859856167709404 3.491341801339813 -1.841800236505454 -1.8521710382168166 4.313200902292688
Ni 7.073816110078499 4.477807313254194 13.281769386407705 -0.9419850925026422 -1.04718872032519 -1.2185943978961078
Ni 1.2124904752358732 6.757893799195497 1.1798358209491187 0.049596579981204904 0.42301434715498765 -0.9020913416314981
Ni 8.667107291865218 5.320697102720129 1.1441025539850254 -0.3585375076278406 0.42275672261822683 -0.8973671966829514
Ni 1.6764833759453965 3.541946207007444 3.773750418199549 -0.3188939250942895 -0.6902085298821403 -1.3242695660384356
Ni 7.009299904137404 7.413187884039272 9.975772141234588 -2.021627048260531 -0.8568769498783889 -1.1767414664160638
Ni 9.158803063212757 6.4583814690088985 4.952586966979491 -1.117349754721308 -0.5405150471773337 -0.13388376936605972
Ni 7.686826866053726 0.9391858221999544 5.213124896493426 -1.2572874435909314 -0.4364385909806935 0.07183276567158596
Ni 7.142028508615617 1.3425723086340218 8.126833519936609 1.0791889273808706 1.451084601483172 0.4038534579558206
Ni 9.058569378064886 4.067984993983337 5.17680562512529 -0.8209462974200508 1.4948614894588061 -2.397891540854489
Ni 4.69840871759057 1.0254984201582888 5.0732862290717105 -0.47303875870223044 -0.38600871646491586 -1.0851896250489956
Ni 5.431898635747147 7.025895623155216 3.359265138369741 -1.0431726571872615 -1.194387718742917 0.5772108599364705
Ni 1.082603667075203 0.415633142656109 7.890924491841386 0.9412821528983466 0.3222790395164385 -0.5811495328692443
Ni 7.6119650356102 6.133497284117956 7.395552030421575 2.241832778053287 -0.07614501989369468 1.3030409956769622
Ni 9.017316896880152 4.102225853534916 8.541004902003237 0.8850055897938047 -0.9300544025033273 -1.5168575341139232
Ni 6.1252690764795785 0.4883673406279059 0.7158744957542345 -0.5268000115840862 1.0943594644737218 2.1238088585376196
Ni -0.044825157797018886 8.571582073165041 4.250365166540358 0.09506448250601693 1.1913635872046129 -0.08148648671126611
Ni 0.585429543937733 6.972941627721772 8.640908901630608 0.2883453628834711 -0.4349306389765994 -1.3004405819396379
Ni 7.076982948458507 5.3456974807816575 3.070862745878167 0.5206075096201292 -0.18854362280278494 0.14672025900909572
P 9.101753537792264 1.910606530080281 9.054904760983504 0.6214418047303878 -0.05384738483775888 0.12015844936016726
Ni 2.369825955929617 0.08145925561994147 11.831113162471501 0.14119418698454395 1.3208769954171187 0.8900796618826025
P 3.779375503263392 5.6749743769739 4.042524913576324 -0.04258029656437183 0.4856047682926992 0.019684622913120935
Ni -0.16754711020937227 0.24008535425208366 10.978791581044463 2.0388832642378176 1.1033207874320676 1.1178914861573908
P 3.529371722648117 3.0153780658155385 6.397316281079564 0.8145061982216618 -0.7336396044825816 0.5989726770935943
P 5.093659865546964 5.9324076904454985 9.113025067826914 0.032432666607408664 0.030143870573231958 -0.31367947077288555
P 3.229162873756238 5.979028009118927 0.09482684261168096 -0.04291453997533899 -0.5096934338107867 0.3851062592553045
Ni 7.554878362525426 9.327685631953052 12.534407601716767 -1.2228925110508293 0.2679809402945062 -0.11426779490734514
Ni 9.0460134675377 7.213602770770221 10.677001170345793 2.09354594588802 0.25384784332723376 2.40867294774071
Ni 1.5604990811421213 7.4343992003440755 6.373543633322544 0.923325568419926 0.2956789204304069 0.18408635836237974
Ni 3.3903001544938176 2.479940919776397 2.3300668108490035 1.9822395476018442 2.6203091906969 -4.288120819395608
Ni 3.961594083480789 6.439250421903866 11.302561336006958 -2.597502991435662 -0.2038224033387264 0.794804091807044
Ni 2.4135859044533605 4.754130214012993 5.615852011886494 0.9813054873688196 2.160748411876446 -0.563845494373158
Ni 4.419383324255283 3.3510907948445716 4.169083291017361 -0.44822427076171195 0.9063740281672519 1.7905684349136708
Ni 8.618787467550906 8.943365184211524 8.998237856505114 -1.6862315259667928 -0.8916531770173096 -1.0710256748437876
Ni 1.9465840429370262 4.880785175381163 7.992717450197478 1.1063094377467462 -0.5494131209979118 0.8308149626840143
Ni 5.026385445532957 8.310889052152731 10.86139474630688 0.10168378759474746 0.6229790673105207 0.2823143261980428
Ni 1.0544735982979494 2.9842111754832623 10.654668923271293 0.9799538584369315 0.384371437971809 -1.1489267581966407
Ni 6.799016263555246 5.137884159874227 5.553830271601909 -0.623289656572404 -0.6366645352174132 -0.5580563984952066
Ni 3.4106013530237207 0.13967986115691106 9.506089147048726 -2.306282106776609 0.5782102477352622 0.6763543976078674
Ni 6.861220027394812 8.746408268190399 3.249901486033057 1.0362869858110217 1.3723378823005719 -0.0756984192745793
Ni 6.538304668710795 4.084506417672586 8.175262929860553 0.46225760892632645 0.7811515340206159 0.6212589992956205
Ni 4.924117925765668 0.8045970484328389 12.44812379319825 -1.5858296904082623 -0.6209846625883112 -0.42926341338849294
Ni 4.477305819786392 3.0751486576446583 0.21364550419964357 0.32712556897546247 -0.08756868834960402 -1.0524409698630648
Ni 1.9874836213110851 2.4507149949028357 13.48440339422267 1.9960417435922593 -0.11133185220747277 -2.67785767853533
Ni 5.8629508451549475 2.8079733692152065 6.191732748720638 -0.5291667120440499 -0.15377973695903838 0.09370822558843861
Ni 5.736713795009947 7.203972238805211 7.398188585893963 -1.3797125774980885 -0.7868598972593028 2.391148308593385
Ni 8.574191696580826 7.205374563131842 2.4179275377162743 0.178222443382435 0.33455245756715285 1.0424146959753144
Ni 3.1429710057068188 7.122080212896389 2.2571032260502677 2.4904443126822464 0.14903373763362074 -1.528104824892968
Ni 1.7657027786337678 4.417442358796568 1.0828692728748166 0.18186698211355776 0.15332182348601336 0.5628003409380953
Ni 8.724017513544654 8.713792618951139 6.580337250845443 -0.26368616957389424 -0.7448035915192012 0.5310276765121887
Ni 1.4981002920650772 5.41863691959861 10.450715244682725 -0.39068863843908846 -0.22030985947078832 -1.6953954518542478
P 1.3570784715359927 0.5943496268233561 5.614832308501964 -0.02544235133250457 -0.5506356805511032 -0.23707550896490137
Ni 5.429261151583152 3.822726827480038 2.1913574324214498 1.1340626966006147 -0.28560456691354036 -0.26925286502839435
P 0.3552774751145535 5.489737549033623 6.80779147055017 -0.20427954548080302 0.24503230191813288 -0.17917349444179467
Ni 4.466161520501907 7.720649814382137 13.520735667273305 0.19174618890048267 0.9622366436628268 -0.7180944576591312
P 5.30301481452208 0.46035893045117454 8.904383354006004 -0.4060005862058104 -1.4647520716679354 -1.5726003362021819
P 0.9332050482506143 0.674692595131635 13.703389803854403 -0.7304457801356323 -2.1925102776690757 -1.4823301897610148
P 6.585732949082349 2.3113276716021423 12.828682111239658 0.8667412442669782 -0.2145156213865144 0.8517856513984106
Ni 6.911332226510712 7.624585954549879 5.4949893000714365 0.22887600387324453 -0.05182726908393655 -1.7033756418462471
Ni 3.041065675666276 6.884678777388652 8.793034159013468 1.1396232214075277 -0.041492977037464025 -0.6698417933003302
Ni 1.0430971261117046 1.9515618299507627 1.717664347876389 -0.5517700512658626 1.251328140683703 1.8006340466797892
Ni 8.775931374378212 7.373319153349028 13.178004815769867 -1.1132226199268116 -0.588239092726174 0.146704832390128
Ni 3.6455696165210116 4.287100491748448 10.168266694083886 0.13689735938140293 -0.8404540284356752 -1.8963765290894374
Ni 7.930431961496493 2.577184217949597 1.2634022778254348 -0.3114855484453603 0.10141999241039953 0.0999223248189505
Ni 4.436619840481952 -0.09731666481015626 2.6845548980975726 -0.3330249651790329 -0.3367723480366071 -0.43386260272340116
Ni 5.947081017836737 0.05743864720384157 6.849832410909283 -1.0050552814902498 0.0477142753568275 -1.1640201621946535
Ni 2.6940321959474196 4.187860506620111 12.266870123560569 -0.1906087328619298 2.7745242154211445 1.0975394048636002
Ni 2.567330799998899 8.26281068765625 4.156415008805723 -0.005877798937015684 -0.4385378967118835 1.8559472174297973
Ni 4.898560332739916 2.4621564755015735 8.446103764062993 -1.2153067282837715 0.5391551907153296 -0.08315050467725035
Ni 7.510384747632121 2.9188498601797592 10.40114447277373 2.059086992879202 0.1665941151148873 -0.6491050749736111
Ni 2.3137701305286584 2.3427360217522484 8.582203519074763 -0.0689911824577328 1.2445193452919858 0.6026390702015879
Ni 5.491307037849521 2.51196220638715 11.00414114715024 -2.641320502841245 1.3434373972161382 -0.3064197038866787
Ni 5.504243711935594 5.774641560241476 0.6127265763434716 -1.8307172392184146 -1.8977561830457834 0.4034258835000988
Ni 9.064327266028537 2.2459199217182872 12.256036935964442 -1.7331287047389639 -0.9069612681292897 2.4599065491047054
Ni 7.144684566611753 2.971367370557894 4.144073626039764 -0.7287766199633255 0.24009681228972843 -1.099568776588803
Ni 1.624625236608261 5.932639863347259 3.3702348436321024 -0.775508991022858 -0.5358891183695481 1.1834330195036264
Ni 1.3465656825442955 8.91082383030083 2.3402610586194856 -0.7188686168209942 -0.5876762782441686 -1.3603040910644895
Ni 6.703351741114014 0.622783377756112 10.304435172274577 1.9825118274266245 -0.42953157944821513 2.175735115093266
Ni 8.464113880398328 9.20121640890629 1.1298044180030313 0.49219476280539104 0.8121297275696853 0.6250318360744913
Ni 3.314407476366476 0.7174588436358453 7.244758516803212 0.9799880541089767 -0.2502213023182401 -1.9201682321923963
Ni 8.143863866626516 2.7245768629029787 6.679819624483217 0.1975100879674534 0.3743783313148391 0.36642770900919475
Ni 6.577003247976168 7.54093870150375 1.1130749673938056 1.356682435151502 0.6212296887195817 0.42227978298180824
Ni 1.3990739060063595 6.296835563964221 12.477115687786839 1.542476263123292 1.6448251951058641 0.25636623887371335
P 5.8541375618041345 1.4073949828054413 3.046546813531028 0.36135389403071316 1.7321887094231974 0.2688618002375628
Ni 8.224920070089002 5.10876039107744 10.24787692471421 -0.7030434768632795 1.1184807830019576 1.7889766649465189
P 2.129954200747153 7.881313462400126 10.413051227867593 -1.386312342202793 -1.7013557832027408 0.1992198715697085
Ni 9.246369394840595 4.59748780065349 12.629799088825528 0.8559019875596291 -0.6817056346174518 -1.0567344550320963
P 8.94140564492067 4.075061624028985 2.7041549344641607 0.6154400786209981 -1.8667813319308237 2.0250191046612156
P 6.99634465621919 6.630235850891724 12.051254864462392 0.3900733734525927 -0.12062279059109547 0.5263325850293644
P 3.269913861473171 2.405914911779207 11.430125486458419 0.29717016026395277 -1.7237786309826313 -0.5907094086435375
Ni 1.236738613095698 2.9582913927307652 6.3390055924567115 0.9711740553617726 -2.7972180574742342 1.2245470159351168
