# total energy = -381176.5414593523 ev
CRYSTAL
PRIMVEC
9.17176374112853 0.00000000000000 0.00000000000000

0.00000000000000 9.17176374112853 0.00000000000000

0.00000000000000 0.00000000000000 13.42380333122845

PRIMCOORD
 96 1
Ni 6.308577700219806 5.07390235460843 4.528774896437841 -0.5731035226363163 -0.5084446490053501 -0.05888726125451149
Ni 7.037989742426818 1.2450302670937676 2.70637291788429 -2.198470094796936 -0.22043404375347841 -0.19949395116670157
Ni 2.716713164544387 6.784216206114754 5.404073932968223 -0.7328173656916024 1.1723533646506972 -2.0228354667463355
Ni 5.58116510255058 3.6142436396763387 6.291253155323356 0.23354487010382358 0.32513862045242065 -1.011344199822755
Ni 6.187409526877123 3.4153814540419396 10.0197687190398 -0.1599197884185052 0.24121189973077814 -0.4578828768973986
Ni 8.305252365298548 8.368381616461797 1.7300734997274632 -1.3260109742095745 -0.6770910186635758 0.3270443221155658
Ni 1.09476925854989 0.5774239905142118 5.168299066201817 -0.2572995493212601 0.43410685752372336 -2.0326712218898346
Ni 7.857074120624399 1.7109742185096293 0.49385546342225434 0.9838164267161315 1.2107959848976113 1.1142616027142875
Ni 7.500320018852368 7.3951290582841125 12.172503698998394 -1.5112314461763974 0.2574363320094405 0.3477414454536011
Ni 6.870586707088795 5.221595269250564 11.659016074873694 -1.8041983669922799 0.04656473513341658 -0.47237515697630256
Ni 7.487626297566601 4.243316584436606 0.29098521694834684 -0.9067427243605805 0.29471449963460855 1.4419880384985424
Ni 0.07295312751381651 1.2646211548585067 2.5700007114668844 1.4752285457192271 -0.655023240230259 1.3030787908934334
Ni 6.06438865721961 1.0743895990867578 9.397964397197862 0.9900991744010496 0.6658239303901888 -0.3948252863152813
Ni 1.2262464945552911 1.4495055722562658 13.30030506535948 -0.16325270944648013 -1.6797070945847137 0.6553783095768326
Ni 4.768069886202425 1.3981161789295642 11.467928793526829 0.05753177566788156 0.014766616786213277 -0.43443878694184535
Ni 3.764541335275955 7.28232553364997 12.692770173847308 0.13090283236086486 -0.6453540925716111 -0.8888594163222563
Ni 0.3991496633842655 2.880823536629817 4.574469541537423 -0.08109027971411195 -2.1021043769809924 1.1324169334670757
Ni 1.7476154154291672 8.078517189066284 13.83859955939864 0.09938753536140303 0.9741112836132256 -2.0406007611495567
Ni 3.8198195565110127 7.859110252217926 1.6919226304642565 -0.2076024392064489 -0.2828488585452742 1.3986788341879461
Ni 2.497893220587857 2.8521067437499488 5.604438453535143 0.01584570878300497 0.6011799691575581 -0.39799597073377907
Ni 8.00306108717466 3.3516927252786677 2.976030114978646 0.2952217782883303 1.1076831781658212 -1.1677179227612147
Ni 8.782000654629607 4.959457084229959 5.009387249914633 -0.9376630680885206 0.3653702142789579 -0.2545034746333617
Ni 6.722040818400724 0.7763081883820538 6.666206788271218 -0.1341380514687109 0.8094334116844447 0.15492362075549446
Ni 5.953511203011778 8.26696942263468 2.712520751249788 1.5603773117734288 1.0794334392915086 -0.7559737492034078
P 4.288221540661402 5.128932938217249 8.369110771694613 0.1095891584847532 -0.2318883083370071 0.4178955378711835
Ni 3.3585165176461613 3.532798375935288 1.6910769938294679 0.3853973081331621 -0.8381683177252919 -0.10366713657336339
P 8.888494005676606 9.009240277878288 13.244569173104074 -0.209863981547116 -0.2540612448896205 -0.9660503609819622
Ni 7.5222221911286775 6.850968304032251 3.8221326753753697 -0.2943972255045059 0.5028843813087533 -0.9167425158857695
P 0.5424456343960536 6.091078490269887 6.610028816994156 -0.23122496372139534 0.2707435906413079 0.8668865115955909
P 2.7308651962957877 6.344035739591754 3.0684530629732625 0.04573735413611477 0.35651379232959246 1.3998777395920536
P 0.383810805379701 4.294733493055112 13.262677903816948 0.3756865086033014 -0.347859201978388 -0.507562503510713
Ni 5.1848164958720036 0.5115101918203566 4.913018609075265 0.6091850988502219 -0.2255284275572503 -0.9320578060866012
Ni 2.400296480557618 -0.0021416068787765 11.132870499342571 1.4490038076947434 1.2267417095935904 1.8883382321659932
Ni 3.211502313535204 0.7551810301582351 6.309415999443447 0.8460145532425881 -1.1197177407328522 -0.36410523152360524
Ni 1.034620830665452 3.0328455238491765 11.584299217155216 2.1525329659451895 0.8390224381954712 -0.8647697223629043
Ni 4.749698843041014 7.157259360634996 4.041169072960761 -1.2178166391898189 -1.2639417156826553 1.4223844053350019
Ni 7.276794959997283 5.301481333122698 6.748186765849668 0.45942862411796365 0.39962502169676983 1.0671278824512784
Ni 9.03397652521045 1.3828635355059868 6.8226880871156785 1.4739555925440744 0.2350548789904468 -0.9852804128561676
Ni 7.56679696385182 2.997103159795249 7.537627085833573 -1.5925914346121282 0.38368572475869406 1.2684547730616607
Ni 7.566641043864928 8.247919668942094 9.767884566098305 0.23853383867798272 0.7248783133501838 0.6906224774911074
Ni 7.801520746471298 0.12769113185311426 4.591531773985336 0.25881187220072843 -0.742231974137283 0.1810401153368882
Ni 5.794353583451141 8.383469168134548 7.984196603113557 -0.9186754712424243 -0.62386969744559 -0.7092514054462044
Ni 4.705390051471981 8.26887714953312 9.925855359405777 -1.0057901027737453 -0.41502901495666583 0.3327115477036722
Ni 3.6644223601636456 3.6143812161353606 10.458821058598817 -0.10278370552714557 -0.5579216726895552 0.031034243597985258
Ni 4.692687158422279 6.170781118863325 6.373112065617867 -0.05547900690391091 -1.174490722708674 1.598099766024867
Ni 1.799408366369 5.311221746421459 1.2344735668048092 2.1074733546023903 0.9784909007381599 -0.141468266581537
Ni 3.7739148780173233 4.608187697290939 4.602793782920881 0.39239199428344035 0.7687577883419535 -0.9888053952902907
Ni 5.929288574459963 6.723462441810619 0.6051905886504344 0.5179926977051015 0.256745476590003 -0.26176324151956853
Ni 3.760588305020055 0.8839223289818844 8.710290301128957 0.372668547712584 -1.1992147078179154 1.047248369918532
Ni 2.9989375125822098 9.063867303873973 3.9673648057537947 0.24604685922557626 -0.8092914867899417 -0.4856340788687379
Ni 7.151169309382287 0.6497754503139052 12.026962480175367 -0.5622370122354575 0.10102172853071635 -1.970732318293193
Ni 1.677002004895119 4.553166285446056 9.318643313984111 -0.17575855522297473 -0.915432024604462 0.5094208968756904
Ni 4.374766305150203 5.5706542610812955 1.9525456400828316 0.8127624760576777 -0.27114262585193943 1.9879301702287184
Ni 6.461865390862169 6.194196632188878 8.983518065923132 -0.6952622902559639 0.41024444908382895 -0.3558987844534129
Ni 2.5150444191459385 5.0463503757482835 6.798015124954665 0.5383800031122018 -1.4497203741457938 1.035766080310545
Ni 2.2037180641429854 5.294180609030595 11.983711192988016 -0.11625525765101914 -0.39155921396949983 0.08200507821889749
P 2.222070763776526 1.9286660355021785 9.912914917670163 -0.27481518960752027 0.3756039761918241 0.7085821472933216
Ni 1.003849562664188 3.0805203527822824 1.5013984954229875 -0.525393875265179 0.9471185570744658 0.2640762059234613
P 5.3299963471959995 3.6664401482293023 12.027083547459307 -0.04691517649429985 -0.2640299260665582 -0.21744410788721905
Ni 0.2868515029429311 7.364366962046782 4.8288108100370515 0.6057786442718341 0.47760812324046775 -0.06492061193278496
P 5.453723442676492 8.405618978037097 11.828370861577046 0.9835706292539126 0.13271546008957144 1.7057798804123656
P 7.875885408454681 4.673674091785433 9.301970881503426 1.054496823950829 -0.9274347054922931 -0.11310874160223745
P 2.492023291669583 7.05441637163405 10.832714435635816 0.1307010007627039 -0.030740623616966414 -0.5081451154870603
Ni 3.893688943241916 0.25652414831611153 13.47803550688809 -0.9527839828903589 1.8939483792639191 -0.9018015783052211
Ni 1.3454060515962514 -0.10457828673741072 9.156188445288914 -1.1541250145681285 -0.09085532952067578 -1.33946247172879
Ni 6.20409296547453 0.09076194154602349 0.5802892495674442 -0.9201134892405315 -0.5794960564262214 0.5083713725652534
Ni -0.09219640542542669 5.179267578691448 11.23873099867807 0.5481442815878173 0.481561451461261 -1.3801321815340104
Ni 0.5334692290330619 3.8071533505170496 7.1838290435777274 -0.2682051404901703 0.9122723959295579 -0.6626414188971491
Ni 5.2307303461296275 2.51846548709362 0.4451708232799265 1.0076145575769935 -0.03498011561961072 -0.4712341013933239
Ni 1.4239622096978393 8.20749970528142 6.761019897947244 0.5534507814023952 -0.30946414713995735 1.5171524396465226
Ni 2.322281456528184 2.2331502546097686 3.338768792718137 0.7225293535020331 -0.3501868216703001 0.4223551163044339
Ni 4.575022598902692 5.95807874145131 10.446081478493378 -0.9834140490713902 -0.6727412263353123 0.4837522884649927
Ni 9.210377060968517 2.5515021807867804 9.376271341139267 0.4638249534134464 1.7282893743687913 -0.06436782475310851
Ni 1.4403704953772016 4.608939781933593 3.6913176407260617 1.6960677953309242 0.8562951092329898 -1.0143698740229563
Ni 4.52970491330083 1.1080224574356803 2.1961880459525123 -0.8400346815100693 0.19930728907719225 1.1871930007666909
Ni 6.451583843491254 7.393551514887326 5.999635086663509 1.176189964787968 1.3022051300392283 -1.7811962496701519
Ni 7.3716126555552774 2.499571653387926 5.081406691859887 -0.6919177992637632 -0.011795707083347427 0.03654951698925964
Ni 0.06584317611155723 0.9551750114621884 11.118520357490182 0.6773568707304528 -1.198110419010143 -0.3820972972256516
Ni 9.322731169169852 6.416813686414415 -0.014434522080592956 -1.3174476580205956 -0.04212289731197907 0.5838813299781105
Ni 8.027742303923214 2.885941380905437 11.78004575458096 -2.0046760222284896 0.479705886309761 -0.2926033668288767
Ni -0.035428689727357014 6.556921552282466 8.865710426886162 -0.3170357888396282 -1.2295871494621855 0.03397121473912214
Ni 2.360812036818291 6.65660945448984 8.69000694518714 1.1833543437468912 0.5642982656398604 -0.17447608896612532
Ni 1.2204499397484954 7.863879569464023 2.5190167101061016 0.1557782554463059 -0.6045884806184749 2.2454055830062103
Ni 8.23931655437125 8.138830708701548 7.404099960588743 0.05486888412373776 0.17345124724603678 -0.39271492484049786
Ni 2.2719651595818546 2.277633309693563 7.73831261813821 -3.2621128469130913 0.5250557751994699 1.1660197091231854
Ni 4.318396644006904 2.9700647997154497 7.934448038354792 1.135663208318515 1.1700895083171847 1.1661570060319981
Ni 0.4831923706716524 7.74811356507894 11.575507164247313 0.9853120374250516 -0.0871555120715854 -1.6851735170159237
Ni 3.091159598946654 2.6149891307434867 12.743512040640212 0.8929569834303976 1.0011569748771079 0.07163221962500566
P 4.504968665968666 2.5516856160654764 4.665698325867727 0.11009412314562976 -0.3470606173364926 -0.6460868569725776
Ni 5.683714595105613 3.3412644296847964 2.751678680193036 -0.8224791891248093 0.09230723147585393 0.20407102901442276
P 2.1468806430390113 0.6572394318040479 1.9005022999875787 0.9126989419440154 -0.640833064772806 -0.6379146055744304
Ni 8.902636865664071 5.480404103962834 2.2153166768149375 -1.295078546296776 0.7630939051879567 0.41183184817560686
P 3.554737235267336 8.162558062000883 7.571494741339226 0.4467003779180178 -0.08354542612282385 -0.4561468680428983
P 6.645658368351686 5.451137005246878 2.278824721828694 0.25764150604171115 -0.5813392802825471 0.12709657124089724
P 8.212837671891474 0.9188181392246294 8.629854848597128 -1.7467054149821337 -2.0188075765338653 1.1537069531941033
Ni 4.168988609508963 5.061162774502989 13.264073846287825 0.6065872562160586 -1.4236671287021676 -1.3697081579872088
