# total energy = -340888.30192829773 ev
CRYSTAL
PRIMVEC
9.07534625487117 0.00000000000000 0.00000000000000
0.00000000000000 9.07534625487117 0.00000000000000
0.00000000000000 0.00000000000000 13.28268659406563
PRIMCOORD
 96 1
Ni 6.315224900498085 2.229540315671932 11.22652640583473 1.906684595883665 0.2423519268724923 0.06355329927161313
Ni 4.65168670501792 0.6907826860577646 6.069895602727085 0.6323039442558723 -0.48521447483281605 -0.24736686358858045
Ni 3.223853402600121 1.803906576082183 4.653442784519212 0.036060750278299185 0.05528334595333704 -0.8966254334209203
Ni 3.8272459493827147 4.263860857946954 4.421992413783492 -1.1064153671969914 0.6339707904353339 0.7582226931385845
Ni 4.1104330540769265 3.1371021677016473 2.054220961553751 -0.26155549638413667 -1.0823436709597682 0.8022543774375023
Ni 5.63785013100471 4.810405435757475 2.8214416590202283 -0.6785326362061088 0.0960229897645443 -1.2401163311282837
Ni 5.695496730447655 3.462389803695579 0.16121082082252589 0.1763499089500705 -1.0472218875559707 -0.0737513228505375
Ni 5.587481959262214 7.993065841683867 12.65251650542714 -0.5722488879455048 1.320749468700319 -0.7837144096517857
Ni 2.09856491844892 6.773584338701068 0.13277140824784792 -1.233277196719263 -1.4926531689535776 0.566662909217295
Ni 0.5536233478932505 0.384170297597475 0.13926754110069103 0.7971499663314013 -0.7040770603341164 -0.35027218229525486
Ni 8.675150715886135 0.26344641150965675 6.470381557830626 -1.2592893045123086 -0.08563701854452993 1.1772911682719467
Ni 8.88882066822944 2.4102032336679478 1.2284878766111342 0.14364753362104293 1.3430077658778872 0.44959878251173535
Ni 7.071409976912513 0.8833297699811316 4.666248098091945 -0.3087005295010554 0.7831207419318449 -0.8761172861652395
Ni 1.0077718254316346 7.344387317064326 2.534801385074121 0.5884278116982125 -0.1321801564113917 -0.2985253887402665
Ni 7.897493370220762 4.067434063497475 3.696717966730316 0.5919075427166968 -0.4416417324481878 1.0274002248443532
Ni 7.921125571881566 4.157624854628454 12.563615320999695 0.14318293527979856 -0.29583498639229694 -0.7381364639116706
Ni 8.41219255800526 7.603306945859541 9.189746444723273 -0.26981387973818693 -1.5846855495014904 -0.4960771285789327
Ni 7.173344266103815 0.5889355201905578 0.2553557403189476 -0.7842222025261397 0.5873926855654787 0.014637804517832856
Ni 2.1274517455942115 6.570623294944454 8.700744099873706 -0.3601930409533926 0.41100112474419537 0.3791297299568955
Ni 0.25294714342156766 5.063589445716426 1.9179137984030423 0.705713567496275 -0.9663072141877745 -1.2955670558974202
Ni 6.607786837878782 1.8802665395130604 6.953871537361922 0.5185043472341975 0.3779907312564458 0.5011784543612402
Ni 3.497574921145247 4.240509992020207 13.18829953764266 0.09576947899284151 0.6698736749795303 0.045922730674043497
Ni 6.299506400775923 5.876921977529503 4.960326525832674 1.1096292461485988 -0.323443749248501 -0.3285980397559309
Ni 5.578361236271005 3.490478000369998 9.013817227336425 -0.5168112758024905 -1.035939372663616 0.28036260178831074
P 0.2990417346102733 5.90020024068617 12.387221445884338 1.3074522373707806 -1.357353750186914 -1.3608897883646305
P 4.063241253525397 6.30074064786727 12.577734744710861 1.0343877119057798 0.3078433237070827 -0.17464192512002827
P 2.3214100458609943 8.663525197327191 1.1613920266423723 0.5840733913842586 0.6712954950277213 1.4814632137750292
P 6.392256439552196 8.294830180172113 5.829505108390728 1.4919993374196625 -0.3127461603253388 -0.056902626724314904
P 5.060313245716599 1.3179308592102967 12.747487281433214 -0.843367088317412 0.18289696603996888 0.20966163572832278
P 4.243786192020035 6.471656643980143 8.033766954590309 -0.3853561704825815 -0.05196096644832342 1.4064517932651455
P 4.994653115526154 1.0301879306936108 3.3482201326766665 -0.25768264369229166 1.5822589423378686 1.7875679575244503
P 0.1574327541745256 5.922761551488305 4.043674806989033 0.4324068441134812 -0.5021526453490514 0.23851147008047954
Ni 0.8627768333063148 0.09800194165688318 4.486678759320248 1.3149917402809355 0.8570597553131563 -0.3599292457690446
Ni 2.332191557217767 6.37981413982986 4.45921040879538 -0.6473569819342528 0.6684883645962293 0.05088033178963495
Ni 6.098777892199246 6.176481006876591 9.393848259504756 0.37487121179085764 0.05160152622637564 -1.7056724083002237
Ni 8.608002228909065 2.701912088500214 10.077720069385599 -0.10926339971421827 0.3802694999882935 1.4303856783729236
Ni 2.7040266441787733 5.4034067110724715 6.473556113952342 0.8164435244536907 1.649581478843927 2.3436965428693246
Ni 1.0576227024373168 -0.05063952459566822 8.514148628027586 0.33217135892948596 0.6838262805048804 -0.10541163006829589
Ni 1.7554351517080071 1.1826718985526077 11.205513349104534 -1.2512273534397804 0.21237903465948588 -0.002322734595905677
Ni 4.312586392016407 6.8603900256771 1.42294804352609 0.10627886316459761 0.07724930870146696 0.958314425790285
Ni 5.87113190661568 8.39420522171812 7.969292972156035 -0.055761056920703975 -0.29317569439257896 0.8162391217523685
Ni 5.72006369277323 3.029032944438647 4.318347421822198 -0.25135233059888973 -1.1453012456289116 1.6693792302961445
Ni 0.8440616542491298 7.3530724234350595 6.334579891466594 0.7186053358572785 -0.5605305710673121 0.31537511330775364
Ni 5.278765905538877 4.960956354863112 6.953672787278831 0.6776129526053168 -0.42162620855820937 0.17559349040002015
Ni 0.9995949384514563 7.575436557495358 10.867668156490767 -0.3331812882512391 -1.3615423343469648 1.517824783123199
Ni 4.475379953226661 0.5311854618002507 10.590060574677146 1.0648228884671855 -0.568292217290602 -0.9084748765603385
Ni 8.169735607325523 7.729127546406923 4.514266904415747 -0.8814734082708303 -0.6436206548202722 0.4674674352620401
Ni 7.494684126474685 6.849254575816191 7.123810118682603 -0.055525286760814044 -0.6303938717173531 -0.9416940436247846
Ni 2.5819723123292517 5.25141281191151 2.3702027374927708 1.0259496084407558 0.009889234089253938 -0.2534562643157699
Ni 2.775113831432643 5.525461042921993 11.060227038364271 -1.4773988138976686 0.21332288662999388 1.012687601224527
Ni 1.4750341783155878 3.3037164496873235 3.928288132036667 -0.9713753727393012 0.985239275205587 -0.280371086428743
Ni 1.8753023251088898 1.4686905112799111 2.455543663582455 -0.33781981546451495 -0.7282384880716684 -0.2191184102658484
Ni 1.1266316353976675 3.7290416275042353 8.093712339240888 0.27107372028721705 -0.6876600524286738 -0.20027479519678412
Ni 3.9967643421715615 2.9841190557983555 7.028188640349694 0.16700343473816398 -0.3446941739868451 -0.6412886642529859
Ni 4.5768241737199284 7.147488604609333 5.990385586609394 -1.2349139609917377 0.7702755105380605 -0.5687555300802656
Ni 8.422874240553174 7.271194649478157 0.2942835305662028 0.068979612493507 1.146840307981257 1.0501449747400367
P 0.08388161041109021 5.708619681139483 8.112626268381165 1.1995965166373663 2.767537499690666 0.0014166778418685279
P 8.80581755133631 1.916068780508403 8.093486363119016 1.6082250273843268 0.5076828311386611 -2.467844058784227
P 1.8430213184623925 3.100582974351772 10.354836674966558 0.4620123256847398 1.8557554131339653 -1.131698310133496
P 4.406852013618085 6.325961035123558 3.8549411835640797 -0.5455958041343507 -0.06060141573214079 -1.0069242163781884
P 6.965863699909766 4.49550907123114 10.469692442162717 1.7629259906060541 -0.6725715335266675 -0.4447609948034598
P 6.373751808528241 8.387398712023188 10.421569511084922 -0.43424801108727795 -1.0749844023812194 -0.42824294254377865
P 2.6110587970922614 8.761221299815116 5.815745068391454 -0.20346604844057214 -0.15087876126215952 -0.22215154066521742
P 7.313195351969017 4.187065277895601 1.478084402193543 -0.4581513000674367 0.2848805442633223 -0.2247990055903935
Ni 2.8274422779672803 1.7780509145877015 0.1764592176084256 0.7215885868553186 -0.2956079579831554 -0.43517335111502475
Ni 1.7594101533698476 1.640305309054797 6.66296766574291 0.1051617188410189 -1.2949744166187438 0.8749276367325125
Ni 7.561542202371438 0.6583083745359309 9.027658037917412 -1.587556443291382 -0.007426631481374306 0.44918303513055546
Ni 2.874997092369205 1.9743869555745803 8.930588134321422 0.4827685843954847 -1.4154102880100141 -0.5219658234202366
Ni 6.653345076103528 2.177347999331193 2.354476069958974 0.5051639213715493 -0.5912835359794527 -0.6378220458606242
Ni 4.311551802542778 7.273427184658095 10.37215788083822 -0.1098598956476366 -0.46882112107645707 0.010792976850445928
Ni 7.548464628410908 6.693902798539063 11.286325677410524 0.07031710035800794 -1.3528682036117345 0.4583770429249977
Ni 7.641269119264741 4.283391003098278 8.202550244332103 -0.451435578610158 -0.8996346525608894 -0.11825840412397699
Ni 3.005173859121345 8.624628263257218 12.337663702562851 1.3068886515578266 -0.25993390162031366 0.036533576149659665
Ni 0.554274050220086 4.959867313311922 10.113450615145487 -0.5320975125375997 0.9708215571183603 1.130010638018428
Ni 8.755086365743416 2.669794438086395 5.905920431433791 0.48459509608126217 -1.1653231972767932 -0.6917722748248345
Ni 3.981227349374597 2.591710158866135 11.082422612712133 -1.5103014781629602 2.014356482741047 0.996964019841683
Ni 1.3342392564393541 3.718741109499238 12.281637052427303 -1.2363368094811933 0.14893037928653707 1.317280793425428
Ni 3.5323334973206997 8.665204136385274 7.880843739972332 -1.5068523432720953 -0.07658442142395844 1.0118293669892895
Ni 5.853625563680316 8.008448553594414 3.466807682254902 -0.8931991813481908 0.23558581179325233 0.8530112962753955
Ni 3.171797216453281 8.553268815615553 3.548881483691019 0.7145306515672727 -0.023813557479829953 -0.40907099760101806
Ni 3.3819822358327816 4.4415561377159785 9.161666415860484 0.16597679324586254 -0.06721814971771004 -1.0002072093693288
Ni 5.063308109982369 4.735325096149245 11.206111414423063 -0.6226422527963922 0.35486622942384044 0.8353257060701742
Ni 8.492137283208804 9.020658223347144 2.326808061816388 -0.7330927308401761 1.0645012434617087 0.14633047976984478
Ni 4.672305891720435 0.22938754453084295 1.441968154217608 -0.2447314828482624 0.2594795876917144 -1.0775794168019053
Ni 6.220741470586169 5.9427273132601055 0.06816038808504923 0.5738195748667343 -1.4959176986374625 1.008406971571302
Ni 8.263674516461844 9.022627573485545 11.172280338635371 0.1632686502860801 1.643150892727235 1.5072356947534429
Ni -0.07338506492687905 4.925825689491002 6.120343637516669 0.4087498668161735 1.3893688696409299 -1.3513044586690404
Ni 7.473620247805435 6.297645954792641 2.5942684989768034 0.38387135840693887 -0.3876799335197517 0.3332149697026519
P 8.843443936929894 1.8437654968557051 3.59538446546142 -0.045292039068580064 -0.14530640938070458 -0.38252872833611545
P 2.001340733966511 3.456572506742977 1.3372341207051242 -0.5161268481409563 -0.18220585351021523 0.3903952755683857
P 5.055040469539591 1.3993730165467233 8.378651893297887 -0.7805889766489266 0.13277588101386165 0.19403807025845293
P 8.543013674341855 1.9557552697029863 12.343308567936516 0.05633852669072877 -0.21956218267148636 -0.999207564460221
P 6.666694910451854 7.851853453879677 1.5106794158206336 -0.9575065851770092 1.0389964143223849 -2.2505655299405953
P 2.093237690194353 3.603520513383429 5.99073044976727 -0.29352202198840416 -1.8671765104867133 -1.34891564672189
P 6.95456489381618 3.807162208109535 6.001410317245931 -0.8078856075813505 1.3284121274518992 -0.7016872199457013
P 2.5780154613599313 8.583163006195694 10.069976983956643 0.5043499101106862 0.49406883989965233 -1.2965826416461284
