# total energy = -381175.79813114944 ev
CRYSTAL
PRIMVEC
9.12147545636002 0.00000000000000 0.00000000000000
0.00000000000000 9.12147545636002 0.00000000000000
0.00000000000000 0.00000000000000 13.35020134325384
PRIMCOORD
 96 1
Ni 8.165790848735933 1.8773820187358399 6.193585622760903 -1.2879702173867689 -0.3333468672948259 1.2117879164972356
Ni 2.0366429751401145 8.805917732959253 4.70893601449191 -0.460809049405258 -0.2919284522490392 -0.03174001141575824
Ni 3.8875544729432394 1.3154261766880428 4.909242696997192 -0.7430153892705268 1.0150105929307487 -1.3941138405250828
Ni 8.792007483330586 3.6964230823077773 11.102347618016829 0.21365713004096107 -0.7558876172475046 0.9472116310089042
Ni 7.540057652325095 3.77960181434962 8.944661755271882 -0.27432642289655984 -0.3618830270613058 0.4989400519490247
Ni 8.21667043721377 1.253637303911264 8.970627858627898 -0.5814189844805471 -0.3991059159685062 -0.5902777204227576
Ni 3.3255803879451094 5.977640171082932 9.154366293641042 -0.952843889594017 -1.4940384793368784 1.1008409584330072
Ni 0.3167696774290952 2.724447810057887 7.723718554799326 2.4329261638611195 0.579775535339853 0.6080589556655785
Ni 4.452684588348922 7.746458392389008 8.467685224463763 1.1291881421171328 -0.5209021580424126 -0.44276221920587616
Ni 1.8740800447256254 4.681250513067038 10.931331816565692 0.4213377307835131 -0.8613527262615553 -0.3131513661835575
Ni 4.4854306841960785 4.049633965173912 2.6939373877740005 -0.5797166570774597 -0.7634186355172272 -0.38362093295902966
Ni 5.833411405752784 3.135808097109432 4.795538948311196 -1.2489673537610102 -0.7639621667255231 0.2977208905611001
Ni 6.960944315489415 1.9968459789893784 1.7438837567913728 -1.9653821097248731 1.8253336063089984 3.098641593697902
Ni 8.203061196265594 4.478179111438839 4.953151654152914 -0.8415601170156602 -1.5189702095815518 1.7775185437082486
Ni 6.7752128381524255 0.0033740336640287008 3.5030395994537464 -0.7518232173701439 -0.6083410056823716 -0.8098856687305148
Ni -0.28806713152317703 5.588399461309759 3.1327852402393073 -0.0018121135080742985 -1.008986755334172 -0.8245689817743026
Ni 5.853661080622056 4.846504278655598 0.947674750259247 0.25723552885254414 -0.3094957717088412 -1.1206500227391345
Ni 3.860144440068391 1.2375196572923437 10.028430739307936 -0.9398140529932524 -1.3831182607455277 0.48958843553079556
Ni 1.3948833468620194 1.9531358699922832 9.87535687950899 -0.9563249061640821 -0.9435537225413427 -0.025623871215691357
Ni 0.2565588198560932 1.5432715048680181 12.400694744603419 0.8656711511312509 0.4620889445589461 0.8613370425322714
Ni 1.5264058972854577 1.979259774868677 5.401171149897974 0.1154157924688593 0.42340849726961266 1.1482942668189644
Ni 8.49226668788953 0.30120661650028807 1.7900885892464615 0.4347982271637931 -1.0280568845917457 -0.24888278601247457
Ni 0.627625902507853 1.2331595921628336 3.343317096406055 1.2521673487555467 -0.2156728749194092 -0.13533541421092174
Ni 6.9240023410657425 8.146781694489283 11.798466677548719 0.761266879281547 0.35466028406062144 -0.23179626284383303
P 1.082509308315583 4.082097295290912 13.284424305356564 -0.6805951751620923 -0.9823154166905728 -0.53113849105844
Ni 5.28534757038332 5.490799677029935 4.42261473331557 0.04384347954751159 0.09875915774878476 2.1550215366949983
P 7.176822268251154 6.013113588004823 12.607422033478286 0.9009855101618289 0.364190849258876 0.5095849332573804
Ni 5.74978572142779 0.4626667605671667 8.612869008243827 0.5605148873380282 0.5586793767911863 0.1948363977900322
P 6.461826315862526 2.292071644223098 7.710569036199532 0.8100635890692759 0.13544108655085063 -0.5431278022098324
P 0.408586446453461 4.750099407622564 9.435908833977738 0.27589505293526034 0.7063262613796094 -1.7463022660064442
P 1.3884070994939188 8.737187417580891 1.383641128719507 0.5384201123215179 0.887715018305168 -1.141035785484338
Ni 0.8740781278796429 0.025017469938717268 7.123881226385723 -0.04722962241092511 0.6466766680377766 -1.0318983698250226
Ni 7.891052016725809 5.98995416255749 10.357299141397663 0.08169346051574963 0.3211824640181501 0.012409172297630241
Ni 7.517445515387742 3.2677684783408543 13.204176303285667 -0.417412684697494 -1.0996721349358867 -0.15203781456726717
Ni 2.552754283001893 2.480557807060322 2.994944243968146 1.5787943808280358 -0.011240605910825803 -0.9358519830217109
Ni 3.092298660565996 6.661449799877849 12.130513001586397 0.13857937506951618 -0.5265485576949125 -0.5634739699663521
Ni 4.984758477751794 6.566285449467437 2.4010066856921317 -0.3267573870027663 0.7216261249614734 -1.3907847761518501
Ni 3.136638151349569 3.5953206515640788 0.20359315000771397 0.7771131022851843 2.9382129839637785 0.670561187964858
Ni 6.641355190086404 6.406878549460501 8.125786795098922 0.28130182577312846 1.166384805772088 -0.7176301164282028
Ni 2.210726328689689 8.723532569256882 8.9283872192801 0.3095147978722347 0.4994241906742947 0.6846809151956919
Ni 4.1278141288246015 5.057657307281174 6.958338310034392 0.2563770375069907 2.329432576751143 0.20801612970509983
Ni 4.503700998954255 8.02605897066279 4.209945715517349 2.1101023075848047 1.8567437451891635 -0.31470431249297415
Ni 8.589145875631214 -0.09335282544237722 4.931417003126562 1.3148068779636388 -0.6665860053671938 0.6324731228438849
Ni 7.786529032794734 2.0834726286440977 4.0658437386920125 -0.1011698240728064 0.3284250045131763 -1.181509063008036
Ni 9.175747943578457 8.25130467842036 12.943527413964985 -0.0021584411038995084 0.09171459219717752 0.21257932359575
Ni 4.610349286599087 0.2208892912181255 12.545851163957982 -0.24160656406603556 0.07562025773847621 -0.9847147701606849
Ni 2.699856313009438 6.647165569767362 3.045194450659506 0.9351305314746541 0.21341981721917436 -0.03222209325849935
Ni 7.107416963710483 0.7340726055515095 13.474891652599917 -0.5648785636233625 -1.4273101247713933 -3.83862051013495
Ni 7.3124038751236125 7.286489764176045 1.1204692393678182 0.34026904833595595 0.22546774952264395 0.7873476355289989
Ni -0.03674859915014552 7.020170053744452 8.339190091648032 -1.1788713682748728 1.2561219625279205 2.250167780281544
Ni 5.9358911792466 0.7583156622486047 5.574536643351958 1.4569503162353294 -0.5464044160785752 1.3388996572467844
Ni 2.305352512065287 1.4827961245151924 0.5961148543982192 -0.803593665074216 -1.492657796939268 1.0790089501595803
Ni 3.2959355936545083 0.21560978139184866 2.606666761972538 -0.6912511122140418 0.5282786530121417 0.7518995791340342
Ni 6.447259320021882 4.43420447966192 6.743947157724766 0.3917121946075963 -0.3212549691272984 0.14575300999981997
Ni 7.602822522944672 1.646289445396648 11.109476050859323 -1.846561148229207 -0.17669212278083765 0.35522772652831724
Ni 7.0807640132744405 7.215168949850442 5.411250379956778 -0.7522603049075625 -0.7797348561787475 -0.5200143561208206
P 2.7268923654024664 1.958353353787429 7.664510147347105 -1.7030781652104863 -2.679851311926591 -1.7744285919290153
Ni 2.545156094188333 2.3073592366018816 11.871532430073643 0.27681499364636847 0.4481417383502347 -1.7786696265935562
P 6.889140062979997 6.36858659671221 3.245473768739289 0.6921178310897113 0.6081047213018496 0.07362970967100867
Ni 1.1798628127659163 5.419077517797013 4.905611437733472 1.5117500376840287 1.6984041567735846 0.8581244491322447
P 7.2122318348468815 8.054308179252942 9.603760395693671 -0.015255640607489854 0.4591311474822028 -0.8513732464513402
P 5.037079259305913 1.7291306828573365 2.9423580274866863 0.24426277074195993 -0.21677382129307182 1.4044265353050007
P 0.1092095978715405 7.085306507907277 6.031593696691825 0.10775287660696281 0.5511797259800314 0.1897391857727829
Ni 2.0014067165725478 9.159602932534039 11.722744751455357 1.2300602324438623 -0.9597406167138504 -0.21690520466461352
Ni 5.549925079058142 6.520422672331086 10.661190208039406 -1.199729956891437 1.243326353425149 0.6119940290539266
Ni 3.562063753107607 8.913450803695222 6.7859342200629404 -0.5783439450996491 0.9350333437751573 -0.9519951684404766
Ni 0.6420560762210008 7.520382630391303 2.8669690352368966 -1.0613436716693336 1.88969988840021 1.646366314340739
Ni 4.660015718879802 2.0614625090677223 0.8506642132751678 0.2160644539308731 -0.5480033851345788 0.5900314087399064
Ni 5.347355358564092 8.84391779850222 1.5296257780191755 0.9029853142006771 0.7945814342732768 0.4237463402250057
Ni 5.3423932760736035 7.031663112454039 13.194884256533715 -0.8199736490941362 -0.27783237916728926 -0.398149722702824
Ni 3.371023577223809 7.861626137839202 0.8379589105159747 -0.7102747045043961 1.9191037954836239 -0.23528447850274964
Ni 1.3848770886045458 6.528568149654626 0.76048474904316 0.14010969567111353 1.1407833031538999 0.6418730760015462
Ni 5.440093396580258 4.873914311530445 9.226737901905807 -1.0705009126885692 -2.2847583737722204 -0.949020916303501
Ni 1.868123721442006 4.724905893213135 2.1143251062467217 -0.2562248281998426 -1.7952460428949986 0.19038376133531726
Ni 7.652625777352882 8.596516027565615 7.341115542504698 -0.5164567206765492 0.671478557572805 -0.3947576663021395
Ni 4.019870591706149 4.297300258890342 11.130490105347533 1.5742463564460374 -0.3147325946277483 0.4792019500901489
Ni 1.8818971489431775 6.795672306950523 7.36625341591561 1.8915410553740066 -0.4170002797504238 -1.2124288925153441
Ni 4.564623331590232 2.8756453824151182 6.772556664583987 -0.43706594015204725 -1.6643694357863785 0.4767781711400047
Ni 3.142083672023873 6.837558120914351 5.281993603964658 -0.9410571813717342 -2.19074804356233 2.3395593807724997
Ni 3.282563511060656 3.977729376437664 4.842652279692852 0.30290346320330414 -0.08846651757352507 -0.7752338829846004
Ni 3.0884676409961336 3.3538387180104268 9.008835893804658 1.0729838270114231 2.490189773469279 1.3234822942504496
Ni 6.447104254944055 4.347003177071722 11.586199004657816 -1.250970243123652 0.04583325628403074 -1.3622316471045057
Ni 6.920353750999208 4.038514886946145 3.0871003318686996 0.2503819962658204 1.0518799551532725 -2.1894030994986617
Ni 5.645180644220218 2.609033784778203 10.132455690694929 0.2163434186238726 0.15964802281435733 -0.9290593855799096
Ni 9.083520708171607 8.749574380856778 10.54750014156616 -0.5353823539364586 0.64711941200215 -0.30228768399617617
Ni 1.4465565036793284 6.998743708578723 10.372905985407268 0.13524388293837997 -0.6430742953984989 -0.31174908651939215
Ni 2.0321004805072778 4.130504963998671 6.705499227751132 -0.7812448650653707 -0.17026256510541002 1.4897172262537053
Ni 0.45835503925603843 5.870663510332111 12.210734551379314 -1.7722932907535673 0.6947046179802809 -0.4679184067565297
P 5.4642561842958886 2.3248268615454206 12.275523477338302 0.9266371492916623 0.17254544760231577 -0.8459279070660527
Ni 8.808198101750838 5.0189001592994 7.361808521067053 0.45387529839990215 -0.19872107755641905 -1.1606964971380591
P 3.508949403214017 5.820185266761593 0.8824972494581735 1.0084326826029149 -2.238898635125628 0.08946024894536204
Ni 8.551820799250555 5.1352901824218815 0.9411036395494166 -0.925875074314657 0.08018088052596513 -0.35935923219818755
P 1.02389470889669 3.557493894049272 3.882291381772262 -1.3158137219615984 -0.4376459810252334 0.30564014540817686
P 3.752912378012913 7.9882230916728165 10.442660642446812 -0.7000342577233105 0.6788205997601728 1.5722622361364729
P 5.11728439044353 7.052934392541941 6.397602921363851 -0.341402904830083 -0.2610291915670214 -0.07047265209926573
Ni -0.025157028508762252 2.7737676262822806 1.3911180019133549 2.0322122799755453 -0.010418624230162703 0.980004252058893
