# total energy = -340875.9813075737 ev
CRYSTAL
PRIMVEC
9.16583974902316 0.00000000000000 0.00000000000000

0.00000000000000 9.16583974902316 0.00000000000000

0.00000000000000 0.00000000000000 13.41513296997313

PRIMCOORD
 96 1
Ni 8.765411752789571 8.848005135190927 7.856934958493547 -0.49960159679242344 -0.8050345112858007 0.5020986521826643
Ni 4.1310256643575425 2.0550087797726064 6.425875140902957 1.2279588698301434 0.8545321037952962 0.7651520732685662
Ni 7.010034275946751 1.6254333660555609 3.0103156827541273 1.1675019500956667 0.11153625490879501 -0.3360928054710792
Ni 4.8692790648829805 7.132379905543164 6.647037689339566 0.2698989832528255 -0.2029063192823602 1.006387627148428
Ni 0.9397460567599274 8.133060465266604 3.9062187780180606 0.10024859781011766 0.8333570123795777 -0.6830528926739656
Ni 7.769992385109012 3.2842853840071755 4.617193722726756 0.6232017248442879 -0.10211650425679188 -0.17875234774397603
Ni 7.4901684619782865 8.32426904925003 3.7719997195499664 0.19075914239686503 0.023600670138075486 1.3765208100336679
Ni 6.2986551177030545 6.266235542344759 5.103532265716175 1.9857141364140058 0.2847049379174064 -0.529196793951037
Ni 1.7863488495133555 1.6001998090972953 7.090273870688504 -0.6547383619999886 0.1708606037007251 0.045873879713979056
Ni 3.6344571275718587 8.165855840056533 9.04987542402501 -0.7239820267881596 -1.1894504293422998 -1.412679262232096
Ni 7.266265327442686 4.338521945658383 8.44415548402919 -1.2411740829688367 -0.31505938183954774 0.36869105112207473
Ni 0.06848623837139975 5.054144887727607 9.553868291045418 1.7007024658894583 -0.18988033933633752 0.7268305519805482
Ni 4.692240869224101 1.214849572395735 2.4890837042454863 -0.6265238472389856 0.23291443560867628 1.6830014490652694
Ni 0.5796110453370407 3.687646495907788 2.932977076307794 -1.2558949341187788 1.5321846513892967 1.2428756390409756
Ni 2.800530691256237 1.3287442977002781 9.097230735330813 1.1764951547332128 -0.8272023056320915 0.7466642988770237
Ni 5.537221308333644 4.0928132782482045 5.684770247616997 -0.25706223649947335 -0.11471542396772501 -0.7019145054651589
Ni 1.5662128751338926 5.986329126655871 4.968240803991954 0.048306143304555516 -0.4462545486298508 -0.837478490747119
Ni 3.508857624847881 3.013489813075467 4.246439169316275 0.4685619538777995 0.877862036770488 0.2735165254007547
Ni 4.9086005176076295 4.024931068719358 7.966067113440111 0.3034786189804838 0.8418791909179758 -1.4610463406815741
Ni 2.593621023702338 0.9789758510866169 4.977590877167807 -1.6566892935333015 1.1116092526931047 -0.9633447891253408
Ni 8.774265954032465 1.4253705808292407 6.19795278561683 0.5881725011542966 -1.0801950000478815 -1.5464033660918401
Ni 2.1852736949527256 8.327944551008208 12.844479937679763 2.1192523495151887 -0.8608822143830399 -0.6308078193263201
Ni 5.286462263195894 8.950809194342364 4.935869807584577 0.49723181100866626 0.6674210996739797 -0.05145831578029202
Ni 4.113188940114613 7.611395859119593 3.0128509540416886 -0.5567315090361961 0.11905467477302721 -0.4340389804002654
P 0.31850834998955496 1.5261031601867914 4.066167265377382 -0.49983993805547455 0.3384116834122429 0.8366757923401655
P 7.922530290993302 4.65736484880049 6.240438286239042 -0.8834611281248205 0.2866623187540934 -0.03898383746236511
P 5.276572322056059 2.060205810936913 8.502041428676566 -0.4492578542325488 -0.12254726130731797 1.1612626540541744
P 5.343253806571635 6.558699158554107 12.711093137465141 0.7045187758572253 -0.9929147894729737 0.02492118872171192
P 7.749790874198726 8.925364823068792 11.106911687560482 -2.5353069775228914 -0.07244494533428814 1.2182691533462053
P 0.6497618002153859 1.168360432950649 9.094145513655494 0.05304622909270219 3.3951574082073077 -1.5998925962592316
P 3.29161805584394 4.530436299306099 6.09751351313275 -0.24191329667317693 -0.44761800463628065 0.2361095455072063
P 3.938176395050639 3.4349442927332956 2.143470132811332 1.055706270877898 -1.1811159413346757 -1.0916176400625266
Ni 1.2818335296245777 8.177597280835151 6.2300680550938985 1.2149706851005915 1.7237169245067605 0.6329413207295551
Ni 7.865353782346132 3.5524961881164243 12.863891353199637 -0.88364444778022 -1.290941641310267 1.135628755536154
Ni 0.4667218126581142 5.3708338185176645 7.339794610869821 -0.25553962920735995 -0.21082120325406273 -1.4706895201982928
Ni 3.5372442306959546 9.034777452713113 6.917218232420967 -1.2499353741012342 0.02247272718121936 -0.11303597938277307
Ni 4.566824683296042 8.60383632886647 12.840281066469235 0.8862152938311898 1.625436763276923 0.4765791677553211
Ni 5.798695220192867 2.9907035353427216 0.9566194512403019 -0.6134287046179242 0.5511946383783668 0.5079119164303317
Ni 5.76011620049169 0.13516588971901666 7.726137508021282 0.06012293343382548 -1.097177393538491 0.2698784144275352
Ni 0.5112852091620702 0.58813344317932 12.808715747379924 -1.9880047322203958 -1.2614300050043952 0.06764829527659316
Ni 1.5405393578654212 3.06014393763688 10.205669490615405 -1.530669757406667 0.2801209180911498 0.42278500475300085
Ni -0.16081649238799808 2.962179441897708 7.993823109510223 1.5746423063328752 -0.24123401121796523 0.13557375547397296
Ni 1.2624844418153158 3.5475558004664047 5.53213243407893 -0.08671302521752808 -0.39658546353949764 -0.10992005946161068
Ni 7.68761898286276 5.879996219182991 12.187434044578529 0.3590584131283171 0.501512440661891 -1.5374764959158556
Ni 2.2419369165713223 4.052630236582735 7.980206337909352 0.6969394208480707 -0.9241964010606535 -0.25152716561385713
Ni 3.1732962299179506 1.7960463080174762 0.807924781982455 0.8907597186687628 -0.8538530754504003 -2.1767525006141866
Ni 3.8244924840614036 5.625515843088083 9.135007744049844 -0.4251028542529001 1.215797551877261 0.5889502598605857
Ni 2.666911078710798 6.490835280704852 7.054924892931422 0.08351251600235941 -0.3169062052402994 1.2750625081861653
Ni 8.639601435750286 7.71583143775471 1.731062337032111 -0.5870625559195696 -2.520773302683091 0.06660674138595625
Ni 0.5162255968120901 4.678290461054656 12.068803329851416 2.439053102694464 -0.9251040004765874 -2.486203535128021
Ni 5.970087258537437 2.798871674253169 11.086936572893155 0.7837473197722503 -0.14283995011808304 -1.543296702142058
Ni 1.3260953699992468 8.951221657133182 1.4731026081506582 0.5622470395377865 0.6441428458723294 1.3504588228392935
Ni 3.8105054125327755 3.3221861315634515 9.812915088526669 0.842113161305653 0.17016074942022308 1.624438661029712
Ni 6.7594310500855315 5.723113705235417 0.8307990517772413 1.4502759895389474 -0.8090469748793034 1.9856981955744057
Ni 7.133323987042148 6.423594679961723 7.502721996162827 -0.7413919947344909 1.3772934265336345 0.1791552396093495
Ni 4.538694720962254 5.690804119954674 1.1289748193474283 -0.6510971657029754 -0.6310171071236487 1.25017011581986
P 1.0818990661554009 2.517608714274479 12.637202719950045 0.004853214327243255 2.4402774620198686 -0.11702401749624362
P 2.613813368772828 5.0058959070416975 11.020477818284622 0.6178854548376971 -0.716038860681683 -0.4418772454977616
P 7.214569990993497 8.75272623051197 6.2547516616644065 0.6917329369464668 -0.5348298238670983 -1.6979907233852498
P 6.237134000992601 6.627974575731939 2.9272896727144033 -0.15113227203386229 0.803943335104151 -0.222946525762687
P 7.796289179483608 4.070430297466481 10.67352236790434 -0.6600818857000891 -0.30304307410496195 0.8034504546281324
P 3.4665756058691377 8.906382368851368 1.2902569363970608 0.7369928372255308 -1.1387225639701293 0.891786103050748
P 1.1599278603383698 6.3351993209695285 2.6220543753333714 -0.332095511386228 -0.29857681080349224 0.3650449697290552
P 4.950424244596575 2.001122807612184 12.67746183808582 -0.8768374521607157 -1.4378321073486398 0.23816359982275756
Ni 0.4388292455750421 8.711681599905681 10.260296062631339 0.8433280075493604 -0.31009123920099496 0.18351608768120653
Ni 4.116919436911567 5.782884146544843 4.516633461157369 0.12103056755247542 0.587936988104723 1.269657278010194
Ni 5.006693335103945 0.3685446694356759 10.310281053374604 0.9753225303125074 0.8872393642203301 0.3497137386886235
Ni 7.985472112872129 7.024626292901911 9.833453902341446 -1.640074824905072 0.31738083088387276 0.2024345218522643
Ni 5.919363501106621 5.201146626375141 10.569662404008408 -0.6775849275808589 0.9875506969475831 -0.2587159700528125
Ni 8.411087883797322 5.770785238014182 3.5863346354751333 -0.2861671242852297 -0.06942775577451914 -0.09449601159705662
Ni 1.921664142421046 1.8438186650339963 2.711520304413734 0.8399004699250502 -0.7805213566357849 1.0882800910488613
Ni 2.717341529268145 5.765909011242734 -0.1853277811703422 -1.5283377668393807 0.55210095224272 -0.9421414155748483
Ni 2.8108055976675033 4.936162197874068 2.9298249440019646 -1.7586965259057388 1.5807625602980002 -0.7574973849367858
Ni 2.01101274875202 3.6690765044811826 1.008244210723062 -0.7298811658814139 1.585666939578153 -1.412101535351755
Ni 6.830145504111329 2.3785812562494266 6.776990049382644 -1.3179510800195755 0.1931577245360286 0.41032749571593846
Ni 4.015591077967279 7.047650882469352 11.166206421784496 -0.40886273824495395 -0.5938127301592095 -0.7759561058626057
Ni 6.085998468597091 4.533552684836724 3.1936333952572165 -0.4115857936030718 -1.0335654731148005 -0.6047193497693844
Ni 6.034092317832595 8.513250334163041 1.848752636596159 -0.21866075390313952 0.5028021060075921 -0.5923238043185088
Ni 1.405993995500591 6.800329027255086 11.016842646221546 0.020900754708409165 -0.7824725668248846 -0.10653983013546812
Ni 7.31470679076431 1.5951127680105401 9.133411971341369 -0.08836675877086717 -0.49268198685445475 0.39810138596339184
Ni 6.830631293620514 0.9272713487976321 12.877212984759078 0.1657235395844759 0.9683849226524095 -0.1313561178481996
Ni 7.05515770526224 7.841999222546037 13.206273049521737 0.9678092526545978 0.6164415233023189 -0.5674712640512033
Ni 2.916606886432217 1.7392364329621441 11.802795077045136 0.6034543670140318 -1.1453531819127696 -0.8712427316817576
Ni 0.07610671757775712 2.161900803473039 1.2470161705756613 -0.7237285160164568 0.33271617568936246 -0.8047298355611883
Ni 4.0908792860512575 3.96815785702321 12.357094655785646 0.2670854250634303 0.467725316909117 0.21823292233710156
Ni 8.470693339990419 1.850005606896266 11.2304250451469 0.3530566870189274 0.7658413860261069 -1.2379090390643197
Ni 8.680242769405554 6.97665228740988 5.793795162237949 -1.7407329994487828 0.09013516352519961 -0.7744039308841373
Ni 9.300211007364187 5.305573039170461 0.7104414928325704 -0.35846011742268585 0.7433447475854876 2.8860548139029842
P 7.633558859746214 3.774364506217323 1.7720721374471748 1.589457774079153 0.22734542616133108 0.5310009370393114
P 5.502097810235544 2.067006864065512 4.500884715219958 0.2972802034792558 0.12360578447881938 1.061023312215437
P 0.42828944639367295 7.195376722460766 13.101380095480803 -1.2118794477697774 -1.0247473606025386 -0.12141211926161026
P 3.153223040764808 8.211474224721002 4.923072462061463 0.11930252911777518 -3.0021424356278876 0.1291431693572808
P 5.6910332659495735 7.556950770731619 9.320981716925802 0.4778269241194932 -1.1893023338002098 0.025177527706892126
P 7.955142348987312 0.4808197908482733 1.392960171310742 -0.7563856399298456 -0.5162145227587561 -0.5606280158771249
P 2.6000829407584867 8.847125214570514 10.796512356038408 0.9373167404926954 0.6901668780109275 0.030969451798320856
P 0.8083564930368444 7.034644555798891 8.639841580752941 0.21759683141499947 0.6835177481255261 0.012728760420578078
