# total energy = -340860.3168070996 ev
CRYSTAL
PRIMVEC
9.32085478183388 0.00000000000000 0.00000000000000

0.00000000000000 9.32085478183388 0.00000000000000

0.00000000000000 0.00000000000000 13.64201313965677

PRIMCOORD
 96 1
Ni 4.781645142663722 5.309764778502215 12.254115755053673 -0.31376380295657574 1.8198368448604851 -0.41677325134128224
Ni 2.095579833509725 7.900002378936559 10.404149767713735 2.692150955229551 -0.0643346575223279 0.4368707934221057
Ni 3.4667428280260206 3.5645651996837158 11.368803251713606 -2.0785250469991556 -1.1925470659897526 -0.4307626236418388
Ni 7.493902053948077 1.8715344454643692 5.253730595396493 -1.540578531879947 -2.6325985495872146 -0.7748158216105753
Ni 5.755618549428769 1.6587300083689112 0.8223967330981009 -0.15805676706783747 1.6702492916059233 -0.34728738863531805
Ni 2.2971526405101357 0.6531020464455318 8.991996449820684 -0.8919573385212897 -1.1394046776388185 -0.9486825591274759
Ni 6.113996097581862 7.022658274408322 11.427300936756358 2.342590968509972 0.1254423234669259 -0.3566734578359083
Ni 3.168177205449624 0.6838133310929773 6.45836067255247 0.6226072857933986 0.3814396090369947 3.8397453677680122
Ni 7.1507734243306675 3.8367341613230384 0.8671247192699714 -1.3641178083836247 -0.8267060827219633 -1.0205747172820874
Ni 5.50618315277021 0.8238890019596918 12.1923175553083 0.5239807969677363 -0.06299048478960764 0.313430330876557
Ni 7.460766414953976 0.27942524714056277 0.14726111787108978 2.0331275927009633 -0.11031703778971323 -0.9664367977871035
Ni 0.5282948679096862 3.5941775555442677 11.01727653187575 0.35504337843165307 0.428121843584882 0.3754090865721986
Ni 7.170692091146532 3.0470247341007224 3.29475068597967 -0.5217434229967853 0.28665871920966757 -1.714558912156576
Ni -0.11052483264817668 2.1888909114197 9.082825384083929 -0.1837765404314448 -0.8226776782888607 0.11154988175554982
Ni 2.0910778606168554 4.511004801219908 13.195783078906327 0.6650628838544481 0.5080638686271638 -0.4071125883230666
Ni 2.8609897921363654 7.421749316549105 7.878576529891343 0.8725514231908521 0.15614720874995044 1.2380257671478418
Ni 4.561402663397436 2.676269090705951 9.055323269761566 1.5604953254085319 -0.6527395864024048 0.1455997722514073
Ni 8.646257980845089 4.462247409496096 4.3559905962840375 1.3500764997992103 0.9095976773108722 0.7601566769365038
Ni 4.692015802419759 2.447143836766984 6.532996485683658 0.6949339603822677 0.2406621978748952 0.00594773294300266
Ni 2.4815843954401795 2.9384927002196175 5.743547110311677 -0.379602812938572 1.0538159958337205 -0.4853381448948738
Ni 8.478594443791387 0.21166822488916234 7.1729701080720325 3.472530901191465 -1.124311787861438 -0.6363349197921363
Ni 7.690655978990696 9.345555116015985 9.30716810739902 0.22904184002714745 -0.39931648931741553 1.6099654071142016
Ni 4.333945842476738 3.3022017773472894 1.878096327279235 -0.1845681830948047 0.006751974011852887 -0.057810483250564954
Ni 8.552434255918328 1.632221497173629 1.915338734920539 0.690425788099269 -0.19460782671899388 -1.8535681756746594
P 3.577493225361583 4.096226760365461 7.917060475398754 0.5600202070897968 1.7337485977111498 -2.736859096770203
P 4.5869511265430996 0.5531107118640879 8.305557433916276 -1.9292565676469096 0.08981069030624533 0.6445547365987674
P 2.7235165039439555 5.762786286808928 2.0710072638669255 0.8491456426724022 0.41119884257729833 0.6416835856985594
P 8.038472998597989 2.3741056181571993 13.124380670322832 -0.10520388493286396 0.08206627047413609 2.5230934661758355
P 2.0924946305541563 5.262591932103017 10.998382227007973 -1.1182583825785064 0.8452758753043508 0.3447934185688707
P 7.137351393345714 8.987103001024087 11.47091414868809 -0.16332932832068645 -0.8118196525284341 0.1548896821937655
P 1.4530187418148068 2.9218176908917837 0.7110041288633275 -0.45258126217882705 -0.8160545165453881 1.123344538852162
P 1.8270832886815633 1.7497667976953244 10.909668194710344 0.26694170039671444 -0.3153650860054246 0.8213831278471531
Ni 0.923238129641925 0.8307612682410846 0.1870238846640127 -1.3924968737469503 1.6191542727023212 1.7132931580702753
Ni 4.116713999327215 6.851788363285991 0.6407724196490765 -1.4724023891243416 -0.9333834668765604 0.6641012912721272
Ni 2.185386269995851 9.090331468495167 12.376443586199244 1.3248012701721894 1.690592888259282 -0.9752297134883849
Ni 2.1314464829750714 8.289614111694219 0.9505454380979088 0.36312718388105203 0.24199351509180902 -1.6290584191899105
Ni 2.1930014084088416 3.0229582868763143 9.03395987044385 -1.247841210576367 0.5362171911329282 0.25492693532402544
Ni 0.9230470521174865 6.066142828778564 0.9986279999305324 -0.8857445248423583 -0.7978878729386903 -0.3307464535575014
Ni 9.139219352186887 3.953468547472726 2.05092641417666 2.2851075295815226 -1.156277285024441 -0.5230554569399894
Ni 3.8547420528945167 5.407204995111034 6.150133051837877 0.43510418843998616 0.2404140864198311 0.5172589048628704
Ni 3.0052393418052064 7.98594998151451 2.9445465954451224 0.41229747495811575 -0.4514026684896935 1.9904542222021524
Ni 1.5457146433046378 5.753679811619832 5.225600255457195 1.2220448183385535 -1.143013220925683 3.618583444709574
Ni 1.7330545049480877 6.85262724022255 12.559082940741504 -0.18105528484553982 -0.8824398859491578 -0.44215132509475463
Ni 6.203028903115382 7.768755421784391 0.36901357562318304 -1.0959481491170804 -0.24095838895907531 -0.37257727355035836
Ni 9.236706173069958 9.356274099094247 11.953759596260465 0.08144432061942103 -0.6963074436910267 -0.27826406738806914
Ni 2.0342299668826698 3.934416720157973 3.1187002437313414 -1.4620012483956755 0.06684791086248487 -0.5587565098860248
Ni 8.898498954813697 7.027523760640367 11.263691971562693 -0.7697435492939905 -0.5211536119315864 -0.151549562076939
Ni 0.3313228348635622 4.918419366742332 7.272871030361426 1.2175446164753547 0.1129264503881023 -1.6212780039135433
Ni 7.94735232157792 6.8751184629771975 8.785988780082329 0.5578962187682586 -0.07244108867954621 0.11452670499568664
Ni 4.145077360637779 4.438311454239597 3.9391312085414376 0.7179905850914151 0.24675288415366536 0.9582372926954464
Ni 0.8267579610827255 6.2211206823805165 3.3955109910862933 -0.8011680863518589 0.5948483705125756 -2.819126684621867
Ni 5.393316921383547 9.36745912491504 2.4019488757670957 -1.4653020306341347 -0.9954157015179566 -0.7319362486382297
Ni 6.477406907354312 0.7909062249851402 7.448607359801287 -2.2816072297377477 1.234814716409712 -0.1069136685351191
Ni 7.795441029221835 5.668477877429932 2.2135939730304086 2.0814355357777314 2.616061728274456 -0.2381047215603641
Ni 7.255949950465535 8.65571864851851 5.362675543147482 -0.35764044973486797 -1.0065305804841955 -0.973282617064343
Ni 2.464378097385858 7.979788896458223 5.640494806997276 0.4533196830067483 -1.4186779030176921 -1.0694619299010937
P 6.681897141922979 7.917087505877822 7.470898184176645 -0.061223879807488106 -0.3790924489610568 -0.82941062613732
P 3.3321683256921664 2.2721168243812584 3.690859986653727 -0.5842703378864131 0.862403793233889 0.07839267827729081
P 0.4365282556484662 8.954908768369902 9.861975214845929 -0.8764908674545744 0.17338954077016588 -1.2400975620752064
P 9.183297674775666 7.910749324579371 0.7611344825066416 -0.651369959748388 1.0516701531353114 -0.2299242426321008
P 4.39455004071574 7.218097958916997 4.778415466457967 -0.8160830557904782 0.0912538505106751 1.4274258244136513
P 0.2515708045048452 3.174412857344717 5.802261971272451 1.2098511044858389 0.4867085428798392 1.0184126766337622
P 8.29540236255648 4.90023437892869 11.963855014149216 0.4603704192059426 -0.043935525040685625 -1.5451208998349906
P 7.158453808727613 0.8888777303204457 3.2282053748588555 0.10933924725747622 -0.9649851529422414 0.9045719419615066
Ni 7.8169722039268645 6.02312708364276 13.577868221372077 0.43285061651911905 1.2815769122659155 -0.342116643067656
Ni 5.562667533165221 6.0516488994857855 8.652160878222013 1.3774284094496019 2.31181486366938 -1.2284769471171422
Ni 0.07527988420136948 1.9761051160339431 4.079562003977962 1.8447665182226294 -0.49739739005225303 -0.7229487004276388
Ni 0.21957044563155334 8.724935316639524 4.957398249642314 0.24774095909854751 -0.49747786558120133 1.1388413489361806
Ni 8.069427557557038 1.8328156144147203 11.204786033077482 -1.692962416932723 0.41148680613136235 -1.9189806396421984
Ni 4.005767864039789 7.680188658993403 12.09610023485589 0.21545973046733863 0.6974428428470505 -0.1296216516555961
Ni 3.8716966878678702 0.9621638836692586 10.56395209578639 0.8429819370638514 -0.2905778517584157 0.7943348654801093
Ni 7.549109477228547 8.2013176536939 2.3544749657562205 0.6187100076215215 -0.019311812954734484 0.655337171926252
Ni 6.168895932652259 4.266006131470264 7.4057854884463765 -0.7433293209665198 -2.365414908383023e-05 -0.17501833462284053
Ni 3.40321188136391 1.8430685547504482 12.990197643892706 -0.4297552654232469 0.10866664667048381 1.1746059081302997
Ni 8.515896504903735 4.559408000459394 9.048965514667929 -1.1629883784960293 0.011071941543445448 1.9726400768388672
Ni 6.465895651613745 5.169374062741548 3.738279835706468 -2.987370676635352 0.686858639573301 2.7679954131636912
Ni 1.184242571341125 1.396058997822413 7.114623420877861 -1.8354149018044001 1.0867855087812055 -0.9255043212387998
Ni 5.053115040189245 -0.1405948424818965 5.762836619425121 0.18439386230046953 -1.481015070494017 -0.6538629013735707
Ni 0.7590242409684518 8.593781568035864 2.760952785366153 -1.1401053032502688 0.49971549666246834 -0.2049583167153825
Ni 7.933072771946707 2.668001492453414 7.117324604613583 1.178927418323789 1.3524827952478577 2.6860936932918773
Ni 1.8306531760893667 1.4614820780192075 2.3541338224686865 0.012946789968655122 0.19490118958969657 -0.8711100627586352
Ni 5.154656432932353 7.097607268262493 2.8769638731794296 1.2071013096548437 -0.8969311375867971 -0.8945569809276658
Ni 3.872973644982411 5.224656052860823 9.770846149056494 -1.0096590988108483 0.18988162488791813 0.4628757021262997
Ni 5.274261642376045 1.699928186808836 4.049222621439059 0.0009438519705080519 0.47740552031135847 1.3135832899691828
Ni 2.235625677640918 0.6578733920435855 4.5893093028203165 -1.0412371307274455 0.2002629681222422 -2.1572599391072136
Ni 0.9853355288280037 6.443255295181488 9.25314536477007 -0.906808287491193 -1.730436502618781 -0.9509225042015881
Ni 5.628230426184775 3.2394537824926344 11.113274812239169 2.426015038563583 -0.4617935248057144 0.17290360227268287
Ni 7.724173773033677 5.873648534402698 6.259378131115058 -0.29555627880961355 1.1493250220763238 -0.17644221155356063
P 8.240390677227875 6.908310027100404 4.1788347006504205 -0.612050593323475 -0.15513188011155862 0.3178557136377622
P 6.173742777174604 3.6337539052401775 5.3467415417802755 -0.18235060661819563 0.6109876992765993 -1.167426616773041
P 6.929757314111777 3.0992867672483833 9.051257512875706 -0.14397586349473912 -1.0281998379275132 1.6575611546152935
P 5.856470198912929 5.610893636162544 1.297600943863903 -0.15585127477608643 0.2962255369624963 -0.11780434730569389
P 4.761502775331442 3.686547227114325 13.424804871356452 0.15569315193166736 -2.686862710247418 0.24300884373020085
P 4.550059183044181 7.446002180870527 10.002706141808645 -1.0942728182971864 0.023744394804791364 -0.6933136511700253
P 4.2134085475479806 9.29829838192313 0.34586616468704967 0.061364776260726575 -0.7999532401081513 -0.16444081621731033
P 0.8660164696282276 7.234064583276181 7.055049177099857 -0.2983294706793765 -0.7907677169541414 -0.3938654935051733
