# total energy = -381163.65746624576 ev
CRYSTAL
PRIMVEC
9.30674473658878 0.00000000000000 0.00000000000000

0.00000000000000 9.30674473658878 0.00000000000000

0.00000000000000 0.00000000000000 13.62136166217218

PRIMCOORD
 96 1
Ni 6.301569030956785 4.03835481357276 3.691225328705824 1.5386512329502469 0.27868572830652005 0.8755560143451309
Ni 8.218860848283459 8.077510007204305 9.809723242682113 0.6153590888714175 0.3508115997384926 0.5489078992267191
Ni 3.6635163572056295 4.25547186463515 6.43188486464408 -0.17084594841270578 0.214888688455217 0.30207531087505396
Ni 2.4533789353041158 7.292262715578514 7.875681145939171 0.7642699277739289 0.7124133481139537 0.5872088516894468
Ni 0.2160169938188055 6.757888038657073 11.425693373389914 0.2519043464476178 0.025291427576937087 0.47389107940019676
Ni -0.12061634418422033 0.775349568456994 6.053197138598891 0.35497832952167246 0.26927266252273624 -0.9937905072097077
Ni 2.9514200802547235 2.471806290145881 7.949277023018822 0.816678266172316 -0.5927763184748952 -0.8349724364958135
Ni 6.8579169325153 -0.1255526416630446 8.163799353611573 2.106731077119727 0.36466676045403 -0.5096453541816707
Ni 4.375668474625753 8.276134556210843 3.3656753931679795 0.6228345713128564 -0.4219866772214217 -2.1776043070915208
Ni 3.3914243641986412 6.339521936534926 1.9757651646677459 0.2320042650895811 1.2091389089101625 0.8464189877698584
Ni 6.774844927809445 6.893450084427349 8.460963717297204 -2.2610265773729186 -1.6587718870939432 -0.5952877720428393
Ni 3.2044611665136853 1.201733431284284 0.12001326711667167 0.8996500791798571 2.994708090837029 -0.27513683461299715
Ni 0.9096458969250073 6.372551574077058 3.3185311463566443 2.368578136602353 2.2747022750877988 3.3126774472345204
Ni 2.726336455583975 8.58284764013266 0.7488039400654961 1.0690176432748233 -1.9852716495599487 3.3812873350934347
Ni 1.9365195522272216 8.602605859490776 3.0843529705993435 -0.8391872459081096 -0.5907356338957827 0.29952117699463254
Ni 7.677655020627748 4.238635963166083 1.2705475028499453 -0.5769360090085289 -1.501117497670847 -1.273190230864117
Ni 8.53744003191399 8.234859142714264 2.3591379060802806 2.121748633574481 -0.41032312484056427 1.0862710310386323
Ni 6.619533969425924 3.2180397072783995 10.317772861065464 -0.6670824853876383 -2.5191835895984678 -0.3207312354133444
Ni 2.1994071745581967 8.085095004273011 12.377050239471396 0.010620712938639774 -2.110293340549688 -2.058085033977249
Ni 0.7647333645842662 0.5862272059622956 11.45980166266243 0.7423232482995086 -1.6906103717607786 1.06292052923815
Ni 1.303940103441992 1.3010177855529443 9.452121808487927 -1.7888452815749774 1.355232590078853 -1.8986406425332654
Ni 3.288994330164064 1.2431670594436464 2.79943535248759 0.4118184784391682 0.3431913641890735 -1.030346709067187
Ni 4.608616298711294 8.193416207810031 8.369672926197026 0.925543144896535 -2.3520793676163816 -0.02554056747326569
Ni 5.419587433156599 4.520983989019347 8.406219582625372 1.0442347799031886 -0.7668320320741504 -1.6860209526178833
P 4.196830065211938 2.231133867818589 12.026368370087742 1.0206667627752617 1.2163482821744083 1.4477658215225842
Ni 7.5807904200251786 1.1230262899222614 1.96124478132223 0.7208162274656683 2.4419237393740394 0.4855710868412863
P 9.554304283108973 8.430300784975406 13.121471633377807 -1.5524629420223588 -0.39789055550416635 0.5105712084300498
Ni 0.9919128681996437 5.946228205091421 9.107705239750471 -2.058356542471081 2.5743988013180306 0.03320502599705894
P 4.00240285814158 6.59602513188537 11.477945161785673 0.39458180284590755 2.2120205797878616 0.39612652162520806
P 4.511007158519159 6.298181375824259 7.042148600581036 -0.2357097389656263 0.052883221152276665 -0.043435445475815515
P 3.32239623750098 0.20264971616263033 4.7057852298711 -0.8660503888475407 0.12944373131683515 2.189917834351551
Ni 3.2494685847029654 0.42018836276761196 11.421961368697211 0.6233068829635845 0.9482727252835669 -0.7654891448930107
Ni 7.355120470427646 6.02080315173135 12.282476959455716 -0.4844035488957464 -0.9641667708060039 -0.7870689279463156
Ni 1.8646994020686867 4.705648420721517 2.199686376904284 -1.2381751482415129 -0.9411836796472695 0.15505191880324265
Ni 0.5618295742866963 4.60938875853547 13.583726482955914 0.5576673905869041 1.3091525078913389 -0.0699067522934667
Ni 1.8344431744976881 4.282880228276058 4.71469364606026 -0.5391073681965297 1.8085358180253692 -0.2715259773332872
Ni 3.877431888032884 5.761079822656032 4.493605406962022 0.5068500508247207 0.9973473713230309 -0.09268955451593715
Ni 4.171860068726859 2.975580389936148 9.997262527874495 0.4438960757000032 -0.8631339865316942 -0.23831375224737666
Ni 5.908219459044063 1.6474799768127317 0.021370147569525447 0.06250788872623428 -0.16431020417671702 -0.2650655664199241
Ni 4.7949280242553804 0.5917488976934162 6.95604818109462 -2.279492240277274 0.8682692508757305 -0.12210991665958325
Ni 5.490923632581916 5.163735709947026 10.549253942159561 -0.12769178162273492 0.5443272218345722 1.91524148431474
Ni 5.3760877076361915 2.4480461704938477 2.1976025967279855 0.7788725081784521 -0.7396999517440487 -0.8241347224503612
Ni 2.282562939967878 4.280609382527881 9.290599528578449 -0.1406866512205061 -4.349657345347509 0.4745896481291181
Ni 3.489815270959822 4.666876521594854 11.890454529361394 -0.010453334122840061 -3.737152438095435 -1.357993954874074
Ni 7.418424949030516 7.629529842907159 6.076449109981046 0.7554176195896216 -0.32789355748973853 -0.3299069883753415
Ni 3.3550815254829383 3.6259171079325334 0.985310663389165 1.1672975473943445 -0.5741401914309467 -1.0005514800826254
Ni 6.034577134138327 1.0685446054557506 11.367176284347952 -0.8911998915299748 0.6846621461426143 -1.7122965984849607
Ni 1.075924854137326 6.012771430908905 6.529277157680755 -0.6783184633127737 -1.8494623810364021 0.30405377475766343
Ni 0.9002684207944204 7.134662297957077 1.1559209796637855 0.9566257252339525 -0.723557023435599 -1.1097727137049984
Ni 8.280722781431544 1.3832242629859286 10.375295989755351 -1.08101595328728 0.4035701223874469 -1.663173872816381
Ni 5.65874285607015 4.008163733215849 13.38282457347979 -0.3492069742555341 0.2210742484406386 -0.8370015511107004
Ni 7.649483503907534 5.029095031918838 9.912400836130221 0.31357328421232444 3.8659559647251096 0.21863247176836537
Ni 8.211061796082753 0.9471288118872335 12.743588010089349 -0.02191145536111065 0.8782703279525004 1.50294298091536
Ni 5.200869621976643 1.5306989421892645 4.762368377329161 -2.4388643837224255 1.0278231713143848 -2.2794310480220354
Ni 5.768906795091348 7.549733812395395 10.475249498980135 -1.6429467471362287 -0.4980337380846713 -0.3825809217302895
Ni 2.2383093681130335 7.584438664014052 5.507403085722479 0.49349985477005975 0.76681943366866 -1.7930942866593182
P 5.516098377454125 1.1266000799521794 8.993054519027652 -2.0721962765676505 1.568963767890859 1.4457482768719232
Ni 8.458360620757183 5.529695531708579 2.832875417478471 -2.75406543334616 -0.029530148248633016 -0.0929222393520335
P 1.1077260013566748 4.662632645934326 11.228932965380752 0.11899888183442732 0.24509735082811332 0.3504387897801062
Ni 2.01951710297412 0.15046028295749672 6.877207953280962 1.5588817010645089 1.6311762368638618 -0.135449828301599
P 1.1097362582485037 8.214216782593539 9.755933049359411 0.5042766336705896 0.49262696524680316 -0.260072741191023
P -0.1399055036009081 8.179139661180098 4.677261918194817 0.3503667988915901 0.0006684868219343326 -0.48512037245711287
P 7.3200991894834235 1.9482088237834116 3.9960854397241103 -1.0656111886964357 -1.0335842421678778 -0.6269311099797332
Ni 8.479431091141908 3.6012914610076296 11.81898338213547 0.15028355088032183 -0.48790179185699195 0.16926317730661816
Ni 5.292336310554857 6.67523483747035 -0.1109773485227982 0.19287747429144847 -2.1849270660051787 0.2211326124823998
Ni 6.761405988217774 0.6224816306017374 5.865426115459256 3.0106880112050534 -0.5223458324674746 0.735247829509966
Ni 8.846833458358248 3.2576864404228028 3.3567390567442104 0.3667935769890457 2.1133059021237663 -0.3856027392757488
Ni 4.035841992457975 3.587889748395437 3.5957260275756218 -1.9781072706010254 0.2574381317816534 0.45588384418949873
Ni 9.36789018337132 3.8709357801139186 9.371919073225362 1.2846763771268455 -3.11506888601599 0.8930762826170813
Ni 6.866907248059313 8.779201343391023 3.7089332721691712 -0.43605883904377163 1.369112690495055 0.6767130664988669
Ni 5.26556080556508 5.018829692327692 1.8014935749614334 0.3224469325528705 0.043839880003085786 0.6015430089239316
Ni 7.0629072950126295 8.438025383217155 11.921919703090952 2.8291575864953082 -0.6567893309917463 1.1560510279462477
Ni 3.2422930844085203 0.4276542335019875 9.20710034428308 1.4002520922123367 -0.303536983022245 -1.0404537155942017
Ni 0.17943217973649364 1.1221235356699122 3.6190868878727502 0.006891842023826839 -2.0422820055067215 0.8010048213011172
Ni 2.7511017036819227 5.910127341742326 13.416551286212654 -0.9568121302131458 1.6448275090987092 1.6846197013949826
Ni 8.35142612220573 5.474562375101198 5.284911389497907 0.67201283280972 -0.47600915418446405 -0.29154561498832365
Ni 0.12006817691140217 8.310355457096282 7.554067032806671 0.058035711887493596 -0.45057374483049495 1.14828989594359
Ni 7.98893771628053 6.623154293180191 0.7286492533759377 -0.336442218390698 -0.7558125410351951 -0.03230642544218952
Ni 1.0527045256877285 3.494450029904872 6.992893584033279 -0.7895502996072724 0.26996171816996084 0.32907780760582683
Ni 0.8872613141646979 1.1464606735038594 1.35618630779083 0.5261685486476744 -0.49008157311713024 -0.39296226496461356
Ni 3.713521497389873 5.69712387191229 9.19065997947097 1.2175117063548904 3.56467666738879 0.1959489141279206
Ni 2.0241797821537784 2.584929774035604 11.634904344685596 -0.5875207265029108 0.7115497145620777 0.2051146397875887
Ni 6.2638860209798635 6.6284870579904585 3.6919065824302773 -0.08151554017698864 -1.617556332087582 0.11125883287769227
Ni 6.9976018662628 8.696389927541516 0.7978495548536862 -1.9050684004364802 -1.064769923742063 -1.6159347373237587
Ni 7.770154757886486 3.834667395357172 7.8634083414796585 -1.014577362048072 0.5358801195084836 -0.6469600036061502
Ni 7.761611166096212 2.9461152356790636 5.803299870756874 1.5436186042578512 0.4167925346149919 -1.0187685173112841
Ni 4.956437274722041 8.666571116979387 12.783879700653214 -1.4357942509830046 1.4520037708633315 0.33217881512865366
Ni 2.0240494877256046 2.136372591556544 5.352037217544227 0.9841283015295954 -1.8169345836120259 -0.045776949124798585
P 1.727061952192495 2.662417731819712 3.181309707976122 -0.3194495404874434 0.7028879251220218 -0.3619496186331831
Ni 5.202423848369862 8.032269920393286 5.465775877269829 -0.9814376420713097 -0.8398868430782954 1.178705789231286
P 8.556239656550538 6.342686229790582 7.672736405964176 0.5964846205644179 -1.5226407164546034 -1.036595518190376
Ni 5.759153326468029 2.6962477494206287 6.756740517014655 -1.059591721975233 1.0548596066068865 1.1252841790770363
P 5.0474758530362545 9.475290019166254 1.4048531380628282 -0.9711411452413082 0.07089097058360694 0.2426398904265563
P 8.579031874736135 1.7095745785825573 7.845972154966504 0.05609915698641306 0.7061905071326935 1.1862782022619054
P 9.374032634985245 2.6063818209599816 13.66100038560802 -0.7954548380171655 -0.1373537301925312 0.0996544158695445
Ni 6.176439846185307 5.144666189709259 6.015207006041273 -0.9628046003511547 0.08099643444872504 0.3383286367801335
