# total energy = -340870.3914144854 ev
CRYSTAL
PRIMVEC
9.21654966078819 0.00000000000000 0.00000000000000

0.00000000000000 9.21654966078819 0.00000000000000

0.00000000000000 0.00000000000000 13.48935205167781

PRIMCOORD
 96 1
Ni 8.072932641949835 3.358206597142578 10.076074162984515 0.3682742752996303 -1.220182311208518 0.0282754499059255
Ni 0.7503432813908226 4.786108222926761 0.1518527959864116 0.5018052893119616 1.9192745167335334 -0.1256328422111772
Ni 1.496030361828001 5.730030386165898 4.926904845785716 -0.7091999833829785 -2.055013079920145 -0.5332640220418752
Ni 8.607381931142061 7.876703080382068 12.480226843704385 -1.0725261706487144 -2.355549328442853 0.47086694786189226
Ni 7.091471471418157 4.4255660117121876 12.533443202188828 -2.8572738851155504 -4.491157493608246 -1.622849205055405
Ni 5.797182167932031 0.8473290348254953 2.9309126024227345 -0.29512613325073045 -0.518299944532875 0.6043791928211462
Ni 6.771085767636338 0.9508990914297706 10.082886114933917 0.04395429409376301 0.6357692770966534 -0.25670408182910626
Ni 2.497979922541688 6.068111865543514 9.366386004370055 0.1921611649507142 -0.12591103557322833 2.389777139277471
Ni 0.7616243383331432 0.1424334821015655 4.055385132727778 -1.0092034993306684 -0.1468855809423664 -0.0680064499469603
Ni 2.751545640349795 3.4722245345882055 11.875702283152801 1.0231908147486957 -2.3464016005053137 0.936054328840504
Ni 3.663246745524918 5.6267773788743805 12.488483029005799 1.2989321157149114 -0.07224105685359816 -0.23160368721705277
Ni 1.5896889407886723 6.537962357261292 12.229581850524562 -0.5603919886069187 -0.8154711332380924 -0.06975171477284116
Ni 8.844053713186057 6.839472567074261 1.961594236238693 -0.3862298313367864 -0.7782235617405435 0.9070054911036637
Ni 9.038430748246139 5.470483127544419 9.071265628526131 0.28818569737715527 0.14011355232585548 -0.5787254968087838
Ni 3.0658576378203497 8.454295039138838 9.242108203698782 -0.4643106348006133 1.1796817799913102 -1.392632113773234
Ni 4.57018289445888 5.164161878741342 8.14268533406656 0.60466252838952 1.1699488689742625 0.9825085065379853
Ni 0.9644658527198816 7.880758362289439 10.281908291087897 -0.0805842866119709 -1.6885987406473888 -1.779412932517484
Ni 8.356442930023956 8.812883341798043 8.783739689708737 -0.9304714354360878 -2.475302057724169 0.14615513053424506
Ni 7.0805590764674164 8.070923434095729 3.779258222690009 0.1194591093002975 1.4840471724521216 -1.2656576699324977
Ni 6.6223951698826955 9.096071050629531 12.03791171613765 0.950342463328402 1.3116495632815797 0.7082872417607221
Ni 1.8138077820193987 1.4884543579010507 8.21556888814677 0.592579629083057 -1.3922217657086926 -1.4189779507566145
Ni 6.890965430748073 7.846085701981424 0.9048753284010354 -0.12058191005083106 1.1047274379716072 -0.4193554102461617
Ni 6.123991806917117 8.964689133380528 7.662437652531272 0.2994206468610263 0.09668813415236896 0.69879370044799
Ni 2.1089677890274183 2.667776419313234 3.5834332676579996 -1.9668638364767224 0.37638173489811305 -0.3238692668216938
P 7.715164612221895 2.0130050726193778 12.198070466794338 -2.2280040997003114 -1.5695420089918324 -0.01903953312995431
P 4.87928754129838 3.4077179026116515 12.509620264292986 0.8338324093540995 1.2553074370464252 0.09858535117508184
P 7.479847662996954 4.0213189213959115 8.00533662248385 0.19626901647150066 0.4766161916408436 -0.6975672842400568
P -0.12881326482267555 1.49199351302021 9.074084971106732 0.7831371969920771 1.4874515701479802 1.2943457818958095
P 7.748325758364436 5.861698016458375 0.14897354583217878 1.5401471007694831 2.7779432684050223 2.303851642958245
P 2.8782547668555334 -0.13900861219979566 1.7234127833391815 0.08033514671564229 0.8646596791476011 0.3499433382009264
P 1.9007106299843828 0.8610533991170063 5.918035098701535 2.1677351276069246 1.720550868073953 -0.24245657077115665
P 1.6808867009555533 2.912687796869021 0.9297452663529617 -2.188084380687238 -1.4414218815824271 0.4745845059227955
Ni 0.9817653166747311 4.852107935969211 2.668315587475918 1.6404838874180325 -0.08471604939215732 -0.5349876896012012
Ni 8.46875580575853 3.390243324210802 0.9962749310083057 -1.7334454646484339 -0.5467592283148326 0.8267166242449246
Ni 7.0763655463132045 5.939964957270617 5.002391153526474 -0.6280302565811829 0.7200276701261019 0.9528662581915203
Ni 2.218359018478728 7.351350525832057 2.989388845872033 -0.5322546069407542 -0.48110816597392625 -0.7168230471458752
Ni 7.536289813907714 1.356537880764258 4.762347957569488 -0.16845970756871634 0.07306355275489351 -1.0326257349093506
Ni 0.5128447748307117 -0.36710715962961843 6.863544351814419 -0.7432992390595328 0.8612524532382652 1.8788014963201516
Ni 4.023484810596439 0.6378626644500803 7.046150009483381 -2.1876748039536453 1.480310845338141 1.7255622052456154
Ni 4.106553573849 5.312824826845615 2.593395175892234 -1.2205607775938592 -0.688518543774227 1.6119289585984753
Ni 6.4820731993379 5.159701068643235 9.683938540746592 0.20485701525082783 0.21834245133177235 0.7270802060975091
Ni 7.97846300660769 4.759785756728013 3.141143946430676 -0.7669724143067564 -0.7798672679915537 -0.16180492125636003
Ni 5.109526171589319 8.754090970690966 5.512585248637731 0.6329261512209035 -0.3746876350251418 -3.377773151292589
Ni 7.111443734811956 1.2493125405134757 0.8364083449799433 -0.49166203023037264 0.3247910073050148 0.25394734501957555
Ni 2.5178692369873805 1.1380503514549025 13.350196333087732 -0.5122269988659178 0.10765028959082751 0.7465604263093079
Ni 5.583865123054572 3.855190611440578 3.81509861985635 0.9535923377242673 0.8269644785896725 0.17570584760816838
Ni 5.936711515194933 6.8348274259803645 11.836649918384827 0.10410113878698846 -1.5595810411243787 -0.037214147156452035
Ni 5.568335236659303 5.571090985046356 0.5583459594863835 -0.15470147744235938 -1.8758925502034722 -1.8399295018453021
Ni 7.426050661875772 3.5901871553437292 5.355151831753791 0.08292090516494752 -0.2470526747822713 0.9381106971489004
Ni 8.989619900561065 0.37852462150882327 11.089609848438553 -0.40287103943789326 3.236227237395582 -0.3656334952426735
Ni 1.836452844852145 7.854260781644691 5.436100788554773 1.051555739044634 0.4055223610178113 0.11416572211184209
Ni 7.968463050086107 1.6494029668746977 7.278382179493784 0.3432070479183573 0.23346259480266243 -0.8217983610077007
Ni 3.571053597980774 3.234686396864 7.801876677606236 -0.9805410983989693 -1.2244883947830394 -0.9339483382410947
Ni 5.460289623477257 7.604400116851953 9.486373501114329 0.9358715234057365 0.49877858667049585 -0.03672769443833675
Ni 8.952799784152102 5.060761406653193 6.4077251354961415 -0.678354972977664 -0.19087355648754226 0.6757920973464941
Ni 4.112673362909213 7.179332840561247 1.304015528478962 0.11300975413052795 2.248866287861301 -0.7869601702825931
P 1.3907220639334303 4.608818671176371 10.983449019688456 -2.0152993062702906 3.317873132502847 0.5814614076827083
P 9.206623565354315 3.2429352089255823 4.14560133034208 0.342860463212216 0.660503803728856 1.4645111593017228
P 8.893076541516287 7.347709988665213 4.604657398946421 1.5933293412194172 -1.4034649427226797 0.7034720797602659
P 4.612652755888793 0.6461630891904839 9.591765669611984 0.44494405734854336 0.7342510128143356 -0.6358068152028081
P 5.4452021314718815 6.979702372121163 6.577920708873572 0.5282832809978322 -1.4027810292817775 0.6884599226221498
P 1.4762792956291508 8.65098542819608 12.195197668224958 1.0531385101507218 2.019192984897742 -0.6032430223341739
P 6.355502321079005 2.89031001398017 2.1365510792373668 0.7181150264844214 -0.6506670201440923 -0.7572189344644185
P 8.616285118238697 9.119278322999437 2.201124992027384 -1.2492853992220616 -2.6537530721776426 -1.2450693042581849
Ni 0.04142562633876489 0.8879721760871334 13.677258505537049 0.6684282007822553 0.9897502757020632 -0.6132369003220923
Ni 7.725441065237162 8.679464567045565 5.952904993175045 -0.6151114916369858 -1.3186293370335227 0.6203030631402543
Ni 7.302594977445721 6.43303193790809 7.641124381143105 -0.673208395779718 0.4427141395767601 -0.5642928663232217
Ni 1.0238020002645383 8.113457811374168 0.6642007987834704 1.9836629103119319 -0.49346951575275655 2.1291292423092685
Ni 3.4977175113059005 3.912029073992286 0.7935744298333463 0.6818591294761805 0.4026481247938098 -1.1798545581237487
Ni 1.6416057657527996 3.3161514804531924 9.501899700889682 0.07033047009444662 -0.5084197093046857 -0.9070530565121474
Ni 6.307345848428984 6.217917665821682 2.4905117522472744 0.5118066234990476 -0.38957252255677427 1.7564105580850398
Ni 9.115610136183225 1.7983792776718133 2.616206136621191 0.5124049192046788 1.9480667583748772 -0.8374574077011965
Ni 2.4904960841126327 1.057838718637079 11.002239721399242 -1.6766006877452482 -0.38511525811636904 -1.7597375655757435
Ni 0.22014742992644049 3.0380328740059164 12.268309792739945 1.978537930380541 0.12492013241486874 -1.1077880791748018
Ni 1.6285551312508992 3.2069537985474614 6.147353917323485 -0.2850425237624833 -0.7836583596028697 -1.2383489548152158
Ni 3.5235791500151743 7.896048618390181 11.42558903280919 0.45471759179553944 -0.1123564368172452 0.798470742025354
Ni 4.134682483806485 2.600643070646679 2.540098633424622 0.22473369957009684 -1.2223026999856303 -0.33630697836441437
Ni 1.6857438226946078 4.937222773275036 7.631182488885196 1.1350841958865936 0.2559672036630818 -1.067750860747258
Ni 3.230557382558314 0.42324608605230535 3.9128696233330866 -0.006518260734492001 -1.1669789877126613 -1.0427913625884428
Ni 8.617547785559855 5.468962396829156 11.357953382179108 1.3177538764071046 0.5156848755075312 0.5522845290084359
Ni 3.6776337797462926 6.567234119392672 4.895663506964324 2.258889733535574 -0.642486541215829 -0.1529850089718849
Ni 3.7857254756772853 2.2675753943545383 5.116281902585007 1.4747168961901314 -0.02287433349501222 1.7740213291882674
Ni 5.955116965124518 2.2101747222656716 8.319409911314855 -1.1997590103571596 1.0861077659878908 -1.1060361294807017
Ni 4.546053967110028 1.4492748047459814 11.714423721696694 1.5006325876146285 -0.6249063662402206 0.24613299118147933
Ni 5.188161774393142 4.3144144212510875 6.016385823160029 -0.45363567158527035 0.08848811484007987 0.8067401811229977
Ni 3.4229528594136585 7.089775626256894 7.375559637164078 -0.35237251646770923 0.3472375092339891 -1.1380707893187432
Ni 4.757509268930012 0.913404323576218 0.6384469937067332 -0.32236234325886415 0.5310526162128532 0.718626418903201
Ni 4.516468842285805 3.265220826316539 9.966163120125078 -0.2517534226920503 0.4473434108186554 1.04982795772025
P 5.767431145211598 1.8224160395227706 6.040855762851091 0.47198974861242576 0.06138868752012653 0.2656461215137425
P 1.0577189034898158 7.078171990071941 7.9307544582774385 0.1402955864296745 -0.31459092684356144 0.41293999363812106
P 2.4116945834125993 5.8736795311846945 0.9706022315697158 -0.3317299005166932 0.8203564863548516 0.5712114478199259
P 3.3892663699331176 4.279695678194126 4.570368147109649 -0.3666084575614332 1.2979180726281003 -0.2544366259511682
P 5.03752648463392 8.344627313193845 13.115400118925896 -1.192446021635514 -0.7444742332042404 -0.037279196066432575
P 7.623312477019962 7.135968973801756 10.442093769738975 0.3520994653119807 1.2897311659419337 -1.2501379770303438
P 4.46927089081389 5.928444270033771 10.326625147356484 -0.49941724869575915 -0.9347268682783322 0.43436885293585836
P 4.97100142825347 7.6671371712689265 3.3185966311123405 -0.8045064066964726 0.7039274221301296 0.9319662748140594
