# total energy = -340896.890881609 ev
CRYSTAL
PRIMVEC
9.02419462290242 0.00000000000000 0.00000000000000

0.00000000000000 9.02419462290242 0.00000000000000

0.00000000000000 0.00000000000000 13.20782101019564

PRIMCOORD
 96 1
Ni 6.2632150531092465 1.9986876006634842 11.47211452325889 -0.5786401361838293 -0.10648660830002951 0.12151213517458427
Ni 4.723651391108475 0.3584067097650411 6.024892395851053 -0.34719508603182786 -0.02865288785000227 -0.7134728997267196
Ni 2.8883197575356685 1.6706130131272126 4.863185289813009 -0.49493710143721864 -0.08313070718290844 0.41481381362206626
Ni 3.558997885597715 4.465433092449064 4.721346611857841 -0.6217310538360324 -1.0048994726386757 0.791822640581217
Ni 4.952883977344106 4.5137937502569825 2.7376644416483615 0.8381683177252919 0.2804446199791557 -0.7511056224778291
Ni 7.237358790569443 6.080790963244146 2.5013099611895524 -0.7663103552427254 -0.12400070592439288 -0.20192184388190382
Ni 4.848383806152522 4.5463891404421295 11.376411136771758 0.5287936449753473 0.011845843594992503 -0.0455504349362893
Ni 5.588304577871996 7.921699548958265 12.328827321366845 -0.7069849780095308 0.3321340779336473 -0.18232463847626665
Ni 1.8242860196230224 6.4522989984440695 0.4338977056273964 0.37819436262681966 0.1405408696712612 -0.17703973592824349
Ni 2.6944529891670332 1.3864952765299914 0.5556810139404067 0.04043908185165294 0.6355792725730344 -0.7339990447045294
Ni 0.5654379729293826 0.1654008495424923 4.730856307920163 0.45637749599646565 -0.6306106157138495 0.1129264503881023
Ni 8.634096527747314 2.324578333154128 1.383849382730909 -0.27556055241397703 0.4847138810473136 0.7093668479781461
Ni 6.991891678602062 0.6349946585520501 4.691536990485029 -0.41834470959346015 0.16401658419569817 0.6997360097566013
Ni 0.9646863817254141 7.397267515398015 2.5511171973603393 -0.8396515871390378 0.3379648256828115 0.44774553135308054
Ni 7.724187006050649 3.9388533006208006 3.6892350592278476 -0.3798920620442167 -0.21117035906336534 0.0912142555219913
Ni 7.521476527166664 3.7211175380551245 12.683364456571699 0.5783274900394169 -0.05261479798223842 -0.6663111544392524
Ni 7.948790180557327 8.763882491657276 7.085757739108658 0.3229228437480245 0.4986978540312314 -0.4850172712203454
Ni 6.714587208779422 0.7575856322641663 0.4867090961150808 1.2099014981078002 0.5455796061844346 -1.2106725719458697
Ni 1.6409053651511594 6.497374849489145 9.096424055423238 0.7666248011593507 0.4825497835164593 0.3315530086191967
Ni 9.039445291960057 4.769088209929686 1.440312864693657 0.2225500616552167 -0.5721380733992533 0.11177433906153007
Ni 6.3852402098322685 1.8629637168360733 7.05176089153266 0.5572770971270209 0.7081093214219611 -0.24967057202109255
Ni 3.4409433744121967 4.204624849995873 0.3335829558001181 -0.657568632359932 0.39128410593124224 0.12367983224986441
Ni 6.102205376563457 5.608527797530058 4.750972139664823 -0.19202309671095316 0.5356934574189741 0.14058354998373854
Ni 5.434514256848942 2.9996873406682534 9.23066887378793 -0.8016128871987614 -0.399547374381299 -0.09197710182994481
P 0.1464437243592315 5.43812393461031 12.505600460696524 0.9140703683702451 0.11264260059909632 -1.23981705472031
P 3.922429266806579 6.213293209669537 12.724639316934052 0.24140833201230036 -0.285477811527689 -1.4397547782926496
P 2.5790967121081376 8.413066934224391 1.487755761930748 -1.2028564183355608 0.4105249564387252 -0.714403639071105
P 6.549832491556215 7.671485710734687 5.7645001687598585 -0.8830795764156857 0.10100115970542604 0.23671863984611494
P 4.557200125337424 0.8429256338984122 12.634653660020929 0.8335459884619323 0.3045893355461593 -0.6371538161490059
P 4.143711537772798 6.142462307797107 7.962941922220768 -0.0643778520554375 -0.13054107814607196 2.0056067615728748
P 4.843095628232119 1.0253018955331747 3.707844752926577 -0.12367494715385796 0.18571720909758335 1.1585545110943918
P 0.34283816958026386 5.540665855616353 3.5214689683322193 -0.30222546329967304 -0.04898491453913499 -0.3030317612510523
Ni 1.459194186643929 1.1252989937174527 2.5682875320517233 -0.5095203985680321 -0.1467832510365472 0.5967841540827077
Ni 2.0366975074906817 6.373301200636547 4.615631784099557 -0.11989645394803222 0.9459276220901581 0.7707763614338791
Ni 5.9101253986866995 5.514919828983399 9.154829544021602 -0.19851796040667744 1.1153864603473498 0.18525698163171322
Ni 8.460543220980774 2.260560698056279 10.335040760683857 0.2462206657992792 0.820009130317762 0.23063052467050604
Ni 2.462116080056626 5.305206575242362 6.937381032308214 -0.8827944410750991 -1.0436822498338283 -0.07748662152325365
Ni 0.2017692554077083 0.08393854424339514 9.252184358084559 0.9727210881339183 -0.010850569561258733 0.02594937287591015
Ni 1.3449388613022502 1.1283581956202116 11.35105224807871 -0.09015830345365118 -0.3183149126623679 0.684067449981409
Ni 4.14672561870354 6.871635263982111 1.5714136537281966 0.8468709877056125 -0.2648336529147762 0.4556295620868476
Ni 5.596507570584705 7.978615143060624 7.8769855681087675 0.683157793682946 -0.5113826485877515 0.5705933546199528
Ni 5.3141134551185365 2.890756290024591 4.955785255844805 -0.09318423476416855 -0.8146800047953647 -0.6665538665776779
Ni 0.9395179035342804 7.242926718516352 6.767581790413496 -0.8278345398994517 0.4744608358607376 -0.039949286699427974
Ni 5.180844152168855 4.51143843551769 6.859865007221732 -0.659412113326574 -0.3664768170795753 0.6375667353167084
Ni 7.997881798111923 7.0870337601973015 8.822176982664477 0.4159175882092062 0.22291901495886124 1.620043874396126
Ni 4.516979290881389 0.292530993039528 10.361654012398978 -0.2667874342070373 -0.2498045264957956 -0.14482484175859575
Ni 8.209183310067962 7.108321834794965 4.492771889394219 0.4295320936688474 0.7660563302503903 0.4770342530148688
Ni 7.298073570515641 5.8961649699446115 7.034947914939652 -0.6442850278771485 -0.2883548759651679 -1.1532870920478655
Ni 2.434673504875831 5.214513421488009 2.4311369230891313 -0.10942306522053413 -0.5234809745131823 0.47802695594544126
Ni 2.3525894325823384 5.317723132879903 11.486141731039561 -0.9342650981505652 -0.8396955530030958 -0.3077124545561733
Ni 1.0990205396146986 3.433462317251763 3.710221725732437 0.6536790674975387 -0.255573824879405 0.25987373780633954
Ni 3.626255206486391 2.564991896255595 2.7265033180102134 -0.24351560816329032 0.36600733364232446 -0.6020867972425437
Ni 1.154257633558022 3.2722450842346955 8.353735563280237 -0.49058396667484544 0.9750152834847338 -0.35841280912451823
Ni 3.505321977286183 2.6681745350642796 7.238704297954993 0.05576928445082008 0.832439899881947 -0.5399360347454121
Ni 4.107813292436001 6.9306715437692725 6.010535804974655 0.5037194756155389 0.7401468094734802 -1.3798347048982493
Ni 0.7369689577301168 7.43960001134445 11.36892195783636 -0.18543361641889355 -0.5033093846613138 -0.23832789331476376
P 0.2657571106640263 5.340662635053393 7.899360155712603 -0.06127813008419123 0.5408423486097653 0.7518712969992599
P 8.43455354109893 1.8047305903508148 7.954066627025005 -0.025283714267453232 -1.212578273609015 0.8438473703879403
P 1.8391578919998557 3.2296147898729473 10.563905159787828 -0.02883954993951162 0.37203245679048186 -0.8453252404850473
P 4.121728600206072 6.317901671193962 3.81171142567104 -0.2011433138446665 -0.24681201952637496 -0.793388185296124
P 6.919382276570596 4.040682310268973 10.520055696762178 -0.20889878942036924 -0.16991263796515899 0.37165219063292765
P 6.265389883960471 7.788773165395913 10.157764973725905 -0.4670825411187956 -0.5620002136343031 -0.48814090445099156
P 2.4107864622899835 8.632228519505807 5.885298937463456 0.25375091273805334 -0.1142127732996936 -0.9574950152127831
P 6.654350711136606 4.076120321691196 1.3879969024787202 0.27375460955348985 0.22745804047979537 1.3494401517667922
Ni 5.107170629059348 2.675935342251219 0.5530856556299837 0.4490287689408783 -0.07939335162766327 -0.0017360088545002362
Ni 1.3600724353167826 1.0628335200569914 7.1405833297871855 0.0910864716948754 0.20681593874941157 -0.44462832588033746
Ni 6.744737042281243 0.7801145335923 9.323453835804997 -0.2272217560992732 0.06361346308558721 -0.961591296769344
Ni 2.541204119808184 1.5764726171107528 9.254917786569356 0.9959636036016267 -1.0046729584501666 0.16801516383212997
Ni 6.395500718868955 2.1073028045030266 2.6357524094116784 0.21556334592473844 0.27222043229715054 -0.1852479827706487
Ni 3.895871062677319 6.823103146480528 10.46480687136613 0.756110274781272 0.2295843427941788 -0.6486260784546636
Ni 8.289444495091963 6.922125631669236 0.47159808258655694 -0.7719408140556254 0.5247572701224447 0.14752835673268788
Ni 7.6240184481727065 3.801261408551882 8.432005108599403 0.4138267671184486 0.07394235581542104 -0.7814538957523831
Ni 2.8020033380669727 8.399422352286422 12.334440370285769 1.164659595550865 -0.5832750638526794 -0.1251517888097006
Ni 0.17759343860095073 4.90302530326522 10.291283344441121 -0.1430852333596697 -1.059877114426136 -0.11528466620763371
Ni 8.767221443586541 2.307324073454793 5.714178553508077 -0.1166280676094056 0.9303392807335977 0.2866597476509321
Ni 3.634638683087167 2.4505290144426373 11.601947412979749 -0.2360900051231805 0.7930901944397309 -0.5819828274038171
Ni 1.0510208495829167 3.357830543956714 12.649909060659907 -0.20576795710087145 -0.09720852543221323 -0.1881327605176115
Ni 3.159072662221427 8.322121103026742 7.949576187889865 -0.13052410886520746 -0.19928903424474712 0.6639480535237147
Ni 5.648586196486831 7.970854335873684 3.532973011357697 -0.06686385170208484 -0.7909111845105411 0.23229608529838705
Ni 3.068704379465596 8.538367873515853 3.5940325155301056 0.8411001466601064 -0.49132881526066996 1.0106420315494078
Ni 3.4301865346833225 4.395134618046436 9.20862457169926 -0.4067822015668414 0.125808448557093 0.2806243400901296
Ni 7.399929652747024 6.222362525044972 11.26015604995028 -0.15080008550542418 -0.21890989379946812 -0.13229996981870765
Ni 0.5501148908323783 -0.2885892249241149 0.4218964294902904 1.0682555682978183 1.5109396259675913 -0.20381211892608123
Ni 4.739254223231985 0.24589756604042368 1.5568323604111534 -1.0559939773216458 0.11202219340627805 0.9046416188571775
Ni 6.0835433425371885 5.796754444396555 -0.00867405566056565 -0.4614605669463278 -0.7098980378912677 1.6855152166260585
Ni 7.7824020841471 8.84755482216577 11.299950942430474 0.7103497807167056 0.2333695208682239 0.9109372220579022
Ni 0.09934916102611253 4.977411737732597 5.728905136355015 0.3036115450139223 -0.9028706429996838 -0.5857782898905073
Ni 7.919633008439883 8.85816727478419 2.4696774525472507 0.7813739344440672 -0.04253967313442351 0.41564942214948414
P 8.520626307318732 1.7626327234588686 3.5502227589598307 -0.32046049825046097 -0.5681456644104086 -0.00044814328101213145
P 1.7678487078240444 3.2022985534138004 1.5479958692513263 0.7524611080644589 -0.12547369092549357 0.1686563969605547
P 4.59459638694519 1.1304879054994181 8.221723330610951 0.7603762491464776 -0.5403252997640308 0.3815825623727622
P 8.594543483677132 1.430046038720888 12.68999453219989 -0.3799997912666746 0.17353403676783016 -1.844375710542114
P 6.430072407628451 7.80861736888903 1.2942815460186616 -0.504873129604008 -1.208323612097719 0.16494012445123205
P 1.8675570317874128 3.3543562291113984 5.941815662173183 -0.17224771385623883 -0.24209173123257013 -0.21902070834571957
P 7.007359147809521 3.826763781935942 5.921013089234424 0.5432908101502579 0.4088974481376313 -0.06709139433185865
P 2.3318698822320907 8.451112937829201 10.074688240048037 -0.8152073380537445 0.2642641535645513 0.29435917317771887
