# total energy = -340893.343007366 ev
CRYSTAL
PRIMVEC
9.06593103230547 0.00000000000000 0.00000000000000

0.00000000000000 9.06593103230547 0.00000000000000

0.00000000000000 0.00000000000000 13.26890646412860

PRIMCOORD
 96 1
Ni 6.572301449575644 2.0184933043778757 11.441273998517792 -1.1935587950837185 -0.9249258230275104 0.8345399769440853
Ni 4.195558810308321 0.5549582823714125 5.962489750847602 1.0840881644547007 -1.101315584076581 1.6549347727360404
Ni 2.5338008303196777 1.6119044246551815 4.717508037402568 -0.20226688592614842 1.21282432818155 -0.5330480493763271
Ni 3.329245628457146 4.375363422588471 4.595725384412134 0.2571925914297506 0.35839943938807955 0.19381515561436943
Ni 5.083657424686557 4.920361873010558 2.607804213021256 0.858049115809619 -1.6668322955045747 -1.1847509669841014
Ni 7.461487975690563 6.23147683433539 2.6488320843908837 -0.3518942912797101 -0.6347608904367971 -0.8583818165586894
Ni 4.92571077238258 4.610243566538158 11.311438078896568 0.07765220056684045 0.6780351277444001 0.3257867955593809
Ni 5.748489352904188 7.938582601881403 12.521456122310864 -1.5173126193734707 -0.5539873706321555 -0.6716251104529981
Ni 1.9010169686784761 6.357674595790525 0.19777963394948223 -0.6736483115306139 0.5062023899383927 0.5544550542971934
Ni 2.94557542265389 1.685973082060961 0.5002562670648038 -0.08465717112976387 -0.8881965859272768 0.5050327951103238
Ni 0.6917894744595023 -0.10079683558983361 4.60152395396865 -0.6589932806216006 0.39693744756227767 0.6151557146113599
Ni 8.68434609737705 2.2257404902158346 1.3014715303722573 -0.9051656096814477 0.8099813137681147 1.150355006002735
Ni 6.652099775461284 0.5663650369305254 5.114566810311926 0.35562779018021334 0.7363300068305513 -0.8937691949190479
Ni 1.16705731552583 7.695724438529379 2.661623206634925 1.010620434282853 -1.433287682511067 -0.9192614256528813
Ni 7.582427497085067 4.056822866087923 3.8478105434571974 0.23482322259561492 -0.8392983175646771 -0.4289782780479064
Ni 7.7616609557034595 3.8917413259775384 12.646236878728972 -0.07702073763042865 -0.35883755536676265 -0.2784443017196753
Ni 7.636859347643734 8.775640023946965 7.27633627722462 0.766873426835047 -0.06163499920297772 -0.9910589672111577
Ni 6.950649953800297 0.603780134741254 0.4252846429175777 -0.18735885846606443 0.7155002145693936 -0.37597035839230736
Ni 1.8224516094277432 6.38884326704647 9.202278210383598 1.2671028870194565 0.5203288020374458 -0.01577577477701799
Ni 0.021554251283016083 4.640532842473618 1.3441539341747555 0.4925722007494678 0.8745890224461712 0.7480526945841182
Ni 6.255456222198093 2.004005946417724 7.050858410459208 0.6565162798360177 -0.6754771372092367 0.07559840336160528
Ni 3.537426605202424 4.250543682666467 0.31618522759063117 0.19904220834126368 0.8671130257841002 0.16314575155497066
Ni 5.962300272886797 5.641420706152381 4.692402660892398 0.4458781391270386 0.3385790622280427 1.659757133825348
Ni 5.298066696124341 2.6766436413460504 9.295134196888764 0.2384397363022797 -0.7162185807926569 0.4869072891542065
P -0.003083323180380135 5.695408326085236 12.413579701094571 0.9523780057011921 -0.40071799765063243 0.24436921441283718
P 3.8414526059494034 6.283814454800942 12.522039968276216 0.9023782767442975 -0.6027493705272071 -0.30006470820292835
P 2.72023263826245 8.661037588418635 1.3965658952756486 -1.1839410694882966 0.02607638537207767 0.6521317776150769
P 6.1834273992985915 7.719767287910056 6.017343167204232 0.1673397350316602 -0.6286069550202593 -0.6992405581774215
P 4.789585816330219 0.9109084971240059 12.564765888548184 0.9621266004475235 0.47652363192703734 0.5335625271189005
P 4.046034408032492 5.920760176407815 8.245856019162378 -0.4913501554169086 0.19946412637003066 1.2022347255911616
P 4.749967697252709 1.1789336853179437 3.950047048911907 0.41807937174721543 0.056531102317509095 -0.739444641200133
P 0.32523121368114366 5.6227267561437255 3.434987929483314 0.5229202169137058 0.4608399026431934 0.5266822550592994
Ni 1.1939649991464363 1.140421609839394 2.5273286620795323 1.4270666413020197 0.09294975015585927 0.36244815553615645
Ni 2.04948065701104 6.521758883475617 4.618693920952837 -0.20108906356796338 0.2456714781640285 0.840444001133346
Ni 6.115596102516457 5.692761074192642 9.268848436144294 -0.8062352164621212 0.05947064456180726 -0.23964172703018083
Ni 8.60704996848578 2.3195184819178403 10.331303038188134 0.3058280930492669 0.7769189839965072 -0.5878678254296844
Ni 2.341739079139574 5.1831197552127275 7.0447543190233075 -0.21947167984020913 -0.062213754524583186 -0.45469496608772014
Ni 0.6889219204402308 -0.04113666254329568 8.80495471228498 -0.8033566093627454 0.09862160372965596 0.7325330016819642
Ni 1.414412180722806 1.149841112292834 11.457634377851264 -0.37843810320650956 -0.20115282692636324 0.5618657449389678
Ni 4.2713953242862095 6.909989252641799 1.5301170334776415 -0.25140709509622505 0.9073595320089729 -1.052163547831962
Ni 5.333296904530565 7.765495844575264 8.137899817752063 0.3771288974767828 0.3374958564661929 0.22045512679940096
Ni 5.148886799231794 3.0422545123203815 5.100620688440774 0.18553440366281596 -0.4472691059372942 -0.6905579428017591
Ni 0.5973995324056129 7.440980839454103 6.755452297039207 0.40516137813396674 -0.25392369087049177 0.36399467408766994
Ni 5.162558223389433 4.233218688259803 7.364415424612638 0.5839281240556459 1.6806229215307638 -0.4386643949874187
Ni 8.18287318235339 7.2383391466347655 9.222924961959599 0.5685069044045693 -0.12268764353992419 0.23049091376884817
Ni 4.500690854654261 0.400781244235039 10.348818417148715 1.203737021168301 -0.49545235051074027 0.7007050585380901
Ni 8.15442429043915 7.205674596740882 4.781941423193799 -0.46310581585923466 -0.04024779177645326 0.18711486077605838
Ni 7.353204494166128 6.185041135041337 7.167159801482991 -0.08964845369676819 -0.816628386770987 -0.807506626975377
Ni 2.6101178386479336 5.326443060589468 2.463677666145599 -1.5855694947683403 -0.5360287292712059 -0.37657379630426113
Ni 2.288286349143922 5.050893149550144 11.313839644055294 0.020383448752358445 0.17587168376207132 0.06011624856560615
Ni 0.8997782534646331 3.406360438725636 3.805402837368211 0.41188352734914874 -0.1424458000034579 -0.7544089758194491
Ni 3.9858184934071312 2.8032584356335803 2.6695314183674905 -1.1976216522991825 -0.07563954101218587 -0.16725925950271195
Ni 1.138871335614622 3.452134325046539 8.377019191102354 -0.739432814125591 -0.1300764798048276 -0.14288005932739908
Ni 3.6053485612959495 2.6862535283534097 7.115969021306523 -1.0563212787540774 -0.6642601854474947 0.018404727759432818
Ni 4.16323876579772 6.583153369149049 6.152089195130348 0.16543840424388928 1.0618794895681454 -0.5415398888974222
Ni 0.8515203020116385 7.376966299681495 11.179597681900507 0.15148039940190042 -0.20618421870268364 0.5059586493587028
P 0.32385772511358235 5.569509740357688 8.021651009128886 -1.3085783805554236 -0.1797674192720517 -0.7829294518566451
P 8.498657695787678 1.6880854440163524 8.183292934965127 0.4058740879302752 0.1322745158974109 -1.2918626104626396
P 1.6788200623922758 3.0273501215278356 10.52082360886997 0.4490033150195815 2.2675191270757984 0.05670902265627008
P 4.143320915085297 6.407446557743735 3.7194206398526473 -1.419365930223652 0.26571554129909725 1.1916708340323865
P 6.80544093474664 3.874588584262516 10.364223247340135 0.6359798504455627 0.8494989122467628 0.8351763249765036
P 6.386368267845517 7.810925225512886 10.301991976222572 -0.987656626397828 -0.8446035318276744 0.0834243271639273
P 2.349934680889247 8.433274200413077 5.844157591248679 -0.1156119676400654 0.09124536587024284 0.7987571629175212
P 6.909535956084849 4.020858317259437 1.6598477882976521 -0.018530968924651958 -0.2069637771811855 -0.582802495091635
Ni 5.4089702317479516 2.741193071055861 0.39831168459277044 0.17622289645390296 0.31318504763497024 -0.2782663813809143
Ni 1.4092899296292607 1.4251099794668476 6.933216168219964 0.6730579862447827 -0.9294435083922057 0.4144006373440476
Ni 6.945020010562966 0.5851514594367992 9.303839303968452 -0.8126470335257359 0.4923114908889134 0.48295241827151664
Ni 2.7270955481346872 1.6095926122147317 9.365817635607236 0.03442167201297943 0.12420150908128932 -1.4122547731001678
Ni 6.235882876868953 1.9914496317901837 2.4955625459615263 2.5073158916266043 0.4686678833280445 1.4617269116883664
Ni 3.9577322387384526 7.108741661002498 10.337884904195061 0.5277688032552589 -1.0117771735951155 0.2670154910574434
Ni 8.165439396773058 7.325000382392641 0.3708618582900507 0.811645588844415 -1.1644541644082784 -1.0876126326681914
Ni 7.407572883206821 3.7379921997909267 8.248443435909454 1.665191417467042 0.2687453292643565 -0.07970419799986272
Ni 2.990914144280121 8.602544200709689 12.467000700331237 0.8428083876004646 -1.1555969711279646 -0.4991699085716435
Ni 9.047001474800062 4.919681928175132 10.155025979714173 -0.3471783738612795 -0.234269406974674 0.5131687939538968
Ni 8.57388679237925 2.201180882760234 5.863847887089513 -0.8667016492782945 1.0500449588270626 -0.19874987391182544
Ni 3.811952066023038 2.590462899938542 11.641607505269135 -0.7853833127137764 -0.008645848600456078 -0.9398189380892588
Ni 1.3457196204824642 3.34112199824926 12.826335227178026 -0.9573610607380802 0.15509434200540387 -0.4343644820604842
Ni 2.889130935382362 8.501268683955715 8.115700978765062 1.1608492206658394 -0.3211032740407825 -1.3761611127014042
Ni 5.812413233365406 7.8905784965003 3.633318772046049 -0.1266617976963238 0.21982623496615042 -0.34128823362908967
Ni 3.353451664598325 8.589978820151009 3.8490444166852176 -0.2063711379025091 -1.050961557104061 -1.1563968413214407
Ni 3.463811244353595 3.984567394909947 9.360072555044441 -0.7461097119251344 1.5413375215331584 -0.32294264124236643
Ni 7.091815567565951 5.978020597481854 11.424369663315979 0.6732050533456083 0.5414540140518351 0.07360245597749904
Ni 0.6993713126710633 9.079076739169908 0.1840782922190838 0.3400746729369627 -0.014675599734303756 0.7275332344745276
Ni 4.839874536358354 0.31747621618482735 1.7084384594234485 -1.012475999434353 -0.4295922574828215 -0.1864584581389821
Ni 6.049414805201623 5.553789415762631 0.2417285483321014 -0.6679638595513271 0.22266447574589393 0.9113503983359208
Ni 7.9735589642157345 8.65895242425666 11.562061212269162 0.10493623309377412 1.0195444762453603 -0.17565776797905233
Ni 0.07879200752920833 5.028926398400303 5.720610708058592 0.08829528210298343 -0.575426514342538 0.13415270675673027
Ni 8.260386893591997 8.665371103503086 2.290478491293337 -1.2876331457623245 1.4533353451905615 1.3110044734984132
P 8.347555821493659 1.4654715048977573 3.7884849032696892 -0.08420465697337756 0.24836496583579162 -0.93318292082998
P 1.948041953496564 3.2577607614259865 1.6759688270490543 -0.022368083282555025 -0.04124615113398058 0.7097687114022551
P 4.775016864989817 0.8625725786632158 8.169254340596357 -0.555969691169507 0.4620228672077011 -0.20561986155878137
P 8.554739545813645 1.7597334978080144 12.57086907339097 -0.1374321488389504 -1.3004796627076893 -1.492237678682714
P 6.374265249774928 7.705234600294209 1.4066499304815787 -0.42563044462159594 0.09915510763562278 0.5800339312075623
P 1.860564783936176 3.406260713483107 5.836381742110743 -0.8781703120395263 -0.7185441436020399 0.6320679169856662
P 6.924059577769556 4.00273552091254 5.963298431905202 0.3977275475637408 0.29079305309301534 0.5281061319900194
P 2.348484131907004 8.714979878695793 10.223241671976604 -0.08128465511310516 -1.3795107458999274 0.2973853615985524
