# total energy = -381160.51487753773 ev
CRYSTAL
PRIMVEC
9.33105614366197 0.00000000000000 0.00000000000000
0.00000000000000 9.33105614366197 0.00000000000000
0.00000000000000 0.00000000000000 13.65694386386843
PRIMCOORD
 96 1
Ni 4.773068588632578 0.8370004182290925 4.1481332213787745 -0.6452412211428307 1.0499071476976176 0.5424855406401431
Ni 3.3634445711406737 3.401757888427073 3.4297370608292326 -1.5367745847528242 0.7190223687900391 0.6515630495958005
Ni 2.8611538089568276 5.761199460692446 12.96164157787594 0.6532126693840815 0.32730194665232665 1.054086732996604
Ni 0.19794156411588995 7.002920450602405 13.75090431192646 -1.0230203506091027 -0.1654322335963022 -0.07453576642504582
Ni 2.5398388842716946 0.18083027301998178 9.942323564827625 2.0106019007946214 -1.2045353486998802 -1.7635062885895563
Ni 2.6924016552489545 2.7026471550980693 10.392674868168 0.5808638833080254 -0.13070254342460072 -0.04353031918246696
Ni 4.8742359013503425 6.918334424981067 0.1528277729769998 0.16159203391460558 0.5130214697427552 0.6448717536185539
Ni 9.212281312874001 8.961929071570033 9.158933797630503 1.37878003838149 -3.0333216894441692 0.31686712447224785
Ni 5.7574670381608914 5.547462284423021 3.1072417575184956 -1.8504874798668065 -1.6954923824434285 -2.468705378343258
Ni 5.0307270470420615 7.946019644819076 3.329139875653163 2.223144971835797 1.0106307186954981 -4.227482379777945
Ni 9.079789644060172 1.7285035364751984 8.944861636438871 -0.5042666063682606 2.160729385713053 1.5936797825803004
Ni 6.249586948946254 6.3579205129246015 4.9477879528627735 2.2133590960936265 0.16732636529522152 1.001386574389411
Ni 3.5628119206636173 3.0621261001683395 6.161330085765134 -1.1905873711602204 -2.262827892247716 1.380667742322506
Ni 8.401197903598385 2.1949630423561284 3.237993184326988 1.0397690308223513 2.0322935268354416 -1.3258111994939425
Ni 7.044424989153282 -0.08343830569288405 8.614677542713133 -1.6241350137463642 1.6285485694330275 1.3059581693237572
Ni 5.159010409451564 1.8210862773703893 9.841917666306298 -1.154078220490593 -0.4203982496883792 -0.6460606317203325
Ni 6.474278785345789 5.314437814721791 7.583263632766103 1.572798311145601 0.42278397631173636 -0.4029689984683383
Ni 3.2872844893843194 0.67207679693296 7.747461297879847 -0.8977721454308539 1.9526176109703532 0.8168623571586642
Ni 7.081226675314403 3.007614069094997 10.265665194947392 -1.0017269884479651 1.4568708691476457 1.6371725636566128
Ni 4.546118636601452 0.23652921445835834 1.3330281754049909 0.5741414769825274 -0.8978276812591376 -0.05868440121508603
Ni 9.327090629944594 8.52159652340998 6.364436389559062 -0.7869066913368383 -0.24607848379446007 0.10260398541617168
Ni 7.884882563752226 6.192975430198913 2.8304425032615708 1.4543031084204694 -0.3671260206278 -2.2558090377277216
Ni 7.725041568838437 3.4192069637620865 13.144836340569663 -0.5078152429514673 -2.3354921526816614 -1.2565096848846427
Ni 6.292929705593922 6.758372126335003 11.776096346382763 -0.943256503015898 -0.28511117221688964 1.3643870028846115
P 3.6720785902748534 2.296102361904906 13.627500158871332 -0.7500388717762114 0.5212664833603667 0.5464998040058588
Ni 2.375416340700423 7.060427750757318 9.51846686282748 -0.4751375502127881 0.3069982020979681 0.42023112798289564
P 6.1606993063573015 8.600714550022591 4.837672157125608 0.02793169341326157 1.118711668065841 3.2504737200122666
Ni 0.17954352035222862 2.1014378647717202 0.7436096078558203 -0.4121064419932322 0.8692886932791802 -0.26784775715075165
P 7.477637941334398 1.3307485983438445 0.8282590846601936 0.5668896805161204 -0.8496035561454273 -0.034605505889011366
P 0.2837975465035879 6.889081563390015 10.444626457384697 -0.1966099447506872 0.7705912420062665 -0.08022870304476507
P 2.6353049215725104 2.63179644439285 8.225550099263465 -0.4983666959440578 0.777004601731778 -0.3598865654565673
Ni 7.74835987860432 4.507628029244804 4.325385967402262 0.3133979349767248 -1.2396481332426137 0.6981637801734751
Ni 6.690227421965161 8.854295336816353 13.218269887666716 -0.6368653383743096 1.3908251424714821 -0.20117648107544706
Ni 3.570090144600147 6.461821825146728 3.0094578858255843 -1.451230897253049 -3.1161675183968076 0.6012900123728613
Ni 6.704475944979367 6.9981056255367005 9.545425217667262 1.5531813082456218 -0.4764794089526632 -0.8207547502345348
Ni -0.011970812164325759 3.089046197677171 11.089807417555281 -0.06522631609866185 0.867252636685758 -0.3573373166721523
Ni 7.898860486132895 1.258890133555106 6.849271544668462 -0.5978434485851575 -0.036626135863465956 -0.36080547772641086
Ni 2.305153486543924 0.7059942535828216 0.5892067525705049 -1.727618830664328 0.6498969747472871 0.9883847628131042
Ni 1.8021628951354118 2.03042852610891 4.733333218361657 0.5296619065129136 0.6491672956701142 -1.0614681130623398
Ni 7.9133422855553235 1.074564446834324 11.201234226706653 0.4481846757730282 -0.3097495395908601 -0.06397778840354143
Ni 0.03580046381703067 -0.027717902824951023 12.925655426037965 0.9434434222157235 2.436031542259321 3.0131017628528687
Ni 5.799606088542134 9.419328121755617 11.192357592820986 -0.6098337881778142 -0.9168664430581435 -0.7861983524159041
Ni 7.299302792776759 8.221173833845219 1.5356138062557667 0.30360383170443844 -0.3957210586566733 1.4164189317801865
Ni 5.431421267917015 3.0357565349829123 3.1895519385012174 2.6418380659076117 -0.5535721374716079 0.14936386727952985
Ni 5.400750085763971 3.8454682789781827 5.392662859243727 2.6299089185701936 0.3925357189501562 1.5674768989326875
Ni 4.2657203939184765 4.609205908441039 1.466223405866018 -0.21470562591013345 -0.26489510228033086 -0.7988692630153532
Ni 0.5940915605586758 6.280071509972719 7.52298220956461 0.7834866099116959 0.9138225140254971 -0.8152214791211314
Ni 9.122684510004055 2.6407262652995924 5.35677281728594 -0.6278047708339382 1.6567270887497725 1.4745842272670087
Ni 1.4802321207325722 5.1970437950480965 11.317482392663162 -0.386402866579541 -0.4263030452085884 -1.558254094782839
Ni 2.2838040296634365 4.8456735379276275 5.931702120567619 -0.5187084928252035 1.3288283890537114 0.46106178884601234
Ni 2.4593958476603826 4.6933067191332745 9.023934873981103 -2.1977010778413955 0.41034986431344167 -0.5177571846555277
Ni 8.218654448636421 8.061939357592808 11.755296488720049 -0.4064464154939774 -2.1884615615209984 -3.1753648546925697
Ni 9.078455303005143 5.157405467762996 9.300078154978108 -0.5796402953135694 -0.8021494764285219 1.1736833963160302
Ni 6.858597002363551 4.023206239930772 1.5759295682303445 1.1048300249877423 1.511968838563054 1.1051930647541162
Ni 1.9287480052930572 8.310052145377844 7.412129260377464 0.2937261675794102 -0.5965483839228178 -0.20730239146752685
Ni 5.163377343813482 6.969281992536776 6.633860376893636 -2.053036415809748 0.012534899242217122 3.67541896564138
P 4.0307364023881815 5.166923145218457 4.716179937512269 -0.8732127109239348 1.578590749457662 -0.7828317499365164
Ni 4.065028034396832 7.693418618939848 11.332777860197467 0.5869399142987762 -0.14644335119862523 0.4764470130528311
P 3.1546155305002417 6.550326894426196 7.57681773905411 0.48364918722822514 -1.0651825857994495 -0.27011624146995417
Ni 1.0326586728613045 0.9830921016422707 11.138316780092254 -1.9016722302707378 0.3272322697566558 0.22868574223930938
P 2.9411489548643535 7.953811076853695 13.669372341041568 0.479953997764825 -0.731850888013275 0.21935366620510607
P 0.43995557348436654 7.478515060629312 2.7682351500337976 0.5880758276754323 -0.5981159855202538 -0.49492810257615405
P 6.945973013827223 2.451287159710582 5.01702905635126 0.6295243246282061 -1.0840513976794943 -0.6061134019034337
Ni 3.824837313435019 5.461178006549827 10.726819062199716 0.8838452509371165 -0.7546750849966423 0.43319205901893787
Ni 7.318590086208562 7.65844581981919 7.0970764075946455 0.2691273951941236 -0.7258910708854144 -0.8134507603739538
Ni 1.0096482879542754 4.0192312099346665 3.4005243227803943 -0.9082630176598486 -0.37503062018685734 0.5762459249200398
Ni 3.8285417427975865 7.9091339791509965 5.154636010244584 -0.3051953445612744 -0.9301011965808628 0.9280288874328663
Ni 7.632533476393878 3.451725695068249 8.259842664377748 0.2315273254531625 -0.1251034520702684 -1.9495929652114166
Ni 1.7428267079400361 2.5913183220381497 12.568007234219422 1.3577111335263328 -0.03251956989426012 1.14624175516531
Ni 5.53399757014044 2.149744743386355 7.620301394652343 0.7355231946585398 1.2477219113896836 -0.6356576912194536
Ni 8.44257180736066 5.486913059904889 11.801457224379039 -0.8872766452161688 0.18143863632688753 -1.144473093300661
Ni 0.5829017578090777 5.87106331790873 4.698043163325815 -0.6577280407559318 1.191011860292149 -0.6010367587114746
Ni 2.6941465627824557 8.326456142404021 2.2370349091318023 -1.2036370052553271 0.479804102450522 -0.3428355235115515
Ni 0.16083475241281545 0.17985331142234756 1.9784134857091773 -0.14047376387875163 -0.6862420890352245 0.5258667011365394
Ni 4.747221562601568 7.958513929243454 9.088928480628681 -1.0346291384926245 0.83236996587596 -1.0295468388737108
Ni 3.264050159125397 0.37180900290325813 12.243245417326397 1.4199408288905158 1.6258193434273225 -0.8340455538061702
Ni 1.9219456652293003 3.6860751747681797 1.3682071908705178 1.1811097706870883 -1.0745989940173428 -1.3909644962628238
Ni 0.48855171484519627 4.342822912364048 13.265740703634282 0.5670573164422363 1.2002246371396683 1.3525576143498512
Ni 4.541135852521828 4.3749124150790815 8.295405186258394 0.7163558777014696 -0.48501675699971303 0.16802159159003321
Ni 5.070188084256914 0.06469501284505401 6.989050768475152 3.708625277190019 -2.366818473598769 -2.1424269878594395
Ni 1.6763895868783796 8.087777052567487 4.591246424324836 -1.4127075443668702 -0.3716997560414115 -0.4001621251471625
Ni 4.990407552644952 2.4011420629991576 12.07486930518858 1.0608132530871601 -0.14442812054080933 -0.652755784352321
Ni 5.571499085526226 4.588117721137761 13.043651298844873 0.050555344350048416 0.7027822527820928 -0.4027278289918096
Ni 1.7871585565585657 7.9986561335703135 11.757918515548464 -1.4961179875737267 -0.9927358406929482 0.185386565231042
Ni 1.0454702132008626 1.2730546770623525 7.166031047653835 0.2581768097198909 0.3449965357186123 -1.0867955360835346
Ni 9.282114938439372 0.3961322674357611 4.4318831794950855 0.7550237265853126 1.4499736278071802 0.15395097242958
Ni 5.557539825258216 2.3007305658440327 0.9949248141729289 -0.19563472532161147 0.14966340079781965 -0.9937902500993917
Ni 1.8460655151628127 5.986255208288808 1.4351808476710854 -0.18984485811271176 0.7472605377001259 1.0369660141559174
P 2.2173202533201355 1.7941475177489001 2.5141616834658707 -1.3222795321916 -0.3367137268845298 0.006766886410188346
Ni 7.945861016861486 8.019884286718526 4.105345662582676 0.6140467978178973 -0.46790992211609744 0.2515577617414765
P 2.9768215832096785 0.4423881798693067 5.213101609884474 -0.5958536718486384 0.044085420354988594 2.02996590714353
Ni 6.7369853452292 0.849592678744922 2.950228072672358 -0.5775361044863732 -1.7052304356667987 -0.7301236209095232
P 8.508850300464724 5.329143559496114 6.235856299558301 -1.0538432495272303 -0.6003510454983596 0.966348094728039
P 7.7525588539523165 5.435666898546657 0.18602953760643615 -0.04667246435587445 1.065245577826901 0.660017865231373
P 5.920321964268911 5.097061526484101 10.384084697711629 0.5047980533916985 -1.0729946256447005 -0.5138066846482119
Ni 0.6725284200592779 3.865203463113773 7.526273273131808 -0.21106057295837843 -1.1022350105670564 -0.49069735232425815
