# total energy = -340870.9765826421 ev
CRYSTAL
PRIMVEC
9.21013568421133 0.00000000000000 0.00000000000000

0.00000000000000 9.21013568421133 0.00000000000000

0.00000000000000 0.00000000000000 13.47996454862519

PRIMCOORD
 96 1
Ni 3.889283705313832 6.803324568769784 2.129619137714315 1.0956601855630161 -0.5627149803131405 -0.31845246668149674
Ni 4.818337716974548 6.68945045180912 4.572215262466312 -0.6724622616423128 -0.0033984841585876953 -2.8635625463377394
Ni 9.226069167179416 8.238337381403818 1.5721010764565024 0.6641460284671337 0.7955725945419525 0.2471714597483227
Ni 2.160513616680091 4.146504373259273 8.19348678391406 -0.18711460366574226 1.3282285506861833 0.549323389497583
Ni 1.3670051711233941 8.742205481588549 12.775757672463975 0.3723888116886361 -0.25622739930300387 -0.435475712846792
Ni 5.542631993252743 4.413939081621196 11.86342005697631 0.509592132346232 -0.28225570504596553 0.029144996995072385
Ni -0.06782896487936821 2.3749716248836714 5.205598131942879 -0.5392518641941938 -1.230433813733197 0.2698665873529933
Ni 1.4582315645636545 0.7470534424397527 3.9147027586460657 -0.8187120087728932 -0.051879462478110656 -0.9536884969824995
Ni 2.8395769168669056 5.182257806222909 3.847909934025358 0.32885103630700135 0.8894291727827972 1.760766006840258
Ni 4.819627135963103 4.585883103744994 5.712067174430239 0.107355384058228 -0.9406805147586057 -0.9684435438044869
Ni 7.524275565813369 1.549734262072891 13.105814856032193 -0.02851044873486703 0.01783240019573058 -0.23485767537797617
Ni 0.02899166494409408 8.250853955728433 4.151720994081541 -0.33871841601938435 -1.5799961144456207 -0.6633057919540254
Ni 3.432488608346987 5.502088976198324 10.979457948358924 -0.7461467358106569 -2.770104489086894 0.37613362344304896
Ni 7.805949143863192 7.327418126803563 10.335331455667003 -0.03645644305482108 0.3707142521996906 -0.23778230522393887
Ni 9.05577375933384 3.497245071979342 8.82398503891052 -0.015503752062553946 -0.2550601184677801 -0.8475369034243854
Ni 4.99796299221588 1.1941401354363421 -0.015403951845415003 -0.436081721861907 -0.44419123834291885 3.6228977558142117
Ni 5.239259335652668 8.640783468003072 2.2619789179030403 -0.06232893994620879 0.09754405439476105 0.3179066214803557
Ni 6.22863973570649 6.820998819048619 8.257583801835127 0.6561298430308764 0.5896436863831845 0.3423562698822878
Ni 0.7375642396975517 1.9632325114311882 13.322316593332634 -0.8082717872761759 -1.4498715550116772 -0.5273162890988725
Ni 0.22607198923620728 5.970755937995506 9.034555448863607 1.0138291710281377 -0.5984348023122532 0.39013122327372163
Ni 0.7433684671731754 6.260488384723796 11.627979517774689 0.44087657214738907 -0.5266002368684544 0.21718391224729694
Ni -0.03637819372138725 2.341787506199647 2.4827127125266304 -0.44925502601907147 -0.15201107509438982 -0.2571910487678538
Ni 8.670569046638692 6.022783994183698 0.382457329235964 -1.3479864500394012 -1.4594779677531897 0.016788018091616248
Ni -0.003002504216206452 4.297237453021343 4.070450757260051 0.8470815610545218 1.7839735553049727 -0.01680370182090009
P 2.722018745653227 1.1940111935374869 12.541772334692293 1.350619516786874 -0.41311020066739823 -0.8549259967996051
P 1.402749707513263 0.8844815602670623 1.7034495837527759 0.8677771417306603 -1.3146420702510004 -0.13291497769488722
P 6.640820935669334 5.632486076483756 3.688509195619509 1.0232918591029345 0.02437765751341608 0.10674963215342906
P 8.393997883729293 3.502715892545068 0.7415531494400027 -0.6940513006669982 -0.49405701282511044 -0.43560735332864986
P 2.616516641982537 3.4222745679305056 5.804931129985964 -0.5208630772743611 2.072200647443025 -1.1081675740014076
P 8.452887490963723 1.8612763099790242 7.2984439611171705 -0.43514069810487643 0.7907872573381671 0.4766344464732888
P 2.844366187395824 6.623837445562939 9.170055885303027 -2.712078547391413 -2.4356934421936116 1.1177662734334364
P 7.395444188585468 5.955393431760437 11.933893251795778 -0.45752497933734754 -0.778768121390104 0.308767635293565
Ni 2.1345226139250766 2.986377268713883 1.3422685888415313 0.5321697605364318 -1.6634705781211934 -0.008043953350399048
Ni 0.9006775837768755 8.032886885848857 9.921011662210283 1.1130855801283153 0.18263188530404031 0.9280592264501694
Ni 0.6590321761996144 2.2845188828365437 10.859405672415955 -0.1700710179198942 1.7669932186968924 0.1601254766714081
Ni 6.830752352683474 0.3708230859049456 8.86166094074253 -0.395564478474151 -1.1784191112288027 -0.22726597907364732
Ni 2.277813904096058 0.9807412928305033 10.058358730844027 1.3520883880229166 -2.5415724988166293 0.22736419521440843
Ni 3.4643004168217635 4.743311952111917 1.086184451633145 1.6570690454702235 0.40367245229326604 -0.29864777325074376
Ni 3.4061292001666716 3.2231422254194637 12.59663619164174 -0.17437247350872548 0.35026112655166125 0.45352974213502534
Ni 3.4578256914720917 8.524938382017046 0.4451516435001939 -0.2367525784078439 -0.17580894884493592 -0.008583113683320702
Ni 3.2867197916908535 1.4773702264080624 4.944451183177288 2.0346607415160376 0.5716737321683251 2.361650556244584
Ni 6.071735865070621 3.336049278138712 7.275015218095128 3.581977620561083 -0.35966005126805806 3.7314651579026705
Ni 7.226511880813509 3.1181006285304007 3.6842900324862446 -1.2396437623672392 0.21032395190267 0.6794728886321911
Ni 3.127577858096279 7.690490883573731 11.100939637352061 0.24436407220651465 2.2916237334334855 0.2087010715872664
Ni 1.5250879391202272 7.431207145246601 7.3750372910644595 -1.295371909167479 -0.7703536720741636 2.437925416847924
Ni 1.4622563938350723 2.172855198427688 7.119241431101371 -0.07615196187223014 -0.3822747033437804 0.1874496184076578
Ni 6.527655999152375 1.479460927196648 2.0161852652368855 0.5254162438626822 0.15099368957346898 -0.5489665203787965
Ni 6.538302915943586 4.469899865724479 1.261538986981671 0.2156222241871319 -1.0155335553137543 -0.5119197520381441
Ni 6.517184074938182 6.744784946689391 1.681180396806869 0.9914628875177959 0.5356101536765486 1.330345082808554
Ni 6.953449779580107 0.5955494743252395 6.391215207864874 1.0476566611005442 0.2809022763418646 -0.562671785780031
Ni 4.029811954795053 2.823744693714578 7.317652619992386 -3.268968179272028 -0.7298384855689366 0.1536396118367483
Ni 0.05206029166290482 0.7559568805557243 9.041133327732362 -0.035520304393796893 1.4165981376705281 -0.5560506809190875
Ni 3.0530770709647026 3.0632082201604915 10.133185556776995 1.4086179476785288 1.2425071999579633 0.21633159154933065
Ni 8.69174314845789 6.22282814012236 2.7336557520249354 0.18619903383000835 -0.21464623342710776 0.572309308869795
Ni 6.938759613246214 7.864396664587259 4.481091101531573 -0.2684157138390797 -0.9648049186106352 -0.5402880187681921
Ni 5.392562043256215 6.974356787465962 13.23431927344514 -1.1799921121428776 -1.1909046452903231 -1.408088043316988
P 1.4009353107936533 4.3151051161484615 10.599323415329483 -1.1053293332216643 1.0593829483985369 -0.16030159723795617
P 5.065814061420768 8.765995261927388 10.121296192688957 -0.176376905533264 -0.2826663102208229 0.08258820441587712
P 1.454851444786514 4.776127665370639 2.321196405965988 -1.2441413931272767 -0.30838325537095274 0.8104073455619397
P 7.816623691061299 5.397157900936851 7.8074071083338215 -0.4595584648276086 -1.439226416593005 -1.0019373046865585
P 5.316569214152168 3.3726043064642437 9.785052561016364 0.1339421334078209 0.7587271435788288 0.2930206568719534
P 3.1114232801968127 6.276504810588775 13.029706900232739 1.7411947695765495 0.9998140876959682 -1.7603242913171488
P 6.438308473381151 8.726631142233932 0.43137143856679483 1.0005661353706445 0.9947490144682353 0.06604932622058947
P 5.397544726633417 2.424816878926951 5.57400539927141 0.03326030471502659 -1.6066358285203364 -1.573380151791
Ni 4.598961496343193 1.4707389287526371 9.096954117774033 0.11841395586523476 -1.6098913593431565 -0.043683042710247345
Ni 7.189183201094843 4.715488132366029 9.832407394384607 -0.5007488230229892 1.0954105314460554 0.2152627839651841
Ni 8.426657024682264 7.994895076364649 12.8282084738777 -1.610519994066091 0.6504312499842024 -1.1035192765961188
Ni 5.050341033558108 1.7612173964671627 11.50062084123443 0.0105957732379753 0.9404138913607805 -3.523326643687094
Ni 7.281395079047785 2.3518818148529053 10.03755856053151 -0.2543898318736329 -0.6120333669322943 0.7831587942586319
Ni 1.7445838915148042 6.37759525929148 1.0349539931907317 -1.9782857051604188 2.0180254469522017 0.3848686893232017
Ni 0.3331508681271872 0.052866178530751644 6.277915803367679 0.19533390625174102 1.9501807193940863 0.9160341769648354
Ni 2.5454696557131613 8.376130220602176 5.648213304089873 0.9999377577580261 0.1643163748243041 -0.4332838474017957
Ni 0.959309307213594 4.250928891060957 13.164668543737655 1.907161535520083 1.6068446020970326 0.01228370246335949
Ni 8.514724341600564 7.272544138704919 6.098133955820594 -0.8402899920539851 -2.012848530736953 1.7674902129379686
Ni 4.986689786201658 4.321257486750995 3.0434930038254864 -0.3728503247060869 0.6526521688949213 1.2883885358711102
Ni 2.0738186099710374 7.492951894527118 3.2976439335646037 -1.8855501278978948 -1.1585395986960563 0.051024313566666965
Ni 7.270573169679556 4.519404344749355 5.875862989559933 1.4094062479077791 1.123230381871801 -2.0887675506627703
Ni 0.49660775026560444 4.85819918399216 6.617112204524062 -0.1674862879118535 -0.4100328472936551 -0.6063026350961042
Ni 3.3487224247690803 6.026698301827524 6.573895485095518 -2.0679372441809805 0.006953291389381573 -0.4436438504798811
Ni 3.8692056096349057 7.889374552422694 8.069955839742684 1.3248997434232666 1.5768046040915167 0.24008909898024455
Ni 6.520693136614179 9.02358433529813 11.665008868085296 0.29771394858256467 0.07286737758368741 -0.3188435314723283
Ni 5.839244411298536 0.6466611220179932 4.245366890152469 -0.800618384495976 1.5431555485785038 0.3391611599837578
Ni 3.7629482748423477 1.344817954384617 2.667860385093231 -0.36999331487326603 0.926434803472869 -1.9491761893889723
Ni 5.525178786229089 6.553932516111998 10.623438313456152 0.04003696131722782 0.9741331379900964 0.2797550501112988
Ni 2.08105777657821 2.995495302990093 3.6264743270665685 -0.06607426592125394 0.31312077005593814 1.3258032290741424
Ni 4.357895406297219 5.026274949150294 8.508944060477585 0.8675981929506349 0.1656374076285728 0.9073937276810179
Ni 8.329729557285464 3.672237648997509 11.997478186175677 -1.7138436312571066 0.8702669980320497 -0.5240489312015103
Ni 4.690620766158183 0.39444339974814524 6.822439284261548 -0.1695611681630112 0.4744487516758797 -1.1599629614061442
P 3.545386450930603 8.801334552349426 3.8245088214102125 2.086967521339554 -0.36840822977433324 -0.19711902317662183
P 9.001719473306492 0.5313428557901474 11.415144335469561 -1.516373652498969 -2.0763504079453403 0.6917301087329893
P 4.767506978418587 2.909270013198299 1.452951393805522 0.07731101517733784 -0.028036851532558162 -1.172688893613245
P 5.156800991334581 7.186466211083246 6.468401670546897 0.9946819086757257 1.286554825096481 0.8079665973309311
P 2.636161861286735 0.5569921625131945 7.901564166932355 0.342022797802269 -0.31456341603973564 -0.45075732159621074
P 1.253600771079989 6.446560754907903 5.3042580258521586 0.39212357111340207 0.5725959868722783 -0.4168809805637401
P 8.137937692873551 0.778327378993589 3.833513571018142 -1.4404844573698223 1.0804950477868036 0.11506535110797601
P 8.472081413621927 8.08535702854741 8.296689116717307 0.2465394825912786 -0.6272301292773907 -0.7209918338115842
