# total energy = -340864.56048567995 ev
CRYSTAL
PRIMVEC
9.35096065449760 0.00000000000000 0.00000000000000
0.00000000000000 9.35096065449760 0.00000000000000
0.00000000000000 0.00000000000000 13.68607612744596
PRIMCOORD
 96 1
Ni 4.152453109750952 6.045564474752608 13.000307906590765 0.2134262449770776 -0.5847243947046963 1.0183797665132976
Ni 0.7586191372383208 9.10743372827458 10.281227109185913 0.40487804256559307 0.3105275554074652 -0.6321409363154469
Ni 8.44836866010163 6.615673852831356 3.0617533016080483 -0.1784247892012282 -1.8253161228075017 -0.14322870091606946
Ni -0.06261309842339421 5.859545811550262 11.809482685677585 2.3057432035540035 2.413174435155489 0.4547803267126748
Ni 2.096597622979146 1.1105668594594325 12.596049039460059 -2.7880641588891075 -1.681923128399426 -0.7629486378593441
Ni 6.959059835343623 8.889734009880481 8.862596586541642 0.514796559365307 -1.2347018449809315 -0.23609566155013534
Ni 5.296804990582228 4.411886166197232 5.960012534389753 0.969935297858665 0.6169331182267568 1.0787058170968649
Ni 6.783607757845729 1.2741619186624196 4.223482072894705 1.5400725387778058 0.8800968396382779 1.0278727936053975
Ni 5.4042007753748145 8.926511338708453 3.788812011048941 -0.6928565090279486 -1.3129186598019904 0.40223263452294594
Ni 6.872881380607142 5.346467943393149 4.200749887188935 -0.5658098171883804 -0.6247775539718401 -0.39293629682268455
Ni 7.869263657732898 6.408858652808924 0.24705238434655163 -1.6503368689527125 1.1850062775280172 -1.7932513810624728
Ni 4.119949170008764 3.483522777933582 12.951818499360293 -0.1493983200618911 0.20443663988395758 -0.4230999648902584
Ni 3.3253793288772275 2.609703544018661 8.425490599407373 -0.32016944937260344 0.3733997694516537 -2.014046664810112
Ni 4.809049524272595 9.018393879533178 1.44461964799682 -1.1876156901264063 -1.3266432084769346 -0.1263820616723759
Ni 1.056752080053134 5.673704816603125 4.423874097943345 0.23494637843704055 -0.7172251676803002 1.2904510748270936
Ni 9.0118949617769 1.2887494175110428 0.5655498495924747 0.4179896402468866 -0.5877734659436652 -1.4586899246342557
Ni 5.7449591379021685 0.28132085039177523 13.007137848359378 1.5375960522128551 -0.0630269944544979 0.126154261932286
Ni 3.7399635269237343 2.824644728976641 10.550582470137497 -0.09915485052530666 0.5831691344024343 1.5015661551724915
Ni 5.7352434896305535 4.6232459331686595 11.050151940322355 -0.4401456075186355 -0.332429240576563 -0.9751582368205013
Ni 9.060697626194184 0.7676643216205471 2.8478397872420316 0.1523280921141764 1.1244184886426312 3.163492785845332
Ni 3.044607379884436 7.168512006311769 4.221771782164312 -0.09460682614330804 0.2251571602607606 -0.34156051345386984
Ni 7.802684816834054 7.948110959201865 10.950243469842647 0.6286493782224205 -0.17288431899897322 0.7563535011403297
Ni 2.569550518341746 1.2848594178180766 6.538345147396374 -0.25012360039811116 1.483779777723348 -2.204858257711467
Ni 5.609819052414796 1.5549619205376126 8.866948523698149 -0.6786905019402119 -0.35044573175864163 -0.6586649507479043
P 9.001449938562853 0.09078006254635725 8.014566367418144 -0.2783473711304948 0.10293180106923563 -0.08273887106112848
P 5.007888354732288 6.511812731221321 4.8962481688324 0.9386148904788286 0.9910977908688933 1.6340093354372827
P 3.356293605283348 3.3064997390212216 5.902366666343531 -0.049023738196870406 -0.4928125988950481 -0.6105069029854389
P 4.1498909464916425 6.695802235929979 1.590130884107915 0.46091600729676746 1.0848168150906092 -1.1050105164296646
P 2.077615172554335 4.679725736403071 12.53613088793934 -0.2527628377931711 0.9570216751207905 -0.04173234674177974
P 7.676428144107062 8.664768594944475 0.11475686113466128 -1.998082942392004 0.6287601927686719 -2.2804258078351367
P 5.246001220553657 1.6151540552097834 2.4025086949877315 0.6874499933003967 -0.08158701684487239 0.7969640755728403
P 4.017630956930794 1.270028793988643 12.11325893333544 2.3088110438460494 -0.18894728599910685 -0.10737029645656347
Ni 9.542374967983557 8.237420335405421 12.692262010231449 -0.7037147918986912 0.16562943720877282 -0.12664688529798834
Ni 3.3487941347214276 1.293995306520067 3.417809836004855 0.19646879118713262 -1.3881650791408158 0.19177112860114714
Ni 1.8882582163462478 3.1366675889643676 0.38490050808171916 -1.0247890124737513 -0.3302021510182571 0.6973767654958055
Ni 0.6196909775307071 2.8346409060722677 11.90442299068404 -1.5507847829889871 -0.8515768778217141 1.1743094599358033
Ni 1.88081485154913 7.008816297762547 6.778795753417843 -1.3269802801013793 1.0651270499711656 -0.7006688059835159
Ni 6.61575801147856 0.08300567373690518 6.67732754267663 0.3315460666406612 -0.11510931697203401 -0.8927134999610239
Ni 4.855271323508969 6.760828817335956 7.787514753127566 1.4097543752758173 -0.9581691584616723 -2.195071867748665
Ni 8.240300431331946 1.1183936136493668 10.094809159957391 -0.3692016722099061 0.9755210194765586 0.13967080836148205
Ni 5.804393844749507 2.018863085845426 11.190009585533527 2.3649202281347916 0.26813700625639625 0.7910595371629473
Ni 3.5271824139106465 1.5015679343673323 0.6479383599165535 0.6082908691707265 -0.6330583059233936 0.9723716752142995
Ni 3.8196898187079396 7.49847000911466 9.521457803769144 -1.857330470930569 0.2543988307346974 1.8656045380139032
Ni 4.423930203708147 8.52886173067147 6.001084759513347 -0.6222385896000703 -0.8122302577032915 1.0187448631622003
Ni 6.26291820759709 6.559914073578575 9.767355344456846 -0.44018365984542257 0.2199509334694728 -0.011163215705671097
Ni 3.472030447109891 5.331235228249298 10.858491842469128 -0.7267408204802195 0.7406808276000793 0.3825590673534186
Ni 0.8542775960342464 1.9581566483292332 8.230163054728232 -0.7844348327575781 0.56922012842151 -0.020732861671977194
Ni 5.530373289454603 8.629908213080585 10.736713344869447 -0.6591912555650195 0.6932365180751867 0.9788793944258302
Ni 7.534892001432216 2.9590273866391805 2.6878906676551204 -0.37047128295094905 0.7771377848755325 0.4137768877171197
Ni 6.424615021757597 4.473088204635847 13.222706482787062 0.03500994041628164 0.43832886602487087 1.0366479686948662
Ni 5.209186487882485 3.4974837624085784 3.9463803760160707 0.26919321543505254 -2.778230203517822 -0.39236962568593714
Ni 8.99434320835455 8.253494637021308 1.5737068565580932 1.564628116629983 -1.9175963577001618 -0.6199582782063258
Ni 8.432537483466556 5.904654846451389 9.180838770557715 1.4013761785144512 -0.03837191490997908 -0.9502653302335635
Ni 2.634689311277328 3.4066672311150996 3.6568923964612265 0.681558053295994 2.8851153328078505 0.14101318132198942
Ni 8.651415422921502 3.5518221956196987 0.547689514463712 0.624437397023602 2.191539172005058 0.9240989562508407
Ni 2.571214989364217 5.145684113086973 1.2691797267479668 1.8999375069678186 0.2115591098613518 1.0300206931863358
P 1.3724685695570182 1.7374833244006083 2.104767557430455 1.4033384444471444 2.04304253782183 -0.31159559166066336
P 4.366019703471274 9.214408719831148 8.386554133730591 0.6121560085530877 -0.09849741944696586 -0.8639058317007121
P 1.1847760843714021 6.3821990635669845 2.4300996399253902 0.42446547777921734 0.3570992325194173 0.3061715924316147
P 1.1842430796057792 7.189673230603073 8.92948026876258 0.10237104346975918 -0.13598384642819805 0.5172745885921542
P 7.835487987321855 8.459860990925321 3.8865304865091947 -0.6972883195470573 0.8913158482825487 0.8544490571631866
P 0.5475651466850666 4.369732034909032 8.168274655766869 0.2879764095798266 0.214110929748928 -0.16158637748765073
P 2.533493213495406 9.091649306443506 4.9941452476439405 -0.38652447975906984 0.8876437987476004 -0.1638366069744082
P 7.287568439222453 2.827047925902344 9.132773896947583 1.038224826263683 -0.7447724811709495 0.8568000738938664
Ni 3.792095133385961 8.333884847022341 12.784273594315218 -0.1048722126250581 0.8729103491921676 -0.01627893966568164
Ni 1.4943115887862224 4.071052995983476 10.277750421960324 -0.4323160841718877 0.9420660822522227 -1.4924320540817073
Ni 7.1424041237570535 0.2788372352031892 2.0107716994648404 -2.8806606394706065 0.14075735655744145 -0.8005309669884922
Ni 1.690765924241813 8.965822777913331 2.2117247821615034 2.922988196594224 0.04682055989796453 -0.41927339205531666
Ni 8.090657005643154 4.3860494615057295 11.126547419869455 -1.8532118207765054 -3.348294167996866 -1.1898618058481056
Ni 2.228530328911981 9.076893490300476 7.9746302840317975 -0.6059470515288984 -1.2077111753247005 1.82515285775676
Ni 3.4076958368031436 5.502834709897426 6.176458288940518 -1.4879459932858954 -0.009561161325873856 -0.7812980869008094
Ni 8.80375192532081 1.286392975389342 6.114035950117452 -0.40601755548667495 0.06263412989145344 -0.04641895358417166
Ni 8.60475412852751 7.625671128882494 5.886504631537814 -0.6405343025854645 0.055574909051826875 0.38491754028326614
Ni 1.0977092883588833 1.946327682916728 4.408503923675728 -0.33049499966832757 -1.1546652033423146 0.24899051523493249
Ni 6.394841562569124 2.2343559774906296 0.6003531905954812 -0.5896511425823522 0.056897741628308456 0.029925841025154918
Ni 6.411701344892244 4.4960261114792255 8.387539724998954 -0.4199125683012123 1.6209854123737888 -0.07871020951770961
Ni 1.0500474411592478 3.6707103112359767 6.063027394047352 0.26985424605781916 0.3698539610819243 0.6157804926795524
Ni 4.938513576554125 1.5035503380570168 5.683457868717941 -1.1465207198583094 0.6615114190577639 -0.13878969130810936
Ni 0.3750735833765794 4.048348863160106 2.6429181567816795 0.9697756323523491 0.13069560144606523 0.04528972507573491
Ni 0.5646362607222757 5.75788216572832 0.4206688682393268 1.030759371124573 -0.5748027647156101 -0.3283866950760732
Ni 7.795858615449762 4.967744680016174 6.489650019028295 1.3679222697313795 0.5060779485453865 -0.03732753280586475
Ni 2.701071781999363 5.474454543868215 8.48323184725376 -2.0379406978188905 0.3637902713863477 -0.6058156681573567
Ni 4.355612084100429 5.4354049315657464 3.2634862544354637 -0.47585257400194175 -0.586253429754713 -1.3743819093137943
Ni 2.063794452491345 7.521838060154859 11.337641619554152 0.1140507938005326 -1.0747118654461232 -0.24635616293587898
Ni 0.8294227422267848 8.035430231155994 4.112502064827326 -0.8845803293309282 0.5757409602591632 0.8438082896198887
Ni 6.274775225891997 7.238737721922768 1.9657178352324363 0.40294894386368024 -0.9926337678974453 0.5457130464385054
Ni 6.661951757832534 2.7830610062972654 6.689343527305143 0.8903426857360021 -1.9484799346528958 1.422954418905859
Ni 4.472845079655036 3.501485973631149 1.6798430669308664 -0.056382235444470644 0.5408505761398814 -0.29243367402023185
P 7.066034826900191 6.87773452926255 7.3578540009825755 0.09666627977549803 0.26813854891829303 0.9684617986369322
P 7.7196202320441065 3.2772218807551705 4.961955500184646 0.7998087441104871 -0.08325489146559854 -0.8928747081292365
P 1.7978344254063856 1.8803847073523114 10.156751794491395 -0.6422739109843906 -0.7089125340495469 0.6999134158747301
P 1.9377996066667638 8.373804098679248 0.14309775312851172 0.18455609890994668 0.4221152323794859 -0.520268895333788
P 7.192478518843192 4.970054367333872 1.6366902530291834 -0.08125508742675039 -0.31101889322158693 1.3054280078519
P 6.066548030788703 6.6750337519922915 12.153960860411336 0.20178686096593632 -0.06694715544451052 -0.7617620737504107
P 7.742146696612268 2.6781432261167843 12.67308786511023 -0.485896331391189 -1.0686669448036241 -3.209429914697079
P 4.4257068862602225 4.5914152626041 9.06693004156765 0.9324882087558005 -1.134927101483439 0.5540933000824005
