# total energy = -340886.2761233555 ev
CRYSTAL
PRIMVEC
9.10825194657039 0.00000000000000 0.00000000000000
0.00000000000000 9.10825194657039 0.00000000000000
0.00000000000000 0.00000000000000 13.33084740002695
PRIMCOORD
 96 1
Ni 6.73096185873514 2.3043058035540946 11.385449909951385 0.37010824318457547 -0.03854777836621104 -0.17300336107534078
Ni 4.812199257740192 0.39720540853039016 5.863572993483647 0.8240920421378839 -0.7202451854535467 0.024380485726893497
Ni 3.2380200496724973 1.8098552307995792 4.82574049611683 -1.5820897637498559 0.04595075569850151 0.2904292419956933
Ni 3.7942518963280905 4.439680855664392 4.941851582887217 -1.2144549218064373 1.3144458950797944 -1.2479160296783607
Ni 3.9206197857728116 2.7877991490488436 2.767924032171423 -1.0620982904471707 1.6449102986205026 -1.252983674009255
Ni 5.161764864558627 4.708082828142196 2.4973205951643713 0.7108457465165177 0.8724020420971815 0.8192200587575633
Ni 5.707003050946108 3.0339769864361816 0.23298180176476987 -0.0824017994366839 2.1878717504557996 0.6011727700687066
Ni 5.842023779872774 8.332939452170088 12.203884652714875 -0.4230058625145554 -0.9267538773751846 0.9095030607145369
Ni 1.877511327296292 6.86718487693719 0.15124616919312214 2.4065330185795717 0.1015140947861026 0.02235625620801311
Ni 0.7779385431627855 0.45350533632595824 0.4083411575310472 0.947317303348833 -0.26212396729309695 0.1981955440702522
Ni 8.17727031576388 0.3813069545138296 6.505386887566914 0.11090736307554448 -1.9559672441688762 0.7465403717046498
Ni 8.605467462842967 2.63314102862421 1.1412885786885605 0.6320416917334211 0.24843824227588826 0.15883503999475873
Ni 7.153238641958159 0.8463415163305712 4.44026560544833 -0.423439093397232 0.31366532970549854 -0.17529807064678843
Ni 0.8558641938867523 7.504698765210535 2.2983845288728193 0.3117735119994243 0.2447314828482624 0.4451916545829752
Ni 7.784139939216881 3.7493208887865874 3.825326519970771 -0.1427507328383864 1.2399309545903547 -1.2150082232067463
Ni 8.380885291152143 3.9378434904679223 12.485285011744976 -1.0630591116985435 -0.26163185814802686 -0.483733005191283
Ni 8.426135087516665 7.532069062729735 9.12596490408855 0.05239214044847107 0.025251575477937153 1.367518863645374
Ni 6.955070401317478 0.9653198808577127 0.10937917765343594 0.2588424683283478 -1.1645703782711687 0.48275829998283964
Ni 1.9915557516683082 6.413202268201912 8.939253022921962 0.26215224942787113 1.367174850042394 0.8487658907354801
Ni 0.3566071965063195 5.18618408840188 1.277291177190124 -0.5148199564040746 -1.0727483139618492 -0.6740393763214456
Ni 6.783953669372979 2.2094615745799064 7.104928472892655 -1.1018634861602508 0.17605654607936777 0.18607304977510536
Ni 3.9745861793838806 4.8999936995996185 0.4120627893334916 -0.9392242419280535 -1.169127915734864 -0.3526309123354185
Ni 6.409668266392445 5.773611698452902 4.747648164379684 -0.2227755474024615 0.7204693856492108 0.1284849669479916
Ni 5.57921427417593 3.112890882511507 9.323114842145985 0.09887100073630069 -0.3884281245396859 -1.4230215246983684
P 0.4822773938412336 5.646569798353797 12.243117537751216 0.8042768071841697 1.470387672687158 0.6401293538375621
P 4.100025027115803 6.678871765053839 12.55880500093482 -0.010776521790213697 0.6976292478262437 -0.4727597940092309
P 2.7890105465763155 8.595384627783481 1.623510412192068 -1.4454968229827494 -0.26934028253587805 -1.14646621247129
P 6.494821315146856 8.031028220266949 5.503694112827944 -0.29775405779188074 0.10856354543371625 0.8825980087935767
P 4.790175504195624 1.43035079937362 12.60388993793658 0.7854514469475504 -1.7714000895153363 -1.4414452786211949
P 4.125373292671855 6.20871290061337 8.175155379629452 -0.3421870912942752 0.6999275569421172 1.1403122770547525
P 5.1957568613445355 1.5006118559670019 3.6730483858162764 -0.45131602231315826 -3.46286355330503 0.5031661742152302
P 0.44448543428493853 5.581445795937063 3.647853138895274 -0.026490847201676958 1.2420114912684674 -0.577885774516308
Ni 0.7309344974464507 0.14164424984379062 4.39167399139336 0.37954496311744307 0.862235900197457 -0.20630017545525758
Ni 2.0754791863910746 7.022644523545415 4.508439050663541 0.09217327700115092 -0.6773329594710529 0.4281303282253142
Ni 6.0045696466041045 5.97426649191313 9.287641843570853 0.4327220613610548 -0.45006389507361205 -0.16057182018020733
Ni 0.010784170470127585 2.554272673809315 10.13765671796781 -0.5475752964582247 -0.23600258761569679 0.024327263891454877
Ni 2.2828467616388743 5.50602946866286 6.890435512037778 0.6303020833344952 -1.0426635787613268 -1.651893414806555
Ni 0.6381277844639583 0.1533055449898247 8.605022069315948 0.7812664623319254 -0.025717459370762162 1.5268709524858672
Ni 1.6306685875066569 1.3579948448003991 11.568296248932564 -0.8119044989327565 1.0334680283049877 -0.25984108479619117
Ni 4.414032017789494 6.9101849350364075 1.5696269036749837 0.030707456386185824 1.3932476358700456 -0.0522836398950648
Ni 5.794578894755464 8.282488843864314 8.24723535416446 -0.564043726426893 -0.20581603672998747 -0.798475112900728
Ni 5.504918261908338 2.9701645723198693 5.08750437447417 0.36606749745629863 -0.42009537373597977 0.028222485180803007
Ni 0.8904445837574333 7.517787323458485 6.751714100288466 -0.3991205712565255 1.0091531057087073 -0.5153259495062158
Ni 5.026835218152825 4.657777951869801 6.903632458485554 0.5204535005407682 0.10564148669091483 1.4524801962791178
Ni 1.3438406210583564 7.363912512713269 11.020291886386488 -0.0564043469316577 -0.04517016877873511 0.42530391452011274
Ni 5.062858355153969 0.6922572157873715 10.335179183535576 -0.24357731463916113 0.2458296010084476 -0.5954510370935809
Ni 8.296834340900169 7.579104076503164 4.5061601659915596 0.38204613227274203 -1.1268260696428594 -0.15264870867838873
Ni 7.539619803709242 6.869452831706668 7.104462130385839 -2.1677351276069246 -0.022643191320812616 -1.865230699614252
Ni 2.4197528987473946 5.574232060284749 2.3550405893249597 0.9903578273790749 -0.7023814177992483 1.0163079715859338
Ni 3.1008133402451312 5.383732967900696 10.99692284400878 -1.803213120260875 -0.14871980593762776 0.7197191377467476
Ni 1.5370357560599412 3.541425034917785 3.809982758506264 -1.1087237036151938 0.15365992355172245 -0.6122418833986746
Ni 1.837234636570866 1.4376556175467976 2.443717620811544 -0.2743102249466437 -0.8933603895164034 0.47096644955423406
Ni 1.2674679273150966 3.754057179871441 8.286854429089257 -1.4840286605093602 -0.46004594598698834 -1.1761100034796519
Ni 3.7229980402573064 2.70683589625411 7.173035427867638 -0.5397588857375994 -0.38723538978316535 -0.6167287155254346
Ni 4.298147726496053 6.834112813611993 6.124365021343384 0.5940081339994674 1.1225480110927957 -1.0926753919030794
Ni 8.78487270418596 7.560969546599428 13.26372724124813 -1.8521905786008424 -0.49645868028806756 -0.06396467577741888
P 0.03521341339067589 5.9602944332128125 7.983698099125926 2.138139673337995 -2.8048488345466143 0.38632907591881205
P 8.93831942708312 2.0686844303347276 7.825620740868111 -2.5999671367054384 0.5825770093443903 2.013692109684171
P 2.093313143975965 3.3251404808775398 10.59033229252871 -0.7888324476046416 1.0549377681429897 -0.5222668996004232
P 4.427238983314565 6.492261896310618 3.9719930600149236 -1.1021812745109858 -0.8215577057518043 -1.8280314648561353
P 6.967120618827596 4.32907935058098 10.554698988716858 1.135454948962451 -1.4824834275094274 -1.2638064756563716
P 6.708865239173881 8.008676569647275 10.229225619491782 -0.5867267698467056 0.4047330323472965 0.5670922834452299
P 2.417721758532159 8.891002057495019 5.703962716399716 1.151990741833945 -0.5106136316322109 -1.889726370762771
P 7.164031920680372 4.3776445507048996 1.693270514920706 0.17960621110383906 -1.6937432609628058 -1.208823691662589
Ni 3.00315466137629 1.9322063810742616 0.3653292587041186 -0.559768496090307 0.12152910445544877 -1.0263733262417356
Ni 1.387059277207643 1.2844183844476198 6.786348228846457 2.5430079457115755 1.7209691865582941 -1.6820408849242128
Ni 7.266973385759243 0.9848206485743877 9.2464224487545 0.37528850183393436 -0.09949912123860284 -0.5165209982555815
Ni 2.5828816936122467 1.7607617520546572 9.249222325445816 0.5638272395407128 -0.6874625917058871 -0.8761188288271363
Ni 6.601260349026848 2.0370970120995904 2.258831944188251 0.4371399879230923 0.6819123513116192 0.36239827613482745
Ni 4.369884319927409 7.405610090764151 10.378998073497346 -0.23871098768579535 -0.460051345303627 -0.8617898137989738
Ni 7.5240720173980025 6.108658751445843 11.468541761258676 0.4373431050728339 1.8308136555869632 -0.2953197373187753
Ni 7.76107784493448 4.130756269654833 8.398500650686962 0.20738698076153314 0.0988792282664168 -0.6585788187920013
Ni 3.203217418450912 8.960862350996605 11.85142990833468 1.2133331494971684 -1.1391766207884124 1.4886329920505912
Ni 0.26502645425463717 5.037400790572882 10.10316923226841 0.0580565378231 0.37010232964730455 0.6945122994638168
Ni 8.608391211762655 2.5377958457852774 5.538353744491776 1.4417160157840783 0.19070334945826511 0.6190882168965468
Ni 4.133761992843297 2.9086110047209486 11.100449969696797 -0.8016583957247162 -0.31157887949011503 1.0830453250124834
Ni 1.8545312072826672 3.796574500610085 12.7427707440974 -0.9044845244540228 0.8959420342006505 -0.15395945707001224
Ni 3.1707100667550625 8.381377136764801 7.587931794425163 0.2445851870783852 0.22640620217651333 1.8944538581454275
Ni 5.963700919493072 8.019424307109057 3.1935644928898976 0.5363244061347537 0.24486055222695896 0.22369985898894376
Ni 3.6396211006597152 8.69110324895795 3.586744964823371 -0.031060468850230376 0.34699016910987335 0.7795399665591219
Ni 3.3575203170441816 4.267097695134005 8.921376256552266 1.519630725983686 0.22116089461717395 0.4358711485129977
Ni 5.24856650694065 4.930897998928286 11.61519372809949 0.3474267424266597 0.06468869842763697 0.12209011916524135
Ni 8.214768989602998 -0.014515821349866835 2.275336096968547 -0.3569179697465466 -0.14760034762120386 -0.14988374433874188
Ni 4.5850849919693895 0.7650576530624018 1.4405711690396081 1.3842297486421515 -1.5337627945096939 0.8650916244786974
Ni 6.385540506615952 5.782209888422327 0.18967115226941206 0.25619911716822974 0.8764343031850261 1.1633725013083256
Ni 8.732691527983796 8.975016574738648 11.077560932204033 -0.9348446248031189 0.677345300766227 0.5071354432756234
Ni 9.084434007050845 5.251927451960479 5.821834428298377 -0.44730381582997153 -0.8222837852845516 -0.4615233018634632
Ni 7.617631982828028 6.244490114808185 2.510785324223484 0.13751905212580187 0.76456406197558 0.2799111160731889
P 8.920767825312904 1.8442479906772835 3.1790340983366927 -0.45508654509918395 0.17535926290202702 1.3214387814578594
P 2.092557159052806 3.461727829163041 1.6166582741475775 -0.06721300751138747 1.0812108429069056 -0.6610794737266679
P 4.941017266996116 1.139961506359593 7.93677329520274 0.6104577949150582 0.5311893989010336 1.4833390906415034
P 8.717908834847803 1.7007565873104 12.409245680028073 0.08685829254614075 0.3230053761595018 -0.8761926194878652
P 6.72125246201119 7.945255810370671 0.9765321391758944 0.12495407097659769 -0.2999333248313867 0.39436274485656597
P 1.983586031092834 3.5058937435292985 5.857934074617045 0.10944774781088246 -0.23366262662861048 1.6329168737040523
P 6.8942181691292 4.191162197490885 6.115072782564985 2.7838069262746505 0.09902835224977137 0.1544022010343857
P 2.5982473148817613 8.766510467980066 9.760259936074611 -0.7256403883271889 -0.37991880151709406 0.4275929676646055
