# total energy = -340894.0697363526 ev
CRYSTAL
PRIMVEC
9.09452621229890 0.00000000000000 0.00000000000000
0.00000000000000 9.09452621229890 0.00000000000000
0.00000000000000 0.00000000000000 13.31075840050106
PRIMCOORD
 96 1
Ni 6.3525448010991274 1.865732973421243 11.26647923697951 1.0403040773902148 0.2506283079486716 2.3781174435513557
Ni 4.743904991308442 0.3544800794784855 6.048967694706234 -0.6550088420525558 -1.1458455481681558 -0.7788249427699684
Ni 2.785198675646753 1.513765711556084 4.707935230387461 0.10497222853803213 -0.020966574949338086 1.11124364182357
Ni 3.3134997077065727 4.316544106517204 4.845062497755303 -0.08361098925343664 0.2367474362015213 0.8233693050392464
Ni 5.154959390465607 4.598783635333601 2.8009031036405707 0.23349524781281075 0.8601409653416411 -0.17754598614070066
Ni 7.3768067297392586 6.032653933451132 2.581914186250748 -0.4915643283102437 0.7222930691215108 0.06918144409166795
Ni 4.971932048923107 4.674068123944226 11.405403582741826 -0.5331727478796495 0.16923952315753432 0.7264590275737424
Ni 5.913370126660005 7.829323074242622 12.55173951883819 -1.2830190440290807 -0.04426102670090442 -0.7425790730640567
Ni 2.10337294532214 6.1935270089564884 0.5699666947948666 -0.5117644574072026 1.4734799384592365 -0.7409597922930787
Ni 2.687614408578378 1.684651860504337 0.3727064196119178 0.4121892315150256 -0.54264314926393 0.3851530533328399
Ni 0.5865060003019072 0.1845534030535981 4.823539391842534 0.2602995124898485 -0.9870398187494356 0.504525516456602
Ni 8.541469955210848 2.3934246722197785 1.3871408031454229 1.068408806046231 0.25657578378135815 -0.3442995096515877
Ni 6.898043582369228 0.7065282826276061 4.844596858009367 -0.8367516398834234 -0.6812294663119816 -0.7676722685872586
Ni 0.925731830837822 7.279104233829142 2.6050752163479545 -0.36852521496817175 0.5631003886770173 -0.17731715795934624
Ni 7.603242245253553 3.8512317635268682 3.783183789483467 0.7138166562193835 -0.4051307820063474 -0.05894871062006622
Ni 7.723435504673463 3.822838652456275 12.59332151193139 0.48046770417645 -0.17517774301884026 -0.012186514763862882
Ni 7.921632516064058 -0.1528762585404709 7.147651041412275 0.11258732188112869 0.03530356039730049 -0.5362732411818442
Ni 6.776804452426218 0.7012270832544324 0.32994213810130174 0.32768529813367436 0.8900999735975766 -0.2903749917189902
Ni 1.5552185623759953 6.883301355256662 9.297644347391067 1.058755599227183 -0.6297870913712896 0.45838912710985574
Ni 0.19661365436388434 5.067697410733915 1.537352365483561 -0.10712578454592518 -1.5507757841279228 -0.5544414274504387
Ni 6.424473409509545 2.032453829329672 6.968501605878903 0.03498448649498491 -0.8141794110098622 0.9697949156260588
Ni 3.4232979235794976 4.220960635232152 0.2964342654464352 -0.12243747520233107 -0.30252011172195636 0.6317771252181248
Ni 6.124317663906131 5.642989860122933 4.815606236561663 -0.5364563037269278 0.13542257460808935 0.48019876678577944
Ni 5.225578387090578 2.826760660782118 9.512733531908673 -0.2850983167010832 0.7248634009518484 -1.7427261186194114
P 0.2958949600375671 5.508845597377499 12.518941019233774 -0.05593872014914883 0.6614571687810608 0.808637912366343
P 4.097493346348624 6.257843498863994 12.887822281089033 -0.3286556324667436 -0.06205280346668667 -1.1561083635467442
P 2.4304121106323673 8.347838396016742 1.2797917432018096 0.12418711090358614 0.5424868261917238 0.548755432809255
P 6.482951213540266 7.769271917164107 5.850477839569171 -1.084380755994455 -0.04340999155451878 0.35627827928001865
P 4.706772040475248 1.1556414553940664 12.703401658119235 0.35376451171922946 -0.31464389156868394 -0.034274347801837746
P 3.9350560123217617 6.1548570831806515 8.177717096729296 -0.039254831735564655 1.1641420324844984 0.3246056307670861
P 4.834177259241405 1.0558017458063111 3.8014192241431872 -0.1584203210548433 -0.16557827225586322 -0.4783629991286213
P 0.2766345722652089 5.541576797487384 3.7796696645258505 -0.7155012430106581 -0.31221034242652684 -0.8650335175472521
Ni 1.4582891012003443 0.6828188525952434 2.686111083383001 -0.12924035705677742 1.1331625533838485 -0.8200114443106071
Ni 1.7716682880262573 6.5418564603065175 4.984692578757556 0.4633066190161311 0.6256892671528321 -0.922797720940914
Ni 5.974139751315258 5.674784324025174 9.265326038774651 -0.02523254931454364 0.29658189186065054 -0.2947198989512473
Ni 8.679524864260049 2.4417166068081353 10.348675104706786 -0.07013840868829856 0.6044198162510945 0.22181806858519865
Ni 2.0741067597279153 5.432806263084983 6.988654166680097 0.5857358666883461 -0.6080404437228174 1.064992067055198
Ni 0.4965884188941702 0.32558313165154673 9.271622179323712 0.276654299698788 -1.0574461363871404 0.7433007817214295
Ni 1.4952947286655092 1.157387604441329 11.58827995514795 -0.29650167344201844 0.0533925566885274 -1.0349034751999335
Ni 4.084515457335897 6.946872094008565 1.8729567556516633 0.5559102986864813 -0.7877880655005272 -0.8962353970713532
Ni 5.667881578572714 7.872403845268055 8.130330976959206 -0.4042805181909102 -0.31880959291059935 -1.294222626054384
Ni 5.191655804036986 2.9467629351499838 5.017863044487144 0.09689407951558797 -0.6144568887721225 -1.0732699907932741
Ni 0.7150280268962086 7.4731632357587765 7.055234284180643 -0.3722481723457138 0.7650147763597535 -0.19784253160620766
Ni 5.015540302473234 4.579939776865224 7.184149194310578 1.081153764416725 0.03611962854069263 -0.7715780313995679
Ni 8.17983521190173 7.361291467892228 9.252508213424589 -0.4302903119911106 0.04938806351482462 -0.7251688480074091
Ni 4.578348234764856 0.5352783526278402 10.349926511523991 -0.43556030214079827 -1.466254624355391 0.33654711939967846
Ni 8.230009713431667 7.31710116465968 4.770934832888489 0.7571042632634252 -0.35463483013932473 -0.7601363652215296
Ni 7.478556289847457 6.010090413731035 6.863426177507246 0.000502907778347521 -0.2521689129629141 1.0295069867747106
Ni 2.446736785319015 5.070071082095039 2.7063036600998607 0.2567531898994868 0.8715160399478024 -0.1899003939409955
Ni 2.491954770022087 5.228561391712985 11.544687162292513 0.15943796368608026 0.3334581960617096 -0.7357432810891459
Ni 1.2397294454513068 3.299403191960442 3.756229432471608 -1.1091129686338126 -0.6433792282334274 0.5079571678459703
Ni 3.786697004988454 2.8219678454284334 2.7949134486274083 -0.7945073865022316 -1.2729539464835948 -0.672504427734158
Ni 1.0025441998648015 3.4216790979002645 8.186675205122805 -1.1222633899728416 0.7360821524858032 0.7266204928522711
Ni 3.814062434588523 2.597223911803674 7.024100992339528 -0.43020109471141393 -0.45927641481081544 -0.36744200920632203
Ni 4.092664152889789 6.8482328618908035 6.048169195298163 0.37180054328533385 0.7829207101058968 0.48347743753705125
Ni 1.05848463106122 7.480702598051384 11.785704841256708 -0.3081580267340241 -0.5256242461084303 -0.18958466247278963
P 0.10743182013283252 5.666108145946588 8.2716781045246 -0.5961195239155153 -1.0233818477135794 -1.062559032133673
P 8.451006702225841 1.8028716077197886 8.170636098561593 0.6193926355108429 0.6533772199864037 -1.2473740411319614
P 1.7832819980958112 3.1862581904135974 10.299638328415456 -0.040103295778789 0.1907897385244843 0.9245381006707885
P 3.9903052595203055 6.228195343165682 3.976961770550807 0.17407165443885503 -0.6876952765419835 -0.6738732830572266
P 6.78599901850321 4.0570954605781 10.585313769263394 1.190388624885853 -0.3975092609053476 -0.850255073686497
P 6.150127929510981 7.9479975477724665 10.214436258887957 1.2462730947582987 -0.9608652172365968 1.4736956540144686
P 2.4097311578538507 8.526664066414266 5.988630060049652 -0.12981319884111192 0.5914210899985815 -0.524462107479529
P 6.851161299355484 4.065871678445853 1.512128696824275 1.5731238128058198 0.02469724563636392 0.5932792262532428
Ni 5.408423838107322 3.108118020548595 0.26794384294456225 -0.02011605402358471 -1.1001876411197247 -0.5775397040307989
Ni 1.2828102164767394 1.2118911004842712 7.161720273579542 0.7469700030429006 -0.408249015920355 -1.0222019684728654
Ni 6.936467955935293 0.8444886086034135 9.213573636933775 -1.3396463056048218 -1.0236492424423531 0.4117179483055619
Ni 2.871587580854813 1.7494139821999468 9.046537200963158 -0.5557755728808299 -0.19935896825073407 0.8100764445850823
Ni 6.388668259514374 2.083046679068848 2.4253000774059803 -0.6295945157445093 -0.5318360313460969 0.9447562274898761
Ni 4.0531939088006235 6.732695999930261 10.386358274380393 -0.06341291703900691 1.3970220153108133 -0.23532124527795603
Ni 8.160545721645251 7.0979958373333725 0.3306060385203131 0.7199641638780182 -0.03857606050098518 -0.3506560479972348
Ni 7.410411004372776 3.85072247005475 8.383262485360454 0.7430020195340882 0.15896873735914557 -0.03327367445146528
Ni 3.258605147033254 8.499780646707453 12.345329240757058 0.5128805732895168 -0.03464741487054033 1.0393409421459971
Ni 0.3228474981441686 4.932934720200908 10.42762195905352 -0.270509877363947 -0.7267274507437808 -0.9172258832800911
Ni 8.592199222844343 2.0826283308596083 5.711579867933089 0.2642826655073126 1.4122164636630647 0.49100665603456084
Ni 3.6169021991947403 2.650272283640564 11.389044348855284 -0.0648524776990109 0.24369507116394806 0.5374909156390292
Ni 1.2608196519127757 3.479411150775385 12.585002748735914 -1.1117609477796206 -0.5038295188308419 0.5888332746667472
Ni 3.0655374484689935 8.585878527074303 8.186223207166298 0.48890735030337085 -0.815982268546556 -0.6270606935790619
Ni 5.651511431254627 7.817854876593675 3.579502778741313 0.9315888368699827 0.48330285963239994 0.2679603714692159
Ni 3.267181285322674 8.344491610342823 3.733348513784066 -0.5276836997406203 0.3673509921544125 0.5321967571196253
Ni 3.239997746248362 4.329567468161372 8.960576647943256 0.10362882713626023 -0.5435067828158059 1.0899425663529487
Ni 7.437885568288299 6.176356543325072 11.245567283233283 -0.36905640488129343 -0.590568512190299 1.0553707419153502
Ni 0.6581053868607049 9.120081906694923 0.27720843687397073 -0.7126933412482177 0.016100247995972275 0.5254861778686692
Ni 4.536477035735704 0.2569303716100048 1.5664766764676954 -0.03577432938613194 0.402870525217261 -0.0507314649165965
Ni 6.057036358428793 5.609212789489947 0.23178946313993826 -0.013395961690931768 0.2614989321145883 0.37635885207997766
Ni 8.043308183268884 8.593572496313804 11.354875304139293 -0.3174204258725566 1.5449627769905716 0.24479550331697839
Ni 0.1479861317555068 4.526136559346445 5.6946485883430435 -0.8443451359599652 0.46315595237087975 0.6878325734507961
Ni 8.001809859817534 8.912481155122716 2.5000398038919642 0.7825754109513361 -0.31322387129270574 0.21742148217939974
P 8.48858528484714 1.6357687817072715 3.5411939056591026 0.3033685757651807 0.4770435089862494 -0.2188042214595393
P 1.8240163813389845 3.1961985076461907 1.672296946542325 0.046954514372667525 -0.049204743859424936 -0.9294563639080121
P 4.886861850026781 0.8580267204354715 8.11249479200352 -0.3840711331225708 1.7737210243390293 1.1112678101932862
P 8.478817763614014 1.5673233768650918 12.42163959193295 0.09631455286303413 -0.07715777742892518 0.2968785971654629
P 6.469782339475495 7.922878466165491 1.4085847866794885 -1.149927174436697 -0.9728023349938151 0.7211849236589967
P 1.8611129540670273 3.261697285971115 6.205515413509101 0.5875441235416784 -0.8567656211115051 -1.2165657975018531
P 6.9225897088200705 3.790407571713887 5.952611188686716 0.9044022491528618 2.181109749141618 0.1385364376467227
P 2.3542454529718233 8.589379919695116 10.315079015146928 0.33368882401527694 0.7969792450814919 0.17067574138342864
