# total energy = -340894.1396557314 ev
CRYSTAL
PRIMVEC
9.06116506100620 0.00000000000000 0.00000000000000

0.00000000000000 9.06116506100620 0.00000000000000

0.00000000000000 0.00000000000000 13.26193098338967

PRIMCOORD
 96 1
Ni 6.403561437018592 1.8940281029903396 11.468387417581146 -0.40090517396077413 0.04902733774129621 0.051792044970626935
Ni 4.366656886832666 0.4382785760247693 6.14317799194618 -0.019457851614295522 -0.05457809235619633 -0.8826370895616282
Ni 2.6245845182074943 1.9004162242024711 4.596651903381496 0.41087539779960847 -0.27137145403329394 1.4105912693548157
Ni 3.2501310940950168 4.543567069166926 5.0900486390109085 0.7461346516257988 -0.8610038275625688 -1.1814357865679395
Ni 5.025856628935587 4.6273194157821465 2.5150459086908787 0.10902865799559287 0.07918740626444426 0.07047368054053024
Ni 7.273514812132809 6.0843547220384995 2.7115345498947168 0.11773467041002304 -0.4182709189327312 -0.874286660714404
Ni 5.17263843817717 4.325718544085985 11.584363078600031 0.06768146250737377 1.4652940602143345 -0.2219024007688888
Ni 5.736650643636914 7.73349578406563 12.39482628207435 -0.7402388549666542 0.5549307083820314 0.8936956613686351
Ni 1.8517124631879944 6.476431324661089 0.4508301015610025 0.4901990725316009 -0.1611091807409161 -1.0430592715378488
Ni 2.57188478349862 1.4590287625211313 0.4239836823733388 1.8781551209854042 0.912346443700603 -0.9117196087498814
Ni 0.604707708988714 -0.12403556714397597 4.531455916241912 -0.5520276758026236 0.7067528073940667 0.3459486152192364
Ni 8.694232969710832 2.035273540514743 1.543158053593692 -0.24334128736895508 1.9043801161202039 -0.7366832764049119
Ni 6.855559522727457 0.6438981530377771 4.863613754127677 -0.8735017029192634 -0.3728354123077514 -0.9973856807601339
Ni 0.6272256097323562 7.308527153074193 2.5621784637221166 0.8908101122907238 0.3424542289127328 -0.31418854919882017
Ni 7.415539509833444 3.855335354916957 3.927693286746 1.1197095132027362 -0.7054037495653399 -0.3191518067413665
Ni 7.655832540222824 3.8564136335329056 12.314180102766247 0.5292335607262434 0.1975406840950727 1.556952859472912
Ni 7.90938205477298 8.839084750841517 6.82137990283486 0.44627331768292827 0.04896460282416083 0.7396246184214229
Ni 6.847105455931828 0.5537758075401049 0.49784848591525754 -0.4447404259781696 0.5974235874389195 -0.9056865151819241
Ni 2.014387555558767 6.490104622404502 9.328402150060006 0.3341817044912954 0.66194336438886 0.45022510324182463
Ni 0.1036207627596752 4.949081379247091 1.1990440087016754 -0.6999427264507687 -0.8677540018022087 0.4395784221612558
Ni 6.445994871963856 1.799130523622039 6.864733046011375 -0.9875247288056542 0.7551517675227446 0.7751415803811103
Ni 3.390796617069666 4.197584612084921 0.35965666094190163 -0.7559094716243756 -0.38588710328538706 0.6779775350335873
Ni 6.016241945936951 5.5412194403698924 4.812741656367012 -0.8560490546604548 0.49768149695157515 0.07540402796261207
Ni 5.278635944474352 2.9373578061512555 9.407151827567114 -0.7525588099845878 0.30088591855264313 -0.3226657334318959
P 0.2703090450380411 5.646464869985362 12.276410449364082 -0.17397652362188748 -0.001245699481643016 2.1343688934416534
P 4.061377182211505 6.000330540478082 12.701389047636841 0.9512467203102263 1.1753872663810145 -0.1282754220403468
P 2.4770415711193587 8.255228594382386 1.5587677222633922 -0.04778935156913705 1.1788340872790342 0.2998569630674965
P 6.269927377959707 7.632409429111674 5.865446946787774 -0.5827515872490415 0.0783962778217166 -0.21189695281674475
P 4.748548740175205 0.9874676219229155 12.696879305896022 -0.375845659888985 -0.21440583528152754 -0.41211775484714186
P 3.964359290270666 6.277121942842589 8.06637036009023 0.5399517184746959 0.1532655163267812 1.228840243993832
P 4.7509861935171385 1.1122489229332153 3.770990408121207 -0.22850627923865163 -0.3197819841261977 1.037951003777006
P 0.17238684884618075 5.545586921822726 3.614088183869936 -0.26946318126698754 -0.5906032220829764 0.006079887645492755
Ni 1.621567937419306 1.1521180482287874 2.495192896526652 -0.034155305725470216 -0.39427918400382417 1.8013182172310074
Ni 1.7502817839701235 6.616081997173669 4.7978215423416275 0.552222822532565 -0.21823857876405642 -0.413189647755082
Ni 5.998173983246185 5.705434930763449 9.154949708228651 -0.5322409800939994 -0.2855711425724437 0.18380765077969632
Ni 8.637075141900725 2.4722844595784097 10.334558424465222 -0.24103937870865583 -0.9803199835270989 -0.6711502276991086
Ni 2.2905627987141615 5.287026583116101 7.051354984821042 -1.4577792398945282 0.4653488462571405 0.21766419431782516
Ni 0.8456658288773423 -0.3355593991666644 8.96153733248796 -0.7361757406408741 0.6606308162250236 -0.08584604923154247
Ni 1.2824357209562678 1.0650855599415219 11.594759859137335 0.17964349209967773 -0.03863853830780443 -0.47615673550592186
Ni 4.302213882491278 6.938559792660966 1.480734782895118 -0.34183125061675323 -0.26926057833787825 0.045862566860069405
Ni 5.721636293497195 8.177230087440504 8.013163200150322 -0.7761959897875534 -1.7790979723802265 -0.8120312543186079
Ni 5.064819637747168 2.940085216768066 5.016126750130499 0.6283601291167759 -0.24245117145451792 -0.4007303389458066
Ni 0.5886558554748264 7.289797725350113 6.818953322890735 0.42617526138147244 -0.267382644588875 0.5209774913650383
Ni 5.180476345763686 4.659894303381598 7.069219071302911 -0.42340258373234185 -0.12709939945437465 -0.047417312941698986
Ni 7.984263521009937 7.179224330808782 9.226006456786685 2.112864186600658 0.1378718074795303 -1.5220082250769271
Ni 4.797460907980999 0.3527819551778674 10.28867177959947 -1.551806282274966 -0.5877860643491555 1.297875392315623
Ni 8.052294746627926 7.101198640372379 4.7323609691887185 0.307236029140387 0.8522682474617838 0.2784712983028688
Ni 7.303869714346483 5.944930578646917 6.956492743995617 -0.39096246092576536 1.5541981795459103 1.063312108249614
Ni 2.3574160729029634 5.315931698955391 2.4817579074185283 -0.31964777254117854 -0.5922183890888961 0.6359834499899886
Ni 2.7805452874318997 5.061050193173769 11.292679651821143 -1.763427098612189 -0.4135886829657135 0.06139742927087491
Ni 0.979874365787077 3.4909406108802705 3.6464474157461964 -0.9480714079060383 -0.14752450007794593 1.2629862937479217
Ni 3.762703066758632 2.691229385604979 2.55758988984719 -0.29390768746259704 -0.1949505547703933 -0.38484837760822754
Ni 1.0353377557721215 3.363232553626682 8.261903954519942 -0.08793609899135178 -0.04946159706523739 0.06576650487284802
Ni 3.6375230744953764 2.8900585256869635 7.108885226506069 -0.46492152891173477 -0.8070520559364617 -0.17409248037446148
Ni 4.10460799966268 6.769134132484465 5.843683841075296 0.052881164269747635 1.3858539145091358 0.24342356267011622
Ni 0.7253580249485023 7.611786217936056 11.57026571834211 0.5603207690493511 -0.08653639043034773 -0.39015667719501834
P 0.3390515720959629 5.649192280602173 8.30401118753097 -0.8185114627263129 -0.554907825563896 -1.1429240036459865
P 8.721362097241501 1.4197123682807935 8.123688570518004 -0.20039769392789358 0.38737680045703604 0.5219377983957786
P 1.7954154460376788 3.1152194107937055 10.515371250496027 -0.2678014772938484 0.5175574099398957 -0.31922739717430826
P 3.960544539873067 6.059563375036526 3.707890268409092 0.4051708912156635 1.4256831306909317 0.4054472848055018
P 6.877034483398027 3.9755226453534265 10.361188281813211 0.8946359137947173 0.44327721116908175 -0.9796535535876933
P 6.322790213635699 7.7717067161954985 10.21765490016673 -1.679843877272894 0.8099936550632889 0.34513460395837336
P 2.25531486748694 8.554446379725652 5.911014638651161 0.5353137054820523 -0.7961526354151385 0.286577472349771
P 6.8529861519129245 3.825641917736596 1.6603406617692495 1.5480622418515015 1.0701278456198666 -0.6381912562745847
Ni 5.398388298998506 2.981902492504217 0.24775308740207136 0.24259001102522734 -0.8682713077582596 0.9897474474885858
Ni 1.7969377217307825 1.2125107118867386 7.053676455253026 -0.9123415586045964 0.5086840187096658 -0.19148753592245732
Ni 6.731340013937232 0.842057673038093 9.081066782357054 2.744814089951221 0.9081390904874745 0.7079583976663936
Ni 2.730591085669516 1.565841773653904 9.309888378059117 0.34337262696194415 -0.15090087274934658 0.09698458234686523
Ni 6.443937987545198 2.002689591750453 2.5700426486866683 -0.5873163238015885 -0.8725496234186392 0.6769148980970277
Ni 4.262353818360546 6.85991794301545 10.534388823262015 -0.3118871547591532 0.4077306815230397 -0.35099646205578905
Ni 8.317823121096435 7.257086920278065 0.45649151735297366 -0.5531666745030731 -0.3799874499715004 -0.6949218761974096
Ni 7.58722140005508 3.8520914579042724 8.168023037846678 0.5924590443447926 -0.530778279505544 1.0224058569535552
Ni 3.1805594704542437 8.213628786602392 12.471280766527514 0.32218108048599353 0.46326728113776344 0.32540910050498795
Ni 0.12028152655080429 4.801393453521517 10.380723247091556 0.26058979003675764 0.01827540127042014 -1.0765422337866428
Ni 8.62360118978379 2.2608512392041207 6.0014215047248065 1.013585430448448 0.5517080876796756 -0.7000838800143233
Ni 3.6117078158664935 2.603444820636001 11.566313238238944 -0.03735864315411631 -0.7894420561641823 0.002264627664460616
Ni 0.9999720294019812 3.292872608644837 12.669400417402533 0.1106440821118288 0.42577982571526674 0.2106507391144695
Ni 3.2397832438478473 8.411796461651065 8.131778378487068 -0.07782857824370466 -0.1179223609407969 -0.04588802078136613
Ni 5.698530323155443 7.908648100420948 3.4731934134248372 -0.9905830560160038 0.011769996051734568 1.2435549244961874
Ni 3.012647024806007 8.588126729435572 3.8557603235479485 1.3049189294259655 -0.34800344086573615 -0.8589142920233916
Ni 3.3277762156081425 4.352902038605694 9.0068531239688 0.387162627563701 -0.18005692548801247 0.980134864099486
Ni 7.2967204552878 6.23415389917177 11.399266133832919 0.5867080007936283 -1.19732031900868 0.5119079249636023
Ni 0.7215849559091668 0.09900772373968074 0.6145209505103285 -0.9718841940549197 -1.3224816209000771 -1.2860184929770369
Ni 4.679756376710664 0.45601943066481476 1.6199976375525507 -0.9980983905564423 -0.8793823300697565 0.05062759234888055
Ni 6.3170363739623605 5.525978561109175 0.4711089884727047 -0.5928092285953597 0.7077108004319618 -0.6963426678043363
Ni 7.907107702398164 9.01660203122005 11.13332457024771 0.4018089167219661 -0.29912985509348483 0.18299389662914936
Ni -0.06945020403191816 5.028565917222717 5.780743177864363 1.3316905410928548 -1.66456792495043 -0.41728978596638455
Ni 7.984381316152855 8.884290902227791 2.4943438653811527 -0.080116602946933 -0.20174083821934932 0.6338378644018955
P 8.444244492942756 1.5810101635959013 3.6933552538894046 0.6647515232616166 0.7931110203753373 0.5858970748565587
P 1.7494753402993721 3.2328967585695216 1.7059083536326363 0.5367848907109402 -0.14089388213530574 -2.1314085252617483
P 4.762312649567017 1.217883982636801 8.241918649349053 -1.0787376987760648 -0.34924965456801144 -1.16351365487188
P 8.305690221375805 1.579170747133401 12.572455920896898 1.3614202069468038 0.7149661964427945 -0.6008513821735457
P 6.372300418320927 7.758803617463477 1.4345962376468178 0.2310151617034344 -1.0947379308590632 -0.5558465353280814
P 1.6202178238581604 3.4072969982431287 6.01211096088644 0.2632364836309854 -1.0220780413004913 0.008088433435089297
P 6.938260774221249 3.827291049737458 6.089202445227848 -0.37535226519233417 0.1628235923288615 -0.7480192702430214
P 2.4627249306723127 8.625667135367287 10.404223378103843 0.36823210920778515 -0.5777392216361148 -0.22298277831726115
