# total energy = -340888.9649331214 ev
CRYSTAL
PRIMVEC
9.11389095683977 0.00000000000000 0.00000000000000
0.00000000000000 9.11389095683977 0.00000000000000
0.00000000000000 0.00000000000000 13.33910066155313
PRIMCOORD
 96 1
Ni 6.7320302694534755 1.720073762054629 11.164800826670216 -1.1217337427216165 1.123832277121858 0.4778778319620867
Ni 4.55694549929431 0.5624018085191063 5.682323291465433 0.7042130716913484 -1.4646754527937291 -0.4046762109674321
Ni 2.723950627767168 1.7959924740728719 4.8153215749369975 -0.6677735979173919 -0.38511114435131094 -0.11056540635509345
Ni 3.691745599016295 4.357415083662209 5.181307184378221 -0.49052020331644547 -0.1729550243359086 -0.04332154560577055
Ni 3.647406519308161 3.016233112091905 2.904522327344005 0.9412163326574178 -0.3779544787018717 -0.2512700552977285
Ni 5.3434560646905105 4.704791039073414 2.498093826596544 0.6900450077210826 -0.39218476336864067 -0.10946934507743727
Ni 5.212790209443746 4.966870088628828 11.78681659621109 0.9891352678258836 -0.010542551402536682 -1.2764339346123954
Ni 5.728426820470894 8.239905307387966 12.618696110998263 -0.5017608092272713 -0.1429484506714893 -1.5407320267386757
Ni 1.7803530371192937 7.0679865194434495 0.4084909742804409 1.985296846370929 -2.1201491502978453 -0.23154043807928512
Ni 2.882313597758644 1.7257061466917565 0.038609176437320966 0.4283388446916946 0.27845432902200434 1.02920153971915
Ni 7.859673774926848 8.744377401941842 6.77539598560296 -1.0266669462227545 1.09129265262294 0.41955955583716775
Ni 9.039922659244073 2.478467973720184 1.29942850273847 -1.6073194848509222 1.8004697531877834 -1.5526064095787584
Ni 6.940191539861239 0.9567489353588375 4.537495544514221 0.13251080027793305 -0.6172506494671757 0.6777777603179553
Ni 1.0010151039389825 7.7007275159114625 2.661617081671421 -0.490195215876859 0.5223558597698036 -0.351380327757769
Ni 7.960628345518215 4.1010686715449065 3.793106649146198 -0.44756041192546786 -0.4183274832022795 -0.533711651102255
Ni 7.577106698406607 3.652984220599297 12.618895705211134 1.187691280559348 0.5711746810447196 -1.0735623252227124
Ni 8.36928610400393 7.316859540941908 9.224788824259445 -0.9664519672957549 0.7084811029390831 0.1101198341772426
Ni 7.037956248603099 1.086630995979724 0.28226996367368756 0.8876186019366197 -0.8970560932004357 -0.7960914431598999
Ni 1.6463241560940496 6.749610965189754 9.113033381445652 1.6049401859854682 0.049036850822992965 0.25041824882039454
Ni 0.2854862558070895 4.986209765327834 1.0301895804145644 -0.10637527953314582 0.1571010880227875 0.7319881849220878
Ni 6.634903533081516 2.087673441591702 6.765405338290307 -0.4556228772186282 -0.9522903310833922 0.642720511603506
Ni 3.596386957498062 4.356886477984291 -0.0839453158207002 -1.218871305706578 0.7356864597092814 1.0155078442821415
Ni 6.221315159565565 5.870986303470817 4.713544931377559 -0.9256375043825541 -0.6730119634981958 -0.34139082064522497
Ni 5.463777653653878 2.605624980932492 8.96123423575136 -0.955396995033174 0.31570832827745626 -0.044468000505387933
P 0.5897917851371646 5.62984186153916 12.191671127983094 -0.23788823467418385 -0.023425835123108044 -0.33270306306323993
P 4.010148494942987 6.598247463485193 12.81056538985695 0.3808068605490022 -1.2275251247268344 -0.3814367808235173
P 2.654785308978879 8.743502468405978 1.3852257612100833 0.5672095257493844 0.9129308554491633 0.6222175065541476
P 6.066862048812484 7.8928027687067175 5.55900323236353 1.1387490463326906 0.32017382024797764 0.6423389598943712
P 4.950109643082424 1.3622168319950465 12.60186184293477 -0.09317189346899438 -0.6911061019957453 -0.9893242439082381
P 3.960742091839638 6.11162948139755 8.39795111397269 -0.23201634927443915 0.32268141716117976 0.2504997527906073
P 4.948733445541637 1.1914316285724946 3.488361830269991 -0.4332712489963054 -0.08891260397200818 -0.1439601797654553
P 0.15406212482924186 5.91791372822255 3.570983809117696 0.5693345425121873 -0.9051237006999185 -0.17853148998242158
Ni 0.4155770245318436 0.1852772014994079 4.702366744067789 0.9759665916544095 0.40784920937877506 0.5083831996397954
Ni 2.013841810612136 6.550919027529522 4.508976356801438 -0.22957020172679174 -0.20434228039793842 1.0794329250708765
Ni 6.216785555739266 5.836134784292215 9.518462088350567 -0.621236373587801 0.2121782315025894 -1.1011260937735938
Ni 8.78043195473226 2.261384204024801 9.994134287348905 0.3472637344862342 0.657038470888075 -0.21719008289488398
Ni 2.425889936549326 5.58819137967561 6.915950412583193 -1.1018652859324638 -0.9045991956550163 1.0255552012158144
Ni 0.7869298043821358 0.06006327584799858 9.049885964883732 -0.10128783770790942 -0.12266733182495003 0.35877790577342084
Ni 1.7019644606404332 1.3271921488874705 11.26775225077937 -0.6008716938885199 -0.24325335564083914 0.2830141804785448
Ni 4.351892065717064 6.7337983643072015 1.668948479108946 0.4597716092796791 1.211966351056629 -0.9233847037926356
Ni 5.516920752066647 7.704901677988816 8.035287517800452 -0.080340546032281 0.3518372127895295 -0.015030154860245082
Ni 5.630862617331002 3.0519413370243753 4.667404946808103 -0.24520970803626158 0.2515495342113603 -0.17300721773008268
Ni 0.7732489426041543 7.651029468296159 6.831954058972901 0.8010333605462076 -0.48399371505183736 -0.339791337368589
Ni 5.070103131969843 4.538225567183209 7.35539398347304 0.07392590075518882 0.7948097482339989 -0.38669520100897914
Ni 0.9525474316084881 7.666787385832718 11.393459237933804 1.1247812712986887 -0.681336424203491 -0.8606451586715694
Ni 4.5464736385369315 0.6188003887965723 10.610987949028177 0.7389414763114692 -1.0139937216304602 -0.6071382436235222
Ni 8.191464976730467 7.385951948602209 4.852992020601464 -0.19790835184713657 -0.4627150081787192 -0.8225282971951899
Ni 7.258430385749956 6.256932245588049 7.050328355633684 0.2481435938536049 0.3499453950834554 -0.6791018784460175
Ni 2.554286432937442 5.410342910729152 2.25854978392424 -1.0121031894759667 -0.6855424918650387 -0.1598935631662601
Ni 2.6498729217306396 5.3334398984830615 10.986363600365248 -0.80565286159609 -0.4694736670587915 1.043365747034674
Ni 1.4042865528445316 3.5059407032280685 3.5511884378687615 -1.2291186944661994 0.4200691484837346 0.3498587489069201
Ni 1.215173314623818 1.1439118009058535 2.3599937704622307 3.5254496035673673 -1.6298485191913739 0.6617003951401185
Ni 0.8627601116576927 3.6563290185957795 8.12699422319555 0.16153366987284437 -0.7002926535910197 -0.7547054240139455
Ni 3.96027728339871 2.5007970066667258 6.904651921912243 -0.6227620662037082 0.13870510201410305 0.08944096567165241
Ni 3.940026217599846 7.014232790333773 5.958256366727802 1.824330876076097 0.5136624457608637 -0.37025659583698173
Ni 0.9454750521935834 0.09063673459186396 13.380451525664098 -1.1924444789736173 1.374485267660878 0.05219416550505204
P 0.06489728363364998 5.761820117089723 8.038075457056921 0.15832724712040475 -0.6297873484816057 -1.2166187622269755
P 8.653767097633875 1.5019874643494018 7.880314003871352 -0.007607894254244962 0.5123141592630854 -0.6482825790723157
P 1.9177449439230172 3.272451929735227 10.358225118851522 -1.0839218140801654 0.018013405858285102 -0.37086286196241286
P 4.002520168177168 5.95755915406641 3.7950005156957047 0.989797584000231 0.6815441693389229 -0.2936009548554556
P 6.569474909602649 3.864945983553473 10.282072179834614 0.9332078605306443 -0.431280958039154 1.535574393797136
P 6.466952749759525 7.935838562002053 10.289368760968085 -0.08971787348212291 -0.004916463465010888 0.4795948146531934
P 2.463539420264495 8.615506983221799 5.561710969379211 -0.933620779698347 0.6923255762251431 0.11532914629232396
P 7.194268593119893 4.103811952735482 1.4156251446358756 0.6661725719788592 0.894113465632344 0.16378544202149858
Ni 5.526253376449202 3.098476864463169 0.21313472072569387 -0.6820205947547093 0.8730718144706964 0.8287876478413404
Ni 1.689961466195292 1.0924638862188207 7.064894176227628 -1.2603390859330617 1.152790612027421 -1.6534844134427586
Ni 6.879283406317671 0.6115776301801908 8.954671322843277 0.19007060097027267 -0.7950969404571145 0.08652327780422518
Ni 2.8430965247917173 1.5336946911334914 9.07831219090833 0.6537245760234935 0.27544973786772564 0.1739425850601585
Ni 6.599523408224996 2.1637835453209155 2.2843338929483474 0.08048221381646785 0.6954813482453055 1.5926017190247734
Ni 4.277878156917526 6.973366103096102 10.460469305019188 0.3442876825770458 1.170647437703184 0.06055333610302474
Ni 8.684672302010089 7.208276643584724 -0.06599641888807976 -0.9593068716105413 0.42234663166400166 0.7492006921456322
Ni 7.353360674391256 4.169532220726305 8.169371993560787 1.4786704815212406 -0.9498076738708545 1.74249909021027
Ni 3.188722613131193 8.595793636991852 12.366226748111762 0.5975835100555515 -0.0928384213889756 0.38030061033654505
Ni 0.14497192994724958 4.854313534796259 10.069487026736136 0.01986100058998515 -0.3101529456768659 1.005929713675403
Ni 8.780997015974172 2.919133717392942 5.9770911338654855 -0.5425369627033689 -1.9566691553319076 -0.13428023347353002
Ni 4.006302432941582 2.9873147359533836 10.937222411489959 0.30008501991790254 -0.08362230210734631 1.2369685295279214
Ni 1.2383408255422301 3.63785516154164 12.646307555167589 -0.01336279446015118 -1.2476964574683866 -1.2785360685570628
Ni 3.0635159785925827 8.510031922695132 7.90769942354391 0.58443591693 -1.1424568342015808 -0.015023984212657998
Ni 6.019560954529808 8.05699862893729 3.0873351327173943 -0.46568771765379796 0.2092152922195236 0.5799328868533238
Ni 3.3993355202175772 8.24148201053072 3.503395193472163 0.6482332138916191 0.9937815083486433 -0.18043359210114088
Ni 3.23304346505733 3.9745040672475067 8.843730661884756 0.4453024691292266 0.8992667276985093 -0.7879011940396238
Ni 7.624444248253276 6.088726273318097 11.391579042220794 -0.009663491231693034 0.2805333230382201 0.31436081311062636
Ni 8.055868506453464 0.10034120572716113 2.5680967119676033 0.39780416643794714 -0.9343376032597135 -1.1253363724712104
Ni 4.932191733379199 0.48806071103271875 1.2508851851126874 -1.3275474654587587 -0.8664802772961078 1.4419810965200068
Ni 6.4529082437307 5.990560553372299 0.2392915878916432 -0.8846489777853345 -1.00715921520713 -0.3035781206728255
Ni 8.353537300358369 9.125374501246842 11.025113130723948 -0.6132749526488793 -0.43262924453693236 0.31769733368302705
Ni 0.39593020970618614 5.084767382586572 5.621736878274116 -1.1967683031599519 1.8390368148277039 0.24502176039517154
Ni 7.681962014345369 6.337699547617542 2.2053137238232843 0.0007721022793341541 -0.41531389318693634 1.5350313768094723
P 8.774772228422135 1.9102897810861719 3.5171207133160376 -1.313035387885513 1.1123003652228585 1.3665564997321045
P 2.170691874697846 3.3760039592611903 1.368445265103482 -0.8541235555029677 0.21577854725933804 0.006694124190723955
P 4.862999072917914 0.7262978217358254 7.95736010420612 0.16724743242817003 0.6623007477282786 -0.08835596013758977
P 8.750465481128899 1.6863341375778536 12.42319768074394 0.6378246169637853 0.4549783016560939 -0.5077329676503062
P 6.990846546031395 7.962168593096976 0.951185816293299 -0.786848070184761 1.5124910296151113 1.5569451461634283
P 1.7415734309202995 3.5023224885016293 5.987962183048602 2.389821362251846 -1.1182308717746805 0.1641906478797172
P 6.896645368669983 4.203290072985077 6.139147963878689 0.0979106937055604 0.09315312441591699 -2.397395317944361
P 2.6783264894282333 8.572799290002413 10.24755058351016 -1.2272320189664478 0.32667639725318576 -0.9028619012489354
