# total energy = -340854.9596369228 ev
CRYSTAL
PRIMVEC
9.28310917781734 0.00000000000000 0.00000000000000

0.00000000000000 9.28310917781734 0.00000000000000

0.00000000000000 0.00000000000000 13.58676863278744

PRIMCOORD
 96 1
Ni 7.704126564697077 0.33888361347871415 4.624352055181416 -0.7222262204393175 -0.002208834725860712 0.2826431702923713
Ni 3.3918624283764203 4.83583149348424 -0.17396453752677016 0.3950530860553712 0.27130923333679086 2.5809864818378774
Ni 7.956311508397537 1.300656425748044 11.335101462441372 -0.6767372348685828 0.03462633182461779 0.21846560717319793
Ni 3.2799545473372893 2.8289996700980593 11.96681796974133 0.5220136459390364 -0.6211181028423819 -0.631565523427951
Ni 6.115712320910794 9.006983087318309 11.191706203409987 -0.39389737518437323 0.8356486366272318 -0.32701166910541746
Ni 4.394196857851257 1.6011413864577606 2.766782415821787 0.0771904304390735 0.867120739093584 -0.10780532711145305
Ni 6.72197361455688 3.6278019310301373 10.832662461747724 0.9503265224888021 -0.6013404059948224 0.052760322421167204
Ni 5.902674248578399 7.805442418173732 8.923218808348555 -1.110435544099978 0.39119874530628757 1.986552316044585
Ni 6.5581638701507 8.679410014051795 6.75992017990932 1.0345617755897987 1.3321638811848475 -0.5908431060079244
Ni 3.7438036632130474 8.622495271733179 10.147101136331527 -0.9398405353558136 -1.1785623216748864 -0.9844268066066207
Ni 7.614108255079786 5.105394417550129 1.6484963829535562 -0.6957554278422986 -0.1350901309693351 1.7130643298889205
Ni 6.136339389485571 1.9689010393193302 3.9965344537326772 2.155994956351861 0.8773879253475472 1.3995740923087059
Ni 9.076058702649057 6.1260444214165215 13.339244897412048 -1.4770427161098305 -0.856273511966435 0.7036109193309753
Ni 3.493215414289754 6.123667945469113 11.378769207975017 -6.372297922474219 -3.1284010843485217 -3.2281920257959307
Ni 5.099490360118285 4.898511046597158 11.906139854965373 3.451241395685069 -1.5873170735870663 1.2241140421627563
Ni 5.42123364082631 5.98005824661591 2.4640555842476197 -0.5174152279350767 -0.9978515646529589 0.4073000217435243
Ni 5.280845180854947 3.580699435103754 0.804031436327295 -1.345544673367128 1.617498225156137 -0.9199741354491898
Ni 1.816574500955904 4.193245393657638 4.0419409256137815 1.6879505655404283 1.4667500759345706 -2.285689884447554
Ni 1.4493439853169996 7.77355493817627 8.633155065992593 0.31959609336763667 -0.9109991856440892 1.8563979318139707
Ni 4.778684673436386 5.156535065965275 9.44977439835382 -0.16012959043646613 -0.38808642492955103 1.392134605311525
Ni 6.471561744707809 7.661702755792156 3.8747149970331995 0.14103529280917645 -0.0406159737491494 1.926592390551185
Ni 1.8222093482218311 3.7762759790881932 10.220959409506438 -2.3396853648274027 -0.9841812662547179 -0.8789748102186926
Ni 5.526847573848475 3.3168177738496403 7.894102608919517 -1.0659667722636417 -1.0558988465046784 0.6564124072683017
Ni 3.7158800708309894 7.774046942962257 12.582570314202382 -0.9786590508849079 4.0114467222024786 1.5948360076719308
P 6.365650752192217 1.6677012792035566 6.542151435144113 0.15899753371455197 -0.11630025195634164 -0.8581362762067866
P 9.116885816776813 -0.22952116097387826 0.1041639113698783 -0.15413223520245067 -0.626051021367625 0.16251634550108784
P 1.8554428790488813 6.464311636446376 13.352559660893958 0.8268636913457502 0.6477943265819875 0.7539572329940112
P 1.542017264156788 6.028042637913402 10.143704446686383 -0.7424895986740438 0.21515531185304235 -0.22290230278831288
P 5.098497067437141 7.182898551044225 11.039643305346978 4.224746468904021 -0.9459682455201065 -1.6791769331128565
P 4.252230269321067 8.07270313116557 4.165975332161118 0.22199084671763705 -0.6111717902629475 -0.24383262518307686
P 6.403386590966508 1.6457931415633784 9.980595577022504 0.504617047729144 0.10133283201323193 0.14595021361229057
P 0.7899350350533073 1.8163052907899866 11.64061322676641 0.8089919532716519 0.3957742804921119 0.6524382531119022
Ni 4.874514209393826 7.395379636826447 6.089127352870987 -0.4796971445590126 0.03702902772883945 -0.23510604394335638
Ni 5.407271844635282 1.7207171156709542 12.444868386024691 0.04352620541740891 0.2660806379479998 0.6284755716487176
Ni 9.230557488558162 7.7349279209217014 4.5515947587540175 -0.2705589854343276 1.8231759365360471 -1.2431250360476205
Ni 0.6332315107164302 2.654635030566081 4.91461909762819 -1.58634056860641 -1.6205935762520092 -0.48573486611266026
Ni 4.413997729709943 3.0335436975403005 5.511989029311666 -0.33974531462200197 0.04416126789824652 -0.14565916473443302
Ni 4.730338240881281 3.9924331761015623 3.230213791784915 -0.9014483087308606 -1.3786609963051226 0.10861136795251618
Ni 8.912805944793051 4.956224136304356 11.065580312366748 1.132829338414146 -0.3639903032122957 0.7016959616964495
Ni 2.4208956247855515 4.807360197661179 8.262616978556572 -2.8308272608882477 -1.4129695397790052 1.7845592526051137
Ni 1.5418594513009052 4.383168524157811 12.285250893719487 -1.709248041466624 0.3781300850477875 2.0288397639588864
Ni 2.2208539052905505 8.540033412979916 3.819810976160712 1.6217698559482971 0.6355101098979958 1.0201047196242043
Ni 4.522118102207891 1.322072558602235 9.225470344733239 -0.14946079786871033 -1.0010764993481598 -0.2571871921131119
Ni -0.1191830536953209 7.899563862043973 6.924632242526782 0.4206795283742239 0.40529070462297945 -1.5279459307176007
Ni 1.3252195326107183 0.5282915314199761 5.579828134501028 2.231832729417782 -1.0379350629374062 1.3003495648877281
Ni 2.1901917957034702 2.6945523999952194 0.5084711650320334 2.5762546235798474 3.2619542098480396 -0.16736416051169242
Ni 2.313889225387952 7.265128332068251 5.771767556312831 -0.5243510358229615 0.20383680151642958 0.7881698743199781
Ni 6.972961037174465 0.1623281601827178 13.412192497577422 0.9216165561486191 1.0954285291681842 1.027605913097256
Ni 9.256596609778798 5.496380409553956 7.887350075309574 0.44265937507942477 0.07030450195251763 -0.5127659020885234
Ni 2.31027809592099 6.367832282847066 2.774608076851732 2.010993736916401 -2.039610115101513 0.7611442376607537
Ni 1.878010117440099 1.2240429257716068 9.843057031566198 0.842867265862858 0.054449537198132024 -0.5592982413221077
Ni 0.6736965835865731 1.5246114344638495 1.2497385719529683 -7.141721112314313 -2.1219288679060875 -0.45605816498383395
Ni 3.175630966489694 2.2211045492381287 7.66807375361523 -1.2519665455986504 0.8649252741041621 -0.7575601198539211
Ni 0.4937138063851726 2.7198303062639506 7.605234531024597 1.4375174043216985 0.6903746231463594 2.2119727572690615
Ni 7.772450248185091 0.5959013438128501 8.493075733556577 -0.8426533500798391 0.18395626054241868 0.1625094035225524
Ni -0.012859891132601277 5.682924488316407 3.406773886635496 2.55503093831438 -3.251383119200413 0.7561005045892591
P 8.721824539847546 3.2841040971360855 9.326297906667575 -1.013167883295055 1.8879289125427163 0.7011097501756764
P 3.9160424707451953 4.550134525681644 7.000284012393253 1.7734582575959457 0.57782586781265 -1.7920987555152685
P 4.143478645399589 8.569822910305055 7.894917665904605 0.267966542116803 2.7223531898445437 -1.0463019468448627
P 5.985943737829415 5.209216710502568 4.66876709100321 0.2952611161666979 0.2379373427445644 -0.10129632234834168
P 3.577840237479527 0.6191211847786883 11.775584064226413 -0.07057832443919458 1.3217372865348849 0.8985319064150138
P 5.0215679417489385 0.706014799849504 1.018912205829849 0.9797484272943447 -0.36710288069934843 -1.4343531476611038
P 0.5020017662517621 6.037827034978126 5.599365366059299 0.1430068147132505 -2.1260637160100675 0.9320233533042401
P 8.165032934966083 2.995622196582619 3.350714118671397 -0.3257160902224455 -1.422184373509054 -0.8304879183618986
Ni 6.802244659546127 2.2773137752598576 1.518728728183095 1.8599224000274615 -1.5133528633947744 0.9078333863215978
Ni 1.7258599581508944 3.8790028651586224 6.214302653535264 2.126308485031022 2.9453529374426695 1.6422952295951587
Ni 7.56148230919751 3.8319189354505783 7.175797900840424 0.8971288554199001 -0.1700440213367007 1.1177585601239524
Ni 7.438601793119951 6.327478607286958 6.1041956956750285 0.5840955028714456 -0.15691134060948458 -1.1244382861369733
Ni 5.846659967849231 7.933196566565315 1.6623820576493948 0.7082941837392576 2.583626490563886 -1.2721383925608347
Ni 8.228195209755818 9.09485699871743 2.256503829434439 -1.64785652573302 -0.38955529616559365 -1.2453631813495198
Ni 8.76101782676146 1.3017332664117136 6.418674943457868 -3.978793454943831 -0.97994665934808 -0.21639458357678212
Ni 6.605656256662205 7.225118131547417 13.015961548892792 0.02889277177495024 -1.3384054912191852 -0.9644984431138101
Ni 0.7017872719336831 7.5520878027179075 11.767391720384271 1.950683627172434 0.5562388856704936 -0.05569369401787828
Ni 8.413244707941967 2.669497288346558 13.051286564215745 0.1852343559238939 0.8318562594643351 0.5959554875338252
Ni 0.3900753189942918 0.9763881393458961 3.5290268645331926 -0.20945851857858122 -0.4148739774360403 -0.9405871837138511
Ni 7.450976177642983 5.570960908622259 9.63100853867128 -1.874797774477397 0.4994159631441786 -2.2029345583261932
Ni 7.914565366461994 7.417269208248285 11.05922231089651 -1.2617814748065432 -0.32202964250979377 -0.7355730740598686
Ni 9.33825083803431 3.52418386647943 1.6237411157310717 0.3931892933737551 2.092071932445655 0.6747055491505348
Ni 4.051557298402535 0.6238054416656519 5.773194370192194 0.30514212272583574 -0.848119772511049 0.03174103985702276
Ni 3.3475170158733984 6.709719910453051 8.036084978735294 1.5943492978434994 0.15359821707585158 -0.5213726699209279
Ni 2.3421655759184525 0.8545556862935807 2.1309349249413727 2.758959528213668 -0.8542004314874903 1.4099256107463587
Ni 1.9757983894323186 0.4958544913596748 13.390467237187885 0.3832393812498948 -1.0356485808960745 -2.917382677481988
Ni 1.057513230378743 7.95775039031882 2.130541321112583 -3.8396543507161036 0.5230379734384928 -2.8357966890783803
Ni 3.828558449931195 5.710532454986699 4.806741014279568 -0.019245735603489435 -1.065530198946855 -0.10408314106485946
Ni 8.22450053230633 4.1899127574657635 5.061994953871487 -0.5957294875659482 1.4539583234865412 -0.09854627040703028
Ni 3.1500931331642157 8.18441606691214 1.1625246896158028 1.346364855275578 -0.8145121117589328 0.8274478459839942
Ni 5.848200963971379 5.838175206068247 7.625315752780205 -0.19551336925239876 -1.048176023939124 -0.793088651777834
Ni 9.20446266868251 9.193684978936641 10.149913918409908 1.5149623739737392 -0.9859129042338438 -0.36541880812870614
P 3.757644778984872 3.2629943068844898 9.79593782604331 1.2115164080034038 -0.03811506170416661 -0.472809930520876
P 2.566891082695333 4.358688965277662 1.999374701790268 0.7251737331034157 -0.5447434834363843 -0.5080913794309895
P 4.812243113084371 6.516519842416022 0.3453214496878089 -0.14561262776721373 -0.8341383706302924 1.2220895555335598
P 8.077539631042914 6.926137034523169 2.565616511806351 -1.9787076231891856 3.8235893268334413 -1.4486572229886017
P 0.7595040748845495 0.29357368593297417 7.905909795472289 0.5639038584149192 2.6650317304152553 0.6293584884743032
P 2.7323532205336964 1.7181735437584928 4.155648801520892 -0.5359202287177997 0.39979162918162114 1.2090358076733951
P 7.218267196980276 4.503589016305435 13.381988973583319 -0.8075855598424285 -0.7720513714915607 -3.1383106301527497
P 7.780758630891854 7.322962102194653 8.283431565936576 -0.09515755644045547 -1.2979638382643712 0.6817971658899935
