# total energy = -340865.4790709775 ev
CRYSTAL
PRIMVEC
9.28043159461088 0.00000000000000 0.00000000000000
0.00000000000000 9.28043159461088 0.00000000000000
0.00000000000000 0.00000000000000 13.58284971911467
PRIMCOORD
 96 1
Ni 2.469699159101902 5.572537198672351 3.195175549193272 1.209910754079181 1.8497338895302338 -0.9005592212576877
Ni 8.164255471568728 3.2368660317684865 8.027015522017155 -1.5897061426445331 1.8366631723892048 0.30740726461092865
Ni 3.6690742891183707 6.054284399544818 0.5933842959110934 0.6937417398463794 -1.446002301864258 1.554631153318271
Ni 2.319829470277216 1.4651666891185184 1.6121622282974677 0.7550062430838158 -1.1849232308959077 0.382725931948586
Ni 7.8331946374958425 7.82772846332297 13.498595546258933 -2.0494029328222187 -0.44143038776833005 1.5681746963306604
Ni 1.0494126368764534 4.46169738547968 11.102485568997103 0.8565745881466217 -2.7725614352678187 -2.2393071834179565
Ni 0.13182481775212923 0.13339228263803485 5.761994424286899 -0.18731489260200643 -0.8055366477331998 -0.3760786018353975
Ni 2.2898629568575055 6.559965833340614 8.600945249305846 -2.2082724255993385 0.6253483388736455 0.9699108723786328
Ni 0.1362970577078303 3.7972463290191536 13.455524135471624 2.844756212264514 0.17574904214127796 0.060423752503695936
Ni 6.17232220821168 6.148109562342364 1.8370939034464975 -0.6030902988063935 -0.35555502796074895 -0.813250985658322
Ni 4.490977146965957 2.1832772007022316 5.720132253728325 0.7059429098982617 -0.37131794722196054 0.23044566235320957
Ni 4.227960436892242 7.867281662516159 8.402771842395607 0.26443436059382847 0.5621238836963609 0.21527101149530023
Ni 8.95085556786519 9.194058556616179 2.2340393051008487 -0.00619918683217642 -0.4782580981196409 0.1364553867479779
Ni 6.672518906971537 7.968642535718414 8.942065143117233 -0.7689182251792177 -0.31436801219947796 -2.668609420464185
Ni 7.07883476034465 1.1357856131530868 8.672078828962317 0.2621861879896001 0.3530872831465467 0.11025250310036497
Ni 2.5809158505920897 8.778415869552509 6.375531177271669 -0.018576220340290592 -0.7550108710695062 1.4905415219272136
Ni 7.1111213816475844 1.4519142328895478 1.8689861064092836 -0.27047491036095356 -1.2810601205304968 0.8461472221657105
Ni 1.5622864051102419 3.455206744442856 2.536542395260716 -0.8282657138995994 0.08862284064573123 -0.39477669246553304
Ni 4.968984333930667 5.703279918107746 9.389497948396828 1.3706445537585492 -0.20366299494272666 0.1520316439196801
Ni 0.24076873155991127 6.0221369847148765 9.694555013314549 1.3279966371810354 -0.3321551609795699 -2.061755797960617
Ni 2.9492561781326057 7.400392432527854 12.518728607203672 -0.5938165868139516 0.7828569467474968 -1.0408077564995108
Ni 7.899447638209165 5.487157228569737 0.16205396738422098 -1.1933073411945447 -1.2583511089687553 0.6550965166703556
Ni 3.185471001939326 5.510627439916424 10.985373947397223 1.5471147903365678 1.4678751906779492 -1.652405064335651
Ni 5.346911347244661 7.806225703461257 13.437037515858101 -0.25927827031418577 0.20108932067827953 1.2206404817918592
P 6.846842532885396 8.315071764409769 1.8413721823831608 -0.5777574764685598 -0.10673754796857102 0.7338586624719233
P 1.5320414787445442 2.148354936843956 12.21301912794919 -0.9728930949354083 4.162183815680452 1.296447658730161
P 3.9050385412737034 4.319344846196637 2.268254400076318 0.13370739168919551 0.07295119554674533 -0.9339354827252883
P 3.118624053607899 7.935205140905401 10.320222218355962 -1.0197589062490113 -1.9522769398014832 0.23823636204222196
P 7.147222260310538 9.10262774515412 6.826862691838231 0.6524804192037472 -0.30859434294049437 -0.9667723267496512
P 7.332663843200802 2.428735334315714 10.497763369882275 -2.3188499161392904 -2.544911333381875 -1.34375338579466
P 0.17476166228221113 6.210910242525449 3.6722454125731603 -0.34145021312825063 -0.8257380623817393 2.0106088427731565
P 8.01829284441939 3.743688958642829 1.6784866883335927 0.4818807824738927 -0.534983318725827 0.7524680500429944
Ni 6.85898133733042 2.2767868288276594 6.179218496883773 1.5387337653617241 -1.509377166576478 0.5647453804796081
Ni 2.2594973848818802 2.249029058112777 10.146564927426166 0.10373758479998263 1.1240911872101995 -0.3615181875227193
Ni 7.638899522923199 6.504014111628803 10.4906322862924 -2.706059337780527 -0.09490738810286235 1.3874842510237073
Ni 4.557257988973878 2.238319440123819 0.3852492737934464 0.6928914760309421 -0.5739450447010052 2.574259190416373
Ni 0.2665581227466671 6.146531888981771 1.5991492072020455 0.28188135242568224 -0.7172668195515132 -0.46776851144222664
Ni 2.204724277974747 0.24583399109056414 9.0092192737324 -0.5059684195507157 -0.9608266506891775 -1.2433289245283103
Ni 5.136301234037192 7.360068957517434 11.17888857767795 0.33471469417663 0.13906737044952822 -1.112325047813207
Ni 5.481004302463429 6.763151601321769 6.476669320117134 0.4399031524905263 -0.08788570536939058 0.8796898340078463
Ni 8.793635777266452 2.2338555525564976 3.7183598768601045 0.8216471801418171 0.10441352782108469 0.19543752170914083
Ni 7.323745348497692 6.784301704785232 3.742129846145303 1.580152180407511 3.9064732081128657 0.02288667479018639
Ni 0.018210990796995567 1.7889702257326816 9.88059982425445 -0.45865806450052626 0.2937531641626038 0.2526360824073198
Ni 0.1573627092443437 1.7193113066467884 0.8783538667758666 -0.39506876978465505 0.18854285147183658 0.2548282049626321
Ni 6.609866713692978 0.6624316345589691 13.144911804238316 -0.6550471514896591 -1.3567112315069088 0.5711723670518745
Ni 5.896442820033376 4.276552776398469 11.329318804567222 -0.21510466112076504 -0.5451654014651515 -1.2303795634564938
Ni 8.29146234659009 3.852010155494754 11.420785809712262 -0.9277188123916152 2.004421740125838 0.8419591522262918
Ni 3.277198787210439 3.8349805636318957 7.614273897850667 -1.7147915969926724 -1.968802448260332 0.5087408400895304
Ni 4.761640932622775 2.004684576283242 9.210027395154828 0.61717531614455 1.2307629149378416 -1.302826308562995
Ni 1.4392093221210174 7.769308146823409 2.96250121001635 1.4109144570221894 0.8864837170012281 -0.303341064961355
Ni 5.128329343350437 0.4749362921704759 7.324524904746455 0.02851893337529927 0.6276641314910159 1.7345474394633609
Ni 2.0443491406548264 1.9057180544164734 5.805581827067436 -1.5605768293787445 0.8255549998366557 -1.5154436844855321
Ni 3.9079340359119663 4.426970010683595 5.348545631237604 -0.9287143435356651 0.48293159233591015 0.5224988131055711
Ni 5.247230232149859 8.89047708031219 5.313746797118715 1.3006763520995277 -0.8556693027235329 -1.2465893404471369
Ni 0.1920279051491582 6.394542141266799 12.183734726247145 0.39736759312116077 -1.321627243319582 -0.03225577470991219
Ni 5.7177017087098605 4.038908766135682 7.546740197585807 -0.5751277521551966 0.16249012024884274 0.706245528740345
P 0.823317195613199 3.671385116570061 8.794868218574022 1.0890059134712922 -0.47226177132688985 1.727086869420258
P 2.072311080863432 5.238933526359453 12.617951268980748 0.2325223423765802 1.4940567341693238 4.428366526423954
P 3.8562234714106873 5.780752960544334 7.604969337195789 1.831477771533523 0.8071757259985195 -2.228851278191955
P 3.246619765309557 1.584791451577507 7.451632479150415 0.1432893789506758 -1.101742130091038 1.4739226824236098
P 1.2614426561084555 0.5380033207385555 3.77730917795704 -0.9702528290990837 1.1254986090806873 -0.15204629920769944
P 6.471708929462803 6.053913182283502 12.366953645785282 -1.24823947445605 0.5517839352229337 0.0035098129254713746
P 3.7304086611192595 7.0293886211373975 4.969000110664273 -0.577455886067741 0.6498021010406356 0.5614913923186846
P 8.926290265597624 8.405305400204087 11.914006408088843 1.4370314658242154 1.6754485764186757 -0.943752211705394
Ni 7.110425349282618 9.04664818214771 10.802969849747674 -0.5188529888228677 1.2693209777166978 1.705110879369799
Ni 1.5218144431952962 6.467569856999132 5.508063256683886 0.07596529978272079 2.1520251730708355 0.039617357281305964
Ni 5.465459579645834 4.226967430718222 0.06029403562605131 -0.19928132093526327 2.0706680128485826 0.6085667485399325
Ni 3.5579132802173805 2.46526311282918 3.6474972858043953 -0.4624470992293132 1.0750877607283034 -1.316902584150403
Ni 8.637112019032683 1.3101556412246098 12.221739021417495 1.1201918521557934 0.20085972116597667 -0.7754382856859225
Ni 7.443425793545877 4.881952447015198 6.208000827239887 1.022807463267348 0.2716686735587386 -0.23170884533634933
Ni 5.772688265542251 3.2522715481130886 2.561345276575526 -0.1728742916966442 0.8386285451911621 0.08799240615058394
Ni 4.045980454963747 2.680216467994043 11.65852633646299 0.021311874103898783 -0.21051729886039872 1.589615639813256
Ni 2.853352198671691 3.7646070513179697 0.4323799453332426 -1.1840531695861285 -0.6349130997439453 -0.5564705420653255
Ni 1.804533509413343 0.2464799091252535 12.075465499811806 0.15978274862000869 -2.910718120977619 -1.2903448882665325
Ni 4.489176743248576 0.05255137159815884 1.855240859265916 0.573486874117664 0.8554443311969203 -2.194422149979808
Ni 4.134320882725353 0.4220285520014539 10.57257756868469 0.6814922330550651 -0.27233381794656325 1.78014903935256
Ni 4.287550087764947 7.389051745194659 2.918383894595284 -0.39100231302476535 -0.8922859255053022 0.2847152223300516
Ni 7.474830773853188 0.062441527482762715 4.141084461226526 -0.9497989321201062 0.3084447047365075 0.27896906387489373
Ni 7.235961746628059 2.746617955611891 13.539683728827663 -0.07742517215769891 1.8240097452912523 -0.664698558536494
Ni 0.8242823604926199 8.013467020022286 0.2159602819861822 1.6574791364244488 1.0688852314620172 1.0464341015473526
Ni 7.517140261211646 4.644159949847886 3.653664132558002 1.5638182191341776 -1.973967537401039 -0.6309643995088424
Ni 8.135402609932965 7.201716954271684 6.070569700798737 0.48088679399173956 0.6840903327995445 0.5953083408681296
Ni 1.6278433734585966 4.380066709716355 4.77237467973372 -1.5220449918521337 -2.771658720947891 1.2160124961015446
Ni 0.4980659116799046 5.0796441995288815 7.288746985100847 0.03162199778065521 0.6569934765827523 -0.7016715362164174
Ni 3.3339115043079466 0.26308445722390533 4.378187422330944 -0.6335136482932573 -0.5899334497094615 -2.156324571777138
Ni 9.287855878119126 8.631181823283164 9.876279783375889 0.5100449036129345 -0.43277682585839017 -1.679467981990714
Ni 5.484716475076587 5.738508436206606 4.3661386380717895 -0.2757590415780283 0.1739688103124036 -0.8561804380319964
Ni 0.22110906540063113 1.5722907103027002 7.5818647748515 1.3674774688844773 -0.757745753502166 -0.6944156259849524
P 2.9277998204285574 8.023823981612994 1.116989955169519 -1.0457373325906443 -0.009901061163795851 -0.17176974577855578
P 5.373954524731511 1.1525646333645572 3.344695365749168 0.8239933117764905 0.36289424193463954 1.9851986302301685
P 3.81683731998509 3.823983252265418 9.908783566776693 0.8687050528615684 0.43258502156255824 -0.8815410282839722
P 6.029032345343815 3.7229564745983468 4.957535993591691 -1.2118501371937387 0.08583782170142636 -0.11461515094443486
P 9.243170600288249 3.3896033739368367 5.730495711621106 -0.5959416035767544 -0.8915734728193098 0.3483166012307808
P 0.7695343107506253 7.9766793894258985 7.696164425696915 0.0664424478939501 -0.04674676923723563 -0.8698106272209214
P 7.039151635110001 5.833911272364745 8.37839029267239 0.46533419096912115 -0.7854123661794989 -0.7366112855163959
P 4.537453548082684 0.6551251508131227 12.773597098391507 -0.3921626518814536 -1.7700062944916033 -1.6534944407450878
