# total energy = -340888.78724496166 ev
CRYSTAL
PRIMVEC
9.12023525453457 0.00000000000000 0.00000000000000

0.00000000000000 9.12023525453457 0.00000000000000

0.00000000000000 0.00000000000000 13.34838618252317

PRIMCOORD
 96 1
Ni 6.026158996269005 2.487370894733289 11.296245013683656 1.200691035253126 -0.8901578234187056 -0.3493275589937984
Ni 4.97827132052928 0.42017471260289246 6.032055228393131 -1.1283625608920438 1.428449123471843 -0.40992049008550685
Ni 3.074084752083891 1.8681889996999494 4.759620975300777 0.8843949527929995 -0.6000013754684248 0.2120483907929445
Ni 3.472383668286275 4.396984003184641 4.488848485309116 0.057197532256914395 0.0028667800248337724 0.4143487010601896
Ni 3.861553228949214 2.7393265152454487 2.501380488183978 0.13275171264414556 0.9244044033064015 -0.18259306164630487
Ni 5.304283251711053 4.931347709889481 2.257679592645595 -0.33520577488043557 -0.8410978326672611 -0.0038671962648901136
Ni 5.314023663015875 2.9037096363672608 0.46986357858690564 0.5467908528837164 0.3233185365245464 -0.5972153280828553
Ni 5.749469297612017 7.899291163503797 12.237507106459153 0.2242971262533105 1.4854895613256027 0.3642481848593727
Ni 2.0796416552264256 6.659267490611765 0.4570076949021905 -0.4269759029058969 0.10947448728375986 -0.570861777789991
Ni 1.034818378548892 0.08994649664001567 13.59893570362577 -1.1003316228967566 -0.4501286868732764 -0.6351807515830351
Ni 8.708839730040442 0.09265155843122348 6.917814305178227 -0.870118131159011 0.43454420217145806 -0.8567003150912084
Ni 8.83891252594808 2.3519262802315124 1.2455797202393144 0.9828643472155073 1.7583720526867848 0.04965880067770803
Ni 7.148020900560604 1.0940178259080622 4.509098143754898 -0.5504017101634263 0.1422650514512195 0.6907818858871072
Ni 1.0260355919510058 7.8570097526338065 2.4287122773276546 -0.8660061658731666 -1.1599236235277763 0.752259276466298
Ni 7.943004451316537 3.6572325974305757 3.4790697127877395 -0.051395323752840526 0.4306646646113938 0.3884854601401826
Ni 7.73353088685106 3.8130426973664964 12.425772475748385 1.1368433446695452 0.02849167968178964 2.045470430537032
Ni 8.217231686441407 7.339025988535199 9.168339073227724 1.5633093978185593 0.9613449850864928 -0.7341173154499486
Ni 7.225469938763357 0.8650023332564046 -0.001713692213647825 -0.6558040842603415 -0.19451526700518756 0.8220202472105198
Ni 1.838101343431593 6.503302346675674 9.111127837164856 1.0655731363696488 1.8384668012568466 0.14526167218569822
Ni 0.19686939927515676 5.139179632000214 1.5276293811845434 0.9545842693238915 -1.7361587498145388 -1.9792143876222752
Ni 6.47811225676564 2.533564886548756 6.8164602182197935 0.32777322986179036 -1.7163566274869473 0.05835658556202208
Ni 3.48515199771207 4.5521648068845755 0.44881133943436025 0.733666343955459 -0.09985264792327965 -1.4809484789221399
Ni 6.4678155111072675 5.963566821376694 4.637148983495608 0.32543378309533627 -1.0938403587454582 -0.21394277960217994
Ni 5.4737098629560546 3.543266137070048 8.88385795755041 0.9575253542300863 -0.259468789058437 1.2226356578450168
P 0.3476168565937493 5.812599566387272 12.292008720613161 -0.4304468921736329 0.7871614876601217 1.1996471673696438
P 4.284358217413821 6.337423506963984 12.518623767332768 -1.0055335066782491 -0.41647268938172793 0.20323182094257902
P 2.778306400935341 8.535573499732399 1.4522241877134479 0.19511639092429622 0.11847874766489917 -1.4977334116899625
P 6.903717157468617 8.618604121941285 5.938296473395985 0.3771337825727892 -2.1167300973139676 -0.6699320390212914
P 5.213646353258514 0.9646655285894506 12.631191183597641 -1.665817738197131 0.6155670911171658 -0.8567401671902084
P 4.417303887442263 6.524725779405098 8.03201794788494 -0.34578997815418516 0.036908185880259015 -1.0040432952859677
P 4.89463876279032 1.2107659580363528 3.6050256344790896 1.2575203855373438 -0.33849138761024283 0.6407027098425289
P 0.7458738197137336 5.821345872043942 3.503844831991435 -0.6248670283618528 0.2908575877823636 0.8084527929387303
Ni 1.3395436805308034 0.2188938555111234 4.6332920359854874 -1.6920375911256087 -0.6250763161591816 0.49172193693403055
Ni 2.464825673061456 6.925678684080986 4.699419214081682 -1.4233267146436133 -2.2776934965056386 -0.3579402403634739
Ni 6.323113857771788 5.943411101354545 8.828408750948302 -0.4385342971674576 -0.37592022188066226 1.0470485952029
Ni 8.851817658903439 2.4949771709769415 10.28131422023897 -0.6888664140319491 1.1019455043510957 0.3886158150704598
Ni 2.824737518868716 5.422846310664867 6.862912312694367 -0.4128276364299729 1.2718535143305645 -0.08846266091878313
Ni 0.8333697091275268 0.228723645121925 8.841903963127837 0.15096360766648195 -0.7599779852667943 1.7391594843140759
Ni 1.5943083335166381 1.3122468162655139 11.060299054224382 0.9589916543629676 -0.3934980828634255 1.332668331625092
Ni 4.504994949891565 7.215054630046031 1.2019257139560502 -0.3263113006042832 -0.5516638647053015 0.831941877199606
Ni 5.95047016347995 8.337162780690843 7.9284476437476 -0.4001158452902593 -0.11464934661647998 0.741528263202039
Ni 5.419134374896083 3.136330358034644 4.58143346602262 0.6279207275865122 -0.4156036565132133 -0.3748413869941867
Ni 1.0984776209717864 7.423798575687177 6.749358086969586 0.07590153642432089 0.06615448433988606 0.1625158312804556
Ni 5.508704205818037 4.754241860518396 6.568300439641216 -1.0341781669981351 1.6537116989622167 1.1482199619376032
Ni 0.7388111094942078 7.850370221332392 11.17576305722185 0.11968510926817452 -0.7627660895348928 0.5387289018111884
Ni 4.602116335645348 0.49206131929365093 10.368052218098988 0.27890555762681 0.8427919325402323 0.3190595041378763
Ni 8.696901342027322 7.399210421307217 4.478103024073779 -0.3930517393546263 0.5980799900759958 0.914293797234961
Ni 7.593325509520523 6.5038313203233145 6.8465077454528105 0.2465456532388657 0.5689758736211878 -0.7633512726144015
Ni 2.516181718059066 5.217549813968685 2.386263966151598 0.24122218414342328 0.7774630294254353 1.6032627982830454
Ni 2.4206928544247246 5.878028134459169 11.494655732725212 -0.2233807850866282 -0.8303930446552472 -0.6309181196519392
Ni 1.244173379955416 3.278213858661143 3.8446023596129404 0.2938752915627648 1.0221387193350977 -0.8618270947948125
Ni 1.8489909043847357 1.0692837477632355 2.4268435411138363 -0.6923361177481044 1.9346993359290359 0.5570786079629697
Ni 1.4654211681985376 3.850134694348432 8.289454829814888 -0.530554593530512 -0.7271043744672252 -0.2842377684730008
Ni 3.78729627310291 3.3615454486350664 7.191777053479274 0.2522437320649075 -2.0802780251345205 -0.052501412332825716
Ni 4.644643992868551 7.107618258163266 5.793787257025423 0.14292633918430225 -0.06406443458007675 0.7801650017376306
Ni 8.207974647607706 7.40675285590374 13.506163758088531 1.2476586622519157 0.30368584989528347 -0.3771160419609763
P 0.34890280977163296 5.698104132379104 7.920131813197287 -1.0023255412639125 1.0726084459498753 -1.0086054607353532
P 8.851252204314582 1.9379952807178336 8.182267440355927 -0.6252508940638328 0.4232801992218645 -0.6842463987614344
P 1.914556275986195 3.7257802859764886 10.486065326863963 1.1667810127692422 -0.38839084354384723 -0.16412945562447862
P 4.335477136293523 6.149090647933501 3.6785082823480724 0.3528263161756763 2.036522991535757 0.4012993240753992
P 7.207484834743594 4.183889705303419 10.449984763977257 -0.6982447699230556 0.7053235311467079 -2.5806815490029487
P 6.462188325924613 8.092548949598514 10.150073122188871 -0.546857958676226 0.31140224470293465 -0.7599263060932526
P 2.8748988130414834 8.60819793345926 5.954995624237863 0.18649188248007884 0.791340815848792 0.4682829891848
P 7.121198288531129 4.143505303376689 1.3963080250637683 0.6407243071090837 -0.2917297059746718 -0.3140754206597236
Ni 2.9158121886158535 1.6713104801894885 0.28025753470796566 0.38391429582973235 0.2891712012188762 -0.4714557304858268
Ni 2.0076647582061558 1.3303504833442308 7.0511247846188345 -0.3839888578214097 1.1928823378419842 -0.8764530722381033
Ni 6.856921230123077 1.281429541172826 9.348916084155565 0.0558782992248586 -0.37363656805280815 -1.0731985141253904
Ni 3.0634779184251775 2.1884369421695062 9.311019682419804 0.5057205652059678 -0.05064327607816439 -0.2187674546843329
Ni 6.638947606354142 1.9791640228807197 2.2304082650391566 -1.0656266153154035 1.0348042306179084 0.6627812869091231
Ni 4.215938212162166 7.281851233413549 10.189170658914188 0.8361086069827858 -1.2495329964564932 0.07322861757784808
Ni 7.32937677958342 6.378245680185311 11.262060547716679 0.9953491099460794 -0.9491854669058235 0.28881047544534777
Ni 7.894083509145133 4.171467944819181 7.930396638032096 0.3713025206029928 -0.6427598494818737 0.38421948577497705
Ni 3.2562340915781673 8.500533555693893 12.440882881600283 0.3304780303874631 0.1849736460633395 -0.2753564068229709
Ni 0.13078599830842227 5.17420133556811 10.115847615163027 -0.5337059946753001 -0.9454781932575651 0.7541557221580625
Ni 9.137654953570477 2.50167142369018 6.0703118794234046 -0.4498623205857672 0.4365761449998223 -0.6877320433171897
Ni 3.9128454322996955 3.040330761223271 11.782820511441868 -2.7119970434212006 -0.42564252880645403 -0.37218132366352036
Ni 1.2730206842224094 3.4794700911175913 12.59245389616684 0.0863507567821029 0.6538844986401254 0.35250955626620584
Ni 3.104427774940764 8.775681934584481 8.215651149663199 2.061912635253455 -0.7402643088879508 -0.5416350197143899
Ni 5.894636082948008 7.9435060642582656 3.6613686241410033 -0.04249442171878488 1.2601729926688428 -0.7515401389120864
Ni 3.390164747019457 8.629037671129222 3.530020819337846 1.8955586611738322 0.6352018346289576 -0.21186687090975773
Ni 3.6908680252322426 5.026407922464529 9.374237505453978 -0.24839504774277865 -1.4813781102603907 0.29248381053187694
Ni 5.308624483715824 4.78837890126179 11.394663296897685 -0.07729944521311202 0.7098813257207194 -0.8252994321824239
Ni 8.187171390878962 9.424577556238706 2.1465677659352624 0.5117117497923961 -2.3429761197635326 0.5985211913784724
Ni 4.818484798000755 0.5600864183566368 1.43541833011851 -0.05995246929423223 -1.0806336302471968 0.1680277622376203
Ni 6.280431156548415 5.87282960033581 0.08717668117814849 0.4308942641236966 -0.9411818798750564 1.117594266631946
Ni 7.935006004954808 9.229222116024037 11.250460520433343 0.6267087095562819 0.20981024549104513 -0.33503685340273914
Ni 0.44119867902599497 5.069674318747367 5.744972109583547 -0.35092318561569236 -0.24614636091791803 -0.5203496279730523
Ni 7.6975515585762295 6.195430563513834 2.562849962110348 -1.6179183434126911 1.1767687201095733 -0.03688633150338809
P 9.030045297216933 1.631929304146214 3.629065662717271 -0.16746906152067287 -0.411802023378936 -0.06365074408142586
P 1.9580689186222449 3.2580672588742994 1.5935841868334897 -0.5011648275144853 -0.168769011279019 -1.0921017787877967
P 4.9126603477513 1.4866165950453583 8.187192367420161 -0.20333132263492076 -0.11751844063415891 -0.059162883513401335
P 9.058919962189838 1.7005864355157765 12.527940999719478 -0.010438164614188476 -0.22764058880424667 -0.9176848251943809
P 6.569168686042169 7.8809138893659565 1.4372077202851818 0.2827223602697389 0.2035663214638623 0.348273149587355
P 2.0879957907650173 3.48028179205966 5.867350162965083 -0.5812282086259796 -0.31077643819347767 1.251454381848922
P 7.179467471889277 4.151084218914429 5.526659213061296 1.9678323710375785 -0.3681092104766758 0.17184276510833632
P 2.5346319540793405 8.587996612260593 10.25075960792304 -1.0585206003982417 0.4592838710099832 0.7284547178475326
