# total energy = -340863.43951231346 ev
CRYSTAL
PRIMVEC
9.30685959069725 0.00000000000000 0.00000000000000

0.00000000000000 9.30685959069725 0.00000000000000

0.00000000000000 0.00000000000000 13.62152976277093

PRIMCOORD
 96 1
Ni 5.352058580833901 3.5951840613506127 0.9593762265036132 0.6270082430745718 -0.39159752340660303 0.2724034948422341
Ni 0.8909996589660982 3.9345493934890583 11.117129535992458 -0.49914136932655323 -0.17937404048837494 0.22731020204802144
Ni 4.812539923965053 8.6117768842608 12.524846976245847 0.9769117291764982 -0.8133880254568185 -1.2924372520191871
Ni 0.7676316495130932 6.708142494151932 11.31221713698759 -1.1142186652914938 -1.576894849812478 2.570201218296915
Ni 0.8214802090572965 8.965176960828403 12.052111552533695 -0.8437455547027535 -1.103673028565164 -0.5383581487353309
Ni 4.816932761743941 6.579745057716488 2.9929092495177025 -0.453013207509923 -0.4700418808574357 0.35873136880620154
Ni 6.73364328973276 2.8168606914129737 5.295873999504739 0.18839655570195943 -0.7319257071152685 -0.34022071159652373
Ni 8.43769207355299 2.9852497039837527 9.487300166230051 0.4986253489220832 0.09632869393042119 1.4930547752673704
Ni 5.630864176897729 0.11364420243736652 6.902042539849211 -0.14703470492572096 -0.5542848472679164 -0.8943271243050469
Ni 2.167111588245097 5.292317848412975 12.915975200669493 -0.32939353907403274 -0.4130063280996823 -0.08253755368359977
Ni 2.1829704771756564 0.6018429735427823 8.166734021589072 2.457838610832083 -0.2800687246969757 -2.4111538051810344
Ni 2.4892126956381273 6.5819042491671285 5.651218279063888 1.037889297301135 -1.31920397859007 -2.6319244063383254
Ni 3.112111508568525 4.674212068228609 1.9767974755906255 0.9116442754272558 0.5733318365970383 1.7838470570294374
Ni 4.634723062517128 6.732935968395482 7.027388256988686 0.8622443848378891 -1.5077684273284613 -1.5226684843687452
Ni 7.262021635539473 5.510461332945473 9.257205743155458 -0.0015249212849586641 -0.2988310929061434 0.6023626766117497
Ni 0.4742422042977475 5.445201632721834 4.435728441819504 -0.7353843550878303 -0.5843742104541291 -0.9560189448878892
Ni 7.664561931328527 2.3424993593110526 0.053625194911378626 1.7867130657233228 1.6129131768886156 -0.0507350644610223
Ni 1.748126071364319 8.606825634899852 1.7386926383713526 0.32795320708308034 -1.2348239723810928 0.11548289826136886
Ni 6.954634673333775 4.9029002248023765 13.18618591179942 -1.986299576603831 -0.7117268635698903 1.1334345760983124
Ni 1.573817896023683 1.9571209128107028 1.7712619938951155 -0.4690376079626374 -0.06509930360249434 -0.6697494906968401
Ni 4.881950483615353 1.39917467373381 4.9087086359417915 -0.9716692498306362 -1.689511739379961 -2.1197701696918716
Ni 7.0117880987578145 7.420331319054035 5.757956791603088 0.5577640640657684 1.4404021820686612 -0.8689819606720389
Ni 8.142580859292954 3.5181697973245694 7.34087400435647 -1.4050256023415804 -0.06439096468156007 -1.691956344265712
Ni 7.292883182308097 0.3715289085792436 4.291899301313779 -2.0069221379501885 -0.4870152754869807 2.9814741086452585
P 0.21063471012570564 0.6896159673832188 10.068762047713545 1.6267937915254498 -1.8236006827782916 -2.489497889608577
P 6.0582630949482414 3.6336120850561753 8.544131835895787 0.5988019558436848 0.07257889980899113 -0.4606059322555164
P 3.164592890422647 4.984083961974482 6.856941497738008 0.6751014990373728 -1.475274311355498 -0.7440042355463574
P 7.487973575361138 4.661089396050153 4.764362034036689 1.1120460831202075 1.9926509727431552 -0.12804916496215366
P 8.257241370809673 5.043545488604378 11.516186274195416 0.9007266000734874 0.39144094322408063 -1.5979560413581513
P 5.2726710675840955 8.244947009144608 4.561795440585808 1.2022455242244392 -0.27415570164665043 -0.11258192256448997
P 3.414333163640151 0.8069410328323436 12.970107619434579 -0.7477536752864605 0.8363443771426758 1.1688175835832966
P 1.7537194940446394 3.2959778288221213 3.856446226877994 -1.2960738203305098 -1.2275143260935568 -0.9241406081220536
Ni 3.9623769039951453 8.229590690637906 8.316216148677205 -1.9319215160735825 3.5300361944967853 1.2441910154182896
Ni 2.609382868097858 7.686665723118479 12.947918204535377 -0.9583031129363755 0.3727281973059258 0.298710251057563
Ni 2.803523961461394 2.92419670434498 9.382850210491336 -1.025714609611814 0.4622596658088555 -0.44223282906496736
Ni 0.15226580882471077 3.0445157865599266 5.281025835537712 -0.6488114549925923 -0.13879303374221905 0.07431953664918167
Ni 5.193478998388011 6.901650721055797 9.574259740532618 1.9185826328728313 -0.6354730860124733 0.21586853586998306
Ni 7.772419128403792 7.989892519037816 1.4829354803571315 0.5098204463069543 0.3762845471986165 -1.5924122287217866
Ni 5.424177436657202 5.588015394834176 5.16408514339424 -1.3514687521610467 -0.11808999686691275 -1.98832123501955
Ni 8.344269815874027 2.942987254081365 3.1067172526858067 0.3854402455559555 0.6716914449145593 0.2968683127528178
Ni 4.192070201416625 6.292442298745619 11.669319482344264 -0.6031386355458258 0.36493518362406824 -0.6486757007456764
Ni 3.155053359229089 8.209822920632913 4.081037503811368 0.4509568392015266 0.9842820534986404 -0.27819824714714025
Ni 4.5723205682217065 4.612786794201795 9.980345019181797 2.0648334084446764 -2.3242546320946293 1.197666903714821
Ni 6.581997317764138 6.508947775970735 11.632623465229063 0.3428252390989064 1.0880497202056099 -1.2475856429221355
Ni 5.7733708126399375 1.2690182408148718 13.221206694168433 -1.0047554908616438 0.4182120406703378 -0.13563649039110834
Ni 4.080704318234071 2.180615841671295 11.372370163293272 1.4263462181962274 0.6282261746420729 -0.03300370861953026
Ni 0.8516111673393889 4.158053629209351 1.993469784059055 -0.2473578647275159 0.023543848758211066 0.5931226460707205
Ni 8.638422423584856 1.6184722088692365 11.555757180272266 -1.6030933625847166 1.1432880718536245 2.150701826273722
Ni 4.297479694390518 5.725989589901982 0.22994272126146748 1.2429039211757498 -1.1450827018602021 0.4719547816094324
Ni 3.411997141855192 4.191549017273367 4.666899668561508 1.368714940836004 0.31629968200455205 0.7406636012088986
Ni 8.903360798694147 7.83605012817975 8.03546355756392 -1.5173247035583286 -0.16479485712261943 0.1053586653431734
Ni 2.1139321919133978 2.5989033440744955 6.577196839530346 0.7718868208892383 0.6802730159359832 0.31996273267843606
Ni 1.7095026036050347 0.8391557970014972 3.7709980865908754 -0.06911305274757774 0.7604382127326645 -0.1266448284154593
Ni 6.799331105502647 1.6741830710396164 2.0593437370229624 -1.8726421615869746 -0.14995804922010306 -0.09407357934765735
Ni 0.276598939628713 6.445921722075344 2.1651422567323584 -0.49934140115250136 -1.0892355129835951 -2.343243000271674
Ni 7.457605292156669 6.673399986887978 3.2873112810685203 -0.6665813773815036 -1.3647973509491527 1.4832807265997423
P 6.563969930523239 0.841109306852744 10.666039075887001 -0.7163453361785083 2.234065475403043 0.8980876197887435
P 0.8189105850938414 2.98306259195401 13.48639077037383 0.08151014086034994 -0.13828421242660058 -0.19716581725415722
P 6.06194861138985 7.311831948659399 0.07946010675547448 1.1953477686633414 -0.6733019839347888 0.8464467556840003
P 5.0466632866042245 3.971097431535012 12.3839727636952 -0.7502769559289465 0.06081327463263076 0.16227183359044958
P 4.017994697568515 8.40947367493946 10.566765595513997 1.445248454417369 -3.0168820558309077 0.15231060861267962
P 7.439549984336667 4.407067967370174 1.6539806706865854 0.34176337349329533 -0.3695827096984086 0.07612907905409469
P 2.3794475923241514 6.572560162027291 2.721663615589023 1.0018838257408036 0.4016785617916889 0.31598420764666224
P 0.7859819847856186 3.6998955398469278 8.18410155247717 1.2614991676794338 -0.8659118063871473 0.8630033744911009
Ni 1.7379536737110906 1.669669244084616 11.66675823455454 -0.2857089537018886 2.299749962085046 1.7573343554508896
Ni 0.6539232297437895 0.3880495152345462 5.720388721733901 -0.6513280507668588 -0.10638273573231356 0.8538854713502327
Ni 0.04685259310693734 0.2846056310295112 0.6041008177062527 -1.3416463667539862 1.4452623383744398 -0.11229832988580016
Ni 5.786661008293012 4.209995213200813 3.257793644840726 0.392261382242847 -0.3883597331955957 -0.03228328551373795
Ni 1.6229208878063301 7.806026198784219 7.143062285526848 1.38765805759741 0.7836038522158504 2.140032519485334
Ni 0.7802843252766467 5.211162031819972 6.682913458874373 0.09919290285209369 0.3542391373628029 1.123466409142007
Ni 3.139501596668664 5.868514839363592 8.877450501286472 -0.9004962292302363 1.8583031192564836 -3.539889690252097
Ni 5.008114273722548 1.7189862936403866 8.794263927906703 -1.0848854635450154 -0.06429017743763767 0.793046485685989
Ni 7.342107163266857 8.761580098008618 12.208473310312833 0.29909488809049134 0.36593482853317627 1.2193814125737774
Ni 6.902153291479653 3.2839719798077898 11.236740366184158 -1.435430696995999 -0.032601845195421274 0.39580487661973124
Ni 6.803463351209905 5.43262806526574 6.821580084303935 1.108877969804871 -1.6082905905149398 2.131759223732948
Ni 7.199647061823154 1.16713604766767 8.321937075335429 0.8796142435749045 0.42010437259704425 0.28092078828462586
Ni 4.813172790424723 2.844315927531019 6.5454176363952 -0.8159604141696851 1.8891869533195336 2.105820135269683
Ni 2.7788142489551526 0.5074155750161075 10.143681337620883 -0.5220462989491848 1.432346144533404 0.57525039377599
Ni 7.385207230542338 8.466561952345593 9.79487419631574 0.6005464493386173 -1.4068618842193708 -0.25436797749676193
Ni 0.4689196112347271 5.714988881735362 9.230765885430795 -0.0037270711426000327 -1.0811380806874413 -0.7006261256710385
Ni 3.5836621690407346 0.6318175765818973 2.1247132581910737 0.6203071769053123 0.23908431186481408 -0.4298843348019435
Ni 1.5572516857558454 7.801651974724734 9.591341550827893 0.5958176764043802 1.4567520841815946 -0.5918481502336711
Ni 0.7391722032333061 7.783373302271906 3.805078876130086 -0.30097282183949453 1.8585484024980703 1.6777821096478587
Ni 9.653074881910811 1.4393523870631668 7.969357863793458 -3.337351295832117 1.219053339810397 -0.2968973662185403
Ni 9.173799527886747 5.07654761310424 13.717833757419104 0.698323702790107 0.20494314720673093 -0.6988384376429965
Ni 5.861767366080343 8.790114929851985 2.436550760705806 -0.5822983017617068 -0.04774487148444681 0.8539134963746906
Ni 4.191018526270408 7.811424177410819 1.090474513624296 -0.7390003545738628 1.0203248060548105 0.5073352179912552
Ni 3.105903833147937 3.2338638471774312 0.2718887379340205 -0.22138046682714776 -1.5861302523678167 -1.9878862043646603
P 6.67891895469069 7.463850195016063 7.915307345393742 -0.5249850698625346 -0.04061185998409135 0.5664394803525793
P 0.0865900919724354 7.486298340614953 5.814295866803288 -1.6336648076136704 -0.9094344122601304 -0.5437451240788571
P 4.640288564618345 2.3319546872697825 2.689379980658082 0.6562540273135665 0.6605842792578043 0.3115202583380377
P 0.405797696684415 7.406129051150259 13.794931783182456 0.44864490323889833 0.22361218437114394 -1.0293043838456015
P 8.528573558533573 0.5921954827766921 2.7951245205812123 3.0266478769684197 -0.054446966094970746 -3.098503268347825
P 2.4848384715786422 5.291182411529449 10.633510670545922 -1.368556817991585 -0.7591104950601765 2.6618489618118994
P 7.9722094856058545 1.356074606458329 6.264460294368494 0.6266202636075338 -0.27884642225410045 0.5378141033064028
P 3.2111923369457163 -0.2033027660532323 6.383334951957841 0.6237380569637322 0.5715099528969512 -0.736137688314087
