# total energy = -340890.92138903553 ev
CRYSTAL
PRIMVEC
9.08216238578708 0.00000000000000 0.00000000000000

0.00000000000000 9.08216238578708 0.00000000000000

0.00000000000000 0.00000000000000 13.29266269064159

PRIMCOORD
 96 1
Ni 6.555822834257172 1.935908367197611 11.544929935311211 -0.5108995383037459 1.348435878871994 -0.3311984534932554
Ni 4.895521773062136 0.27165384062648107 5.938351121498034 -1.1582799172767666 -0.12648953378451766 0.3119205791002499
Ni 3.040771610782438 1.6958577277408773 4.986888328732928 -0.202585959828464 -1.066917051992053 -0.7420183154645802
Ni 3.2662090506293993 4.568100729474881 5.025397606337276 -0.16447886854409738 0.5041609340283317 -0.314032226126614
Ni 5.364470156313203 4.149930717273058 2.672835948090627 -0.12650933127885952 1.0125320494832692 0.4868103585650262
Ni 7.356433631025738 5.908173819855157 2.647645661926759 -0.8546254348400507 -0.34210044511773985 -1.1955051201768119
Ni 5.310004427251798 4.59711823895482 11.611486747430721 -1.0326558168163376 -0.7821231539052659 -1.0249113969842285
Ni 5.688803264619337 7.8457260584818345 12.597616154807698 0.009050797348358605 0.2048271904541569 -0.193544418451486
Ni 1.9846160051759871 6.414577041633695 0.5827705859294199 0.8083558623495498 0.4523542337696855 -2.399378409812661
Ni 2.584674487598385 1.2796948734717823 0.4047465758915415 2.063535258458543 0.4695770254058752 0.6462532073471129
Ni 0.6001592944271635 8.806073930910234 4.521366645427644 -0.15994755633264712 0.9273025507898031 0.09215065129333162
Ni 8.832848146230065 2.0446672642311845 1.4692250752968705 -0.25382238940593704 1.410325931508571 -0.3974223576184962
Ni 6.964810780078958 0.5975935834950563 4.779788683374526 0.8572196779297883 0.5565728719711448 -0.8216672347464754
Ni 0.49065021076352955 7.080935310974263 2.1441332925011047 0.19339658001971208 1.222483705648185 1.5896143542616752
Ni 7.543680577175316 3.715894167023832 3.9275830291397353 1.04111860287171 0.0549627293891247 -0.31024936204541403
Ni 7.890137833554417 3.717147505461463 12.633054753239849 0.48723150526284476 0.9335418468312955 -0.2468045633272072
Ni 7.432996261672337 8.90203606085234 7.0326963125856095 0.9196496622302355 0.3767180351916093 0.30522234114446783
Ni 6.886286402312589 0.7762388134541954 0.24726187655440857 0.674686008766509 -0.8116196207024862 1.0989784513029717
Ni 1.7270367919176002 6.6753531761243 9.069477535038567 -0.2062901481529286 0.3315342395661193 0.5791350735423768
Ni 0.24229211718432328 4.748908422347064 1.451784598472355 -0.44662401615412756 -0.9195198215205905 -0.5957737105403224
Ni 6.1215501477805665 1.9031671710551445 7.199479329983951 0.9238919824463573 0.9233307106262486 0.44834665527218914
Ni 3.5214269016139883 4.1581409922558015 0.4097744611022126 1.1211477883111596 1.3417134725464956 -0.7342466419389613
Ni 5.637380060026093 5.562452218645969 4.887911829026692 1.6259175595680837 0.07542536811885074 -0.04931530129536023
Ni 5.280260344764536 3.006041421032427 9.437019940090165 0.16116908744457403 -0.3024090400653889 0.04005238793619554
P 0.38206659946797245 5.724450752791093 12.497043919134128 -0.1963366364846425 -0.8072536304243065 0.6386949353838807
P 3.97941311461708 6.194870446381989 12.573742782219602 0.11680598794816657 -0.5716732179476928 -0.11938814685304601
P 2.4504128780077945 8.39467921200169 1.777800631506699 -0.37486169870916086 0.3512689989908853 -0.37209133505287534
P 6.318424186277165 7.714207261993886 5.636634414477328 -0.8578483126527225 -1.1468534206073797 0.43304216370463483
P 4.684579464711256 1.0437857001567865 12.863442879915453 0.3162870835990617 -0.2780133848298438 -1.1754715985647046
P 4.059690349763615 6.153991632557512 8.222548617269457 0.5683572662005825 1.5198374426778534 -1.0609443793483857
P 4.985308032442002 1.2270001661157244 3.8766320970012513 -0.15012414248432213 -0.3096667500690667 0.11666072061955392
P 0.2101430780428248 5.598190528443641 3.7295755367517134 0.3367965164063232 -1.7233073477731675 -1.5031281003429726
Ni 1.751422398475859 1.3269039546225563 2.7838953569086353 -0.383727633740223 -1.0484447042194784 -0.16946603734604362
Ni 1.8543596292882616 6.719201857116208 4.474602590243856 0.5866347243535316 -0.1868271543323105 0.8545591003784896
Ni 6.10453925724663 5.804510016035431 9.40150141862721 -0.41174263089591023 0.31053141206220713 -0.47574304500727094
Ni 8.911254455882744 2.3451506135719598 10.096349523801148 -0.12916450951351946 0.5495884702335115 1.3018739719520547
Ni 2.3198749550797313 5.3422370222891375 7.2043173979964585 -0.12888091683482966 -0.502995710075637 -0.850869053121412
Ni 0.394024174735981 9.093424473143655 9.062844831697975 0.5108308898493396 -0.7630849063268922 0.40818165301752923
Ni 1.536393116958791 0.9716914935052201 11.537698717455834 0.2030587856998245 0.03200097838662876 -0.5526054026829644
Ni 4.293864830023628 6.9835926923182425 1.337853409842905 -0.2171270908674325 -0.08060177011346764 0.6266156356218434
Ni 5.386294593020651 8.13712724523108 8.153773032828836 0.5087051017555885 -0.6681726331280234 0.71100232669904
Ni 4.9661900801868315 3.0006647807782403 5.335887682421399 0.9382238256879971 -0.2522136501579205 -0.6393731923978279
Ni 0.3343834294299208 7.456664377385865 6.748126728537714 1.0896723434106974 0.08090747427934453 0.16254694162870714
Ni 5.184234639684287 4.5245790063362685 7.285801652551409 -0.1348368773079484 -0.07945094433847608 0.3364512172517625
Ni 7.979651628056538 7.454139536185419 8.862842896404851 -0.702394530425371 -1.4779282040385773 0.6683338412962362
Ni 4.765873902068042 0.5436518952151812 10.49621897838104 -0.8901277415117186 -0.949074652359572 0.33482782271572653
Ni 8.077430190516951 7.10893561824395 4.547499660068513 -0.5447288281483651 0.937295914557089 0.8457543576026659
Ni 7.385814427009339 5.967525752390806 6.811466638667304 -1.162215761996063 0.8289874225569722 0.8899624195784479
Ni 2.3702718753001326 5.274838293697392 2.55628546376978 0.3025157408465823 -0.7058086983132426 0.8365981450246948
Ni 2.318294658788805 5.400925956955605 11.274850033461842 -0.3135054070888665 0.7718338561641158 2.6613504249089264
Ni 1.2765796917028875 3.4269724106620747 3.9506462728246667 -0.9739552176513355 0.39482322943275233 -0.3590946656828912
Ni 3.767662493795554 2.483281224426542 2.496574785811765 1.1335649310285896 0.23388502705206168 -0.04274253317384897
Ni 0.7400709173659448 3.336495906925251 7.995377392583773 1.5422985998948469 0.32308610879876615 -0.5761723913696271
Ni 3.1813816520245077 3.0310355324843177 7.666583126012679 1.4225754382998854 -0.39124811048698427 -0.7288555528303771
Ni 4.010592178793803 6.954166485521685 5.896704864934573 -0.21515865428715206 0.20004956655985545 0.8761800210823749
Ni 0.7882481570489757 7.622995103087149 11.450818750105258 0.4535089161994189 -0.8386396009347555 -0.08295715771952165
P 0.23254150742605648 5.530864457152627 8.055752884843487 -0.9201155461230606 0.562659701595173 -0.13657185772118413
P 8.461433107049437 1.581386150437231 8.095298437199528 -0.8791038795973892 0.5244595363763677 -1.6262078371149928
P 1.9224486022369633 3.4223586720655774 10.5034638194803 -1.0466986680626489 -1.3263871266020706 -0.5296266823996041
P 4.230235198907368 5.974255634871129 3.373518434513365 -0.7146558642912273 0.26712450583148184 0.12548346111750647
P 7.014272237552431 4.0424705694900736 10.434208696854848 0.6961894300559236 -0.10232784893664956 0.5903918774031188
P 6.3909815832209 7.8759424134238545 10.441612475799463 -1.1252996056960038 -0.5994395894276837 -1.2278457412910468
P 2.3653220966877484 8.480805359857172 5.798179748709135 -0.10601738197309483 -0.03023668739735438 0.37675017398112537
P 7.1702311335741875 3.925474150985982 1.463216316526314 0.7114869796449425 -0.03571210868962882 0.64751921854373
Ni 5.5617710564516045 2.9156829854092927 0.4566456858045815 -0.4833460541655095 -0.42266724822821405 -0.5105472971706498
Ni 1.4605479771569225 1.0358024792388314 6.887527025722591 -1.1509432744060373 0.22920767618105045 -0.20590962488505826
Ni 6.881790731829781 0.8648807203475296 9.515073861834294 0.10133720288860613 -0.12192222612880937 -2.2207939551051172
Ni 2.117033935760497 1.577889517839492 9.16969102528977 1.247461201529129 0.072506651810159 1.332614852679337
Ni 6.587183541685726 1.9088162761870764 2.582937069894625 0.06584286663673822 -0.024680533465815557 -0.3163768150993906
Ni 3.911151580579139 6.909945435863524 10.269911467357808 1.151964773692016 1.1218862091390807 0.42292487276497487
Ni 8.315555411504281 7.385714523220832 0.11751500998806788 -0.7469198665312556 0.06923080927236465 0.4064351026400677
Ni 7.633757465758112 3.8763305692032124 8.353574252328686 -1.2037812441426754 0.2042286376382096 -0.5235051428828985
Ni 3.2360017778499697 8.263133169025968 12.38765835288174 -0.3649832632531843 0.6037865535424699 -0.09268929740562101
Ni 0.1674832521341485 4.949079285864389 10.429848350594655 -0.9285510784849234 -0.9180566067115027 -1.1317430473285026
Ni 8.610108108672787 2.4188886916525933 5.846192601249259 -0.1098282710787528 -0.08023281680982312 0.20519820064033048
Ni 3.6758509121577756 2.5930482415077756 11.512895331418367 0.3631086719382908 0.11901533689465954 0.2933307319132045
Ni 1.4794025466969392 3.171563834263064 12.781746102755863 -1.3964381177828853 0.68330563211472 -0.9500221038745059
Ni 3.058064048356711 8.633948785475553 7.963075773110736 -0.37922151833975337 -1.0130197877529652 -0.02080562389144159
Ni 5.508576830153013 7.846361809863241 3.3520373035518776 1.8696997911291993 -0.8812278679189276 1.1420107478030979
Ni 3.402568639778633 8.568793351043915 3.8929427527993803 -0.850103121489665 0.44046905229632527 -0.9756362048981843
Ni 3.4143482046598477 4.546912044148842 9.493779823422193 1.155229817596533 -0.2824691066083522 -0.7016633086863012
Ni 7.483211538640908 6.217339716633434 11.534309254376677 -0.7548514626735064 -0.49940799272437864 -0.5745140298305976
Ni 0.6610933396862577 9.172166822812223 0.5009421174122515 -0.45092444330169434 -1.006165740945609 -0.14953433141912312
Ni 4.673072364707787 0.27541113129059713 1.6745037470556716 -0.07267814439101676 0.5406726558011204 -0.30992000373045336
Ni 5.906148497597245 5.444792802272697 0.31149910434804223 0.9404046353893998 0.6768542200624215 1.3665259036044852
Ni 8.001330750162522 8.934877160783314 11.30243256125232 0.6857142415562126 0.37421480915378136 1.0956923243525323
Ni 0.16351888816294557 5.023761908854541 5.79154704536854 0.8620122142224251 -1.3898738343018062 -0.13658008525130028
Ni 7.844663445458624 8.802123190182916 2.535110401687627 1.382243057229426 0.762186562882339 0.612702625085177
P 8.828661269275369 1.5483179964414697 3.637776670141563 -1.1095672825624117 0.5638490939175838 0.7166592678745012
P 2.0481003216907827 3.304254229725319 1.5776261351243377 -2.001736222873875 -0.8511598448889534 1.001688679010862
P 4.374205640308304 1.2552184452876085 8.3488824071339 0.6292957535571678 0.03386965616425135 0.054170058284500264
P 8.765730964678657 1.706901637452178 12.365898399528694 -0.8937938775093961 -0.6462886885707386 0.9878867401307632
P 6.590625681307915 7.686297776350114 1.3812407169751626 -1.7468113444323787 -0.854829837541373 -0.9637314830407983
P 1.8647768697807467 3.0576099402271346 6.009121148843755 -1.3958894443682668 1.5398501383543546 0.2605831051685383
P 6.858413245319182 4.004988484474828 5.946499637775154 0.394286897313308 -0.7372481477694465 0.8013280089684909
P 2.2918292369970863 8.483430104846125 10.13238572853182 0.5632312578279268 0.8865194553351701 0.6281788663439053
