# total energy = -381173.9576585888 ev
CRYSTAL
PRIMVEC
9.15523361021398 0.00000000000000 0.00000000000000

0.00000000000000 9.15523361021398 0.00000000000000

0.00000000000000 0.00000000000000 13.39960981374526

PRIMCOORD
 96 1
Ni 1.5197962262304543 2.91720529107076 9.60446524097756 0.4218049002279187 0.6304926020787465 0.5217318530325595
Ni 9.079309145776431 6.836011437198743 4.895989993448257 -1.2823513285380947 1.007523283414768 0.6272969779595843
Ni 3.3348121118106024 3.4417910152250157 12.668553436183492 0.32338307121389465 -0.10155574665731543 0.6655917597747246
Ni 0.8020012009220053 4.791785125783486 5.254736902511453 -0.6343659689912237 -0.8118240234038083 0.04751295797929882
Ni 4.300771642863348 6.9873108259729495 9.889970282063409 -0.18605222383949893 0.48219985637620827 -0.005057359918249355
Ni 4.7877202021107435 6.38048363931363 5.781449387407101 -0.09731316933087757 1.500483206520958 1.9656505328949114
Ni 5.153984473398464 8.250321063074823 11.992221547860371 2.4322509921709656 -1.458425101008643 -0.46612814762532623
Ni 3.86165002340516 4.665626008192505 4.827463986245301 -0.9320745182571497 -1.542392959380866 -0.7440127201867895
Ni 6.897882505172608 7.303111450224278 6.424187977459064 0.6866141276626626 0.09228537709898299 -0.26875972744205967
Ni 7.401676694054793 8.740318315076776 10.644569346030474 0.18657055823681418 0.17638204773958654 -0.4549129956357972
Ni 8.2436011216879 1.8932382005799553 6.380479061696882 1.1834733858232587 0.5316789369429424 -0.944516086454612
Ni 7.3027452408843905 6.345492336887453 2.417745189726135 0.24080617965192722 -1.3299781863874385 1.212608612626318
Ni 6.582475555961658 1.5000392323435645 4.513028407308401 1.0743830213517949 0.1394553499165663 0.6598504864155733
Ni 4.348873239657471 2.3296864918569695 4.837835034750894 -0.7904478717208774 -0.8718009181780728 0.992897048861161
Ni 0.3546618438767594 5.919618340299667 2.776131382589542 0.44443472181229265 0.5834918078491758 0.657334404861939
Ni 4.328969762034627 8.36805736584841 7.475347026959808 -0.008488239976669252 -1.9318788357611052 0.8673464819511449
Ni 8.47527430533375 1.9370276823969117 8.717786369916894 0.10024551248632413 1.709625736521017 2.5543277415997685
Ni 6.907495500344635 6.274493501116911 10.65114829682154 -0.13837882902293588 1.6521613237559611 0.43170416161950165
Ni 7.963771409846947 4.021198277560315 3.725600507067188 0.3904742084354372 -0.5149469689002422 0.22506485765727044
Ni 5.908036969925749 7.48785490696364 1.237946869880025 -1.7465935719946177 1.3814858673484274 -0.8094331545741286
Ni 6.624882597520542 2.7702271725072185 7.793079405479039 -1.839568518961458 0.9163496513227251 0.7997010148880292
Ni 8.9649511241633 0.11241528106503196 4.673421689515344 -0.8341414559540861 1.8046858481516597 2.2801725541737508
Ni 7.523102555927738 3.1637557291495066 12.919193517065423 1.6198764955803262 -0.22525357662930884 2.540559227060766
Ni 4.441157993308929 3.8869550887913342 7.051196045316191 -1.3471726958888541 0.8435321531403667 1.648939988605186
P 4.881405706487269 5.983787371881321 8.052910425268777 -0.6906391896616557 0.4998139699135456 -1.635461751613093
Ni 9.095568840467402 1.9439765046212627 11.264797047959599 -0.6350930769652353 0.08398302788087471 0.227925209924201
P 2.154766600660069 5.247669977774989 3.7302641830106458 1.1060091328975081 0.6859307284423929 -1.0091965573521329
Ni 4.393404295387699 1.464507771141054 7.462403357841511 0.2302597715946486 0.643030329534441 -0.11332625692968225
P 0.5405405495697705 1.2349036702655662 2.9511968419990473 -0.07159391018790251 0.3769167814659767 -0.4892403081627575
P 5.173988658589777 6.081894854036978 12.056915174321412 0.4498906027205413 -0.6879089352146862 -1.223743546197215
P 0.9506336701784859 8.584432154320488 6.62912147062973 0.040633457250646154 -1.280314243503408 -0.6543107875442667
Ni 6.069150769008919 3.6190271804966994 5.566519294780875 2.212789339633086 0.40431085720821336 -0.3935731590757351
Ni 0.9846911387879526 2.3300435459633593 4.995964227713987 -1.0291586022963566 1.2248537485422581 0.05060496664106124
Ni 2.607831640734444 2.2361108502824107 3.3050676737016516 0.7172300527763067 -0.6070600820874191 0.2895183001456498
Ni 5.866362347046638 3.9259014520882887 11.842574678732403 -3.101960630768806 0.1224215343627311 -0.5023629615876445
Ni 3.7297047982439686 5.909803929990702 13.542315188303004 -1.3206702787229514 0.04791250741056264 -1.499333923407863
Ni 3.083226295308413 -0.02226827443516282 2.698373237928041 0.6596728231871284 0.07812862598262674 0.46055939528829715
Ni 9.083731123555564 6.495857891844947 11.807025822586247 -0.4278235956181728 -0.4681369505252389 0.3270718329193915
Ni 5.136589529753844 1.1562876802253808 2.7446154067988893 -0.0761182804208173 -0.488171757688927 -1.1760470114522004
Ni 8.04760588298052 4.218850613530685 10.986661969838972 0.6636487771157409 0.23466767085435716 -1.209311172821969
Ni 3.4333590451741234 5.007839481083165 10.970635733602176 0.7268902015738901 -0.23096502519178935 0.3660482141825889
Ni 2.498216030072846 0.7113140355158032 5.483347660552498 -0.14222237113874217 -0.4842315420942564 0.9710886947368178
Ni 7.716982935697275 5.13372394166923 8.55121513614606 -0.5455387256441702 -0.7668320320741504 0.13271417453799078
Ni 1.4029113601721046 5.2977765707049915 0.7566773019709233 0.5678926678593381 -0.6038467173564439 -0.8780240162696491
Ni 7.208711837634973 5.637783632322834 12.949074368153482 0.2313028681471823 0.8020695151202057 0.8163635631453747
Ni 1.8965615503394273 6.794043846847724 10.612905970980517 -1.229542412267179 -2.105823991924425 -1.1639674545798468
Ni 5.551925852586388 5.00817822472256 1.0673857853511266 1.0158066064694828 -1.3040267566289994 -0.2204535841375042
Ni 0.7031191860124878 9.29219579028609 9.916635815147261 -0.0010770351142626612 -0.20736795459813967 0.28969416360188177
Ni 1.3456819955813046 1.1694620612278062 7.95053751982679 1.6436491725198918 0.3538262181951003 -1.7494426114076387
Ni 3.380844625834365 4.32885989923266 2.0636738584099423 -0.07685130193209991 -1.0821842625637683 -0.1818340719930933
Ni 0.09552295973940646 6.386993010330117 7.2779308960136655 0.8187384911354545 0.47062295017188627 -0.5762870625706203
Ni 2.952343077232893 7.649994092198493 4.7754466960844395 0.023135814686514995 -1.1529682752558659 -1.0270171304733215
Ni 7.94113051740845 8.794041225238159 2.284914653485767 0.45054109182034663 -0.07176334588623125 -0.09427721071803118
Ni 5.341849864760361 2.598548233968315 0.649811007928525 0.2198987400752987 -0.3840073697641709 0.21391963967372837
Ni 2.936806645988198 1.9426215300636818 1.0568810704364755 0.7793134523706127 -0.10471974620759383 1.2752730815350746
Ni 1.284396862551259 4.347756301170817 11.795770378524828 -0.4121174977368257 -0.34381074294062725 -0.06001571843199987
P 2.6707189396264943 0.9662250328241638 9.849115052582293 1.4393647419430824 0.20418955687015802 0.34018703014511087
Ni 1.0101243774430866 3.694502925447356 2.591376939569983 -0.10183651112252784 -1.1841153902826318 0.11922153936819466
P 0.47333289599040657 5.19515555843523 9.778070440644267 0.9561436433912113 -0.19664182642988715 -0.522708615123532
Ni 8.611687284441558 1.0673720525008807 0.29200067925208945 -1.0270215013486956 0.49586141302370096 -0.22897884799969598
P 2.5826089724497447 2.681851703559051 6.758039975596758 -0.014298933121175375 0.09938804958203529 -0.6076311240995406
P 7.6325259066858955 5.0972769571170025 6.320997509665778 1.197068350898874 -0.3473025581439696 0.28402719512409147
P 6.830637315135905 2.55132553958992 10.171187927302531 -0.6016705356407316 -0.20469246464850555 -0.3945725468745269
Ni 8.34505941930352 4.336229862197881 1.3075486170188986 -0.4771895476458104 0.5844688270504644 -0.11684969670190844
Ni 4.949383315203743 5.811421790830131 3.100750327745343 0.10231216520736572 0.869502094841567 0.17372969771840402
Ni 6.440532815821558 7.648556720539438 8.573900889228696 -0.5199881308685754 -0.2419482636761704 1.4851527468114747
Ni 2.960244043740949 8.37413644089053 11.48552881205298 0.08672973738807643 2.208976136534583 -0.6212448582282333
Ni 4.899322498441228 0.24602492767600886 9.746661581085531 -0.500968395232963 -0.26755927937605534 -0.29658703406697307
Ni 1.1745981472197178 9.1489255412889 1.1366918184480415 1.2880987725448334 -0.7828217226341873 0.8348207414092977
Ni 6.709751612039293 1.3056644699651812 12.082052698934588 -0.6791155052927723 -0.8597915524220225 -0.5228502829077188
Ni 7.594815499911059 8.364413582916535 13.053819394594587 -2.27419679620629 -0.40353618382571793 -1.2055694463913496
Ni 0.7303917110772029 3.7656574001873495 7.3213459287805875 -0.006759173100704488 -0.18272238813531758 0.7413351733546265
Ni 8.772068664844955 7.287364448609147 9.402211484651515 0.40676548939629303 -1.5582726067256 0.796875372513776
Ni 7.568649842576152 1.9613622930323857 2.1231279447405544 0.029135741023691757 1.171737585443569 0.8354676309646772
Ni 3.5072417794962725 8.597579069622421 0.35570462497208694 -2.2787417352644947 -0.8966675995127654 0.9634885137920567
Ni 6.894440137377672 8.302661532978135 4.3318261948857435 -0.522990408030009 -1.0956069637275776 -0.33335432349399363
Ni 2.608527438480229 5.180067733631897 8.625677396748582 -0.1247589242466561 -0.16916907493091513 0.6900905162470373
Ni 5.692788275173822 3.4665925427688444 3.1665819497300824 -0.012728760420578078 0.3813953860626206 -0.6106364865847678
Ni 3.208094524976293 6.768326795954177 2.123905224064464 -2.1131714334284317 1.2230742880443324 1.1814596978273395
Ni 6.576295773351069 5.720556098370733 4.5683022140242056 1.6169852900754604 0.47370570286226804 0.2906177038574156
Ni 4.705176616900273 9.008420172807856 5.330901121021098 1.6969337428756452 1.0363024124299896 -0.5057079668004775
Ni 5.457095944022718 4.819241671041494 9.697204094210479 0.10480896348729046 -1.474156909921603 -1.4155079899301428
Ni 4.375899488941112 1.2409369691402004 11.891590883352892 -0.45016931030322477 1.4162340694628899 0.7582180651528941
Ni 8.358691561980805 9.017474698736555 8.047591234606923 -0.7162386353973148 -0.6460071527745779 -1.9760347043427129
Ni 0.6060077932613226 8.72688758753643 12.092558329372588 -0.7013141528769987 -0.22096960454197428 0.5176450845576955
Ni 2.141290096952237 7.8823264526561365 8.467749618922426 0.08650862251620585 0.16990878131041706 -0.5259644030566684
Ni 8.877051727356987 7.078231449833329 0.8381588800957224 1.0980435981935281 -0.6259834013544832 -0.005407029948184236
Ni 2.455735746645985 6.25386676004779 6.526708282160355 -0.1360684357222044 -0.16066900787970395 -0.026546640140276863
P 0.490758967428917 2.7847656833007215 13.273519363872838 1.9404542361349417 2.0681868982979412 -0.18739742501348372
Ni 4.33018740808975 2.613352246533237 10.01725366232784 -0.06176946789831298 0.6259047255977478 -0.6600194078932697
P 1.7713545770321517 7.236964888207235 13.192505618179743 -0.20128498162885336 -0.4925539459170226 -0.19202823891727572
Ni 2.1377836425228214 1.283316544998593 12.52603574737977 -1.622214913905516 0.7206475630982879 -1.4654740374356245
P 6.5958147311670325 0.6813379699993743 6.697259295932406 -1.6737318508378853 -1.0425010850415335 0.08774635157804889
P 5.005550672708872 8.041535963171896 3.345266472941019 -0.9307478290259262 -0.13292269100437107 -0.3389680701363453
P 5.25882105217454 0.35404020352230164 0.38834486343619185 2.9061780670154205 2.1521668408550227 0.45667882928696835
Ni 1.128858600667864 8.140998419885134 3.4767163999700132 0.7291797689390151 -1.0331646381319561 -2.3657481233527258
