# total energy = -340892.169504872 ev
CRYSTAL
PRIMVEC
9.06084307724329 0.00000000000000 0.00000000000000

0.00000000000000 9.06084307724329 0.00000000000000

0.00000000000000 0.00000000000000 13.26145972760192

PRIMCOORD
 96 1
Ni 6.499886406330786 1.782757123328883 11.555638423756179 0.7751078989296974 1.3120866508189986 -1.553209076159764
Ni 4.489838033834389 0.2050486915252411 6.091690894247027 0.33879246379042943 0.32781359618142253 0.15811898776434058
Ni 3.0239114111888012 1.8735558320355863 4.982727964628274 -0.8505813466776643 -0.901907507755466 -0.2078639203979517
Ni 3.3783534715808607 4.273909081914476 4.550285636408487 -0.23460827837133144 0.7706709462042663 1.5830503278909125
Ni 5.089167500694473 4.659955363039893 2.740427531367025 -0.10593587800288207 -0.24612759186484062 -0.24600160780993763
Ni 7.1464228657427045 6.074606674581676 2.523218282317059 0.9078303009978042 -0.018848757275386895 0.2933155624045529
Ni 4.97403136742074 4.762977149088712 11.413064245406542 0.1126351443999286 -1.113019245666754 0.7797947628824053
Ni 5.549494573555002 7.761436652009165 12.482229233876463 0.4640044164141041 0.46109469896647687 0.2342267266621966
Ni 1.823576221495104 6.461549979174009 0.40536581078357864 -0.07275527748585534 0.3259395190871613 0.43600510298770073
Ni 2.78262115943154 1.5731526398928815 0.4541185831682996 -1.049413495890651 0.4757476729929612 -0.2420215401162671
Ni 0.38752772897229365 0.27858015153596966 4.709396759500227 0.8547565611012764 -0.16040109893029797 0.07881485341637394
Ni 8.830933267336551 2.522964578710255 1.3592469742372337 -0.5255525123302304 -1.1320088993953794 0.5071066469202169
Ni 6.8121683637778006 0.7595722892550338 4.622428069171961 0.023400895422443568 0.17987026339850312 0.7187716862318138
Ni 0.8703601239250003 7.654618372701379 2.5926687385954756 -0.5245950335129675 -0.8986648324484522 0.3704535423391362
Ni 7.756851865400484 3.8566028920935067 3.811382942433538 -0.005756185757486861 -0.24293453884883967 -1.0529762735412445
Ni 7.825469630197996 3.81435218071746 12.778782473785911 -0.746899040595649 -0.12910563125112604 -1.1657479435190374
Ni 8.058867887615017 -0.18398676173891915 6.700710932802733 -0.9651270778367443 2.036466427266209 0.09251729060413098
Ni 6.947057135009882 0.6849625889153862 0.3979893784157384 -0.2051838024626273 -0.3331404077109746 -0.04795030262703355
Ni 1.655633494633638 6.256883655227594 9.615128397716271 1.6875669569487648 1.117295504444605 -0.12020910009244459
Ni 9.28437409944096 4.854645698733032 1.190002204222275 -0.7577820060567402 0.9529156233722169 0.9106896248234702
Ni 6.373098028830247 2.082372022121874 6.923901244383114 -0.6988965445744415 -1.1712009962138088 0.06166662377186154
Ni 3.568078465255111 4.115099684897971 0.48715804144872304 0.15259137307789206 0.7044547553885092 0.24777232655711523
Ni 6.242485975541441 5.583418370122002 4.866849748304638 -1.2718979944152546 1.1269659376548335 -0.9024052733274911
Ni 5.653866425225746 2.9676073321644068 9.128963424671324 -1.2471518978188263 -0.7267115099041808 -0.04921991336807652
P 0.3326860700242651 5.522710721350929 12.121066746157014 0.0523502314669421 -0.2038144329189264 0.46850101873287703
P 3.804358070777984 6.248873869927053 12.927668435439118 1.6202433920014416 -1.064551894193986 -1.2950798318483567
P 2.387577461107664 8.44459703923193 1.3986996972639505 1.018360483239588 0.8045871393357369 0.20415304720526772
P 6.254545957707753 7.729560605982802 6.020225306463135 0.060501399819166767 0.02653301329352204 -0.4257248041076152
P 4.845811376710375 0.8324667719958212 12.47240274953434 -0.28998341270752637 -0.23275065633730238 2.3567585182596056
P 3.9370178746074265 6.021473890642338 8.355277060119173 -0.509736114123264 0.443225789105856 -0.693988822860179
P 4.771566828347665 0.9142118862768447 3.9054471789935388 -0.012660369076487873 0.8458744281202981 -0.741969978725148
P 0.05123363122554478 5.806559753149642 3.4874460225067874 0.9555432908030511 -0.4268753727722906 0.42588164140045365
Ni 1.6181125433558754 1.081284772200695 2.6570795539415837 -0.5843945221691033 0.40539432008037923 -0.3407701563420905
Ni 1.919684584258501 6.706763575993639 4.7908084347551645 -0.49250946583233246 -1.1354413221156963 -0.5020266612941484
Ni 5.956063664302282 5.590377097622925 9.257281272487171 0.09665085315653031 0.36826527643856577 0.21270479343002077
Ni 8.757640107499357 2.203488311841713 10.061694768160587 0.14699665259893394 -0.10282818561183582 1.2249025995023228
Ni 2.033044792284603 5.495084210738542 7.124931451993434 0.8476695723475078 -0.48876876784297757 0.3793588152485661
Ni 0.5138476608845544 9.025841063264094 9.12249217052919 -0.5183122858280492 0.12176436039470642 0.48637429946887195
Ni 1.583110506459957 1.0690163906430785 11.400120831037963 -0.2628233073529667 0.1033910000938413 0.088444406086338
Ni 4.149983930833588 6.849417489762559 1.8053621146951622 -0.04386559103469865 0.6295250959591545 -0.4054285157524244
Ni 5.441253741880491 7.863787935668572 8.166725445626392 -1.2908171999172608 0.28992453444513294 -0.5304810599800992
Ni 5.281819146690076 3.002808707608529 4.6250267189730865 0.938473479804958 -0.4630394813976735 0.7294211955258599
Ni 0.5041081606361925 7.226738178982522 6.610718639131943 -0.4466396998834115 0.07403362997764669 0.6528964236952434
Ni 5.34209187499234 4.422642821403603 7.1182608593030965 -0.8790552857476409 1.5421430481535894 0.64038517860211
Ni 7.7488420800999425 7.670520152342159 8.703748024908226 1.0229385895285739 -1.4341837119627752 0.28849294420492894
Ni 4.672432143988814 0.23057489870701187 10.416107833854726 -0.5278577634246393 -0.21297475926195578 -0.5799298015295302
Ni 7.934027591381012 7.498626897889024 4.535167619695869 0.4197325910799223 -0.8242205972959482 0.126962102545562
Ni 7.248928183734813 5.9832461936027626 6.973154175306964 0.6085919453509132 0.46207557482250744 0.6074496042163537
Ni 2.2896569297242344 5.3182256142665185 2.7443400034176744 -0.4242384493700758 0.5056987108290968 -1.0539828604288881
Ni 2.5305394435419886 4.941357967201562 11.654011997294617 -0.677131642093524 0.20454051245167354 -0.8354365206164256
Ni 1.3311103381583071 3.306854358677498 3.745978152599343 -1.4457212802887294 -0.22715465030676363 0.4408770863680213
Ni 3.694440983129943 2.659085624603959 2.5822315534284015 -0.26113666367916316 -0.08651942114948324 0.2388259159971048
Ni 1.2893579731527698 3.3435598340762462 8.213604435658 -0.2729102592753236 0.2527096159577325 0.6601351075355277
Ni 3.8184386209556327 2.844814786471039 7.092268018701668 -1.509715523752503 -1.1878229210412057 0.33345536784823215
Ni 3.9001764865621764 6.930684191527893 6.147787479964428 0.8397235780275539 -0.5859865492465715 0.5087428969720593
Ni 0.9051999717294256 7.635200985937736 11.663215095631449 -0.057640019110971705 -0.8587183739625017 0.06110072396606252
P 9.068272991502143 5.842576604472778 8.307495610114788 -0.08320295518174059 -0.08057477353027413 -0.7235665365172957
P 8.251718872158824 1.773306663975416 8.03519824718447 1.2539637785343372 -1.0077305143295676 -0.8517308869010751
P 2.175816497013824 2.887645391805495 10.247368658884756 -2.1987405748495035 0.10718826235274444 1.7716479438600845
P 4.153390807839248 6.256711499208691 4.024176842640796 -0.9498920060545447 -0.2143479854603986 -0.5709543375037972
P 6.8857695922804005 3.886847986361841 10.529267797248313 0.984071737260047 0.6547221640500724 0.8809337337172765
P 6.314728077579017 7.688524047582177 10.255152829192102 -0.11940434480296211 -0.31345809879069886 1.1243079312066961
P 2.17386841574729 8.621392209802252 5.851433578603185 0.3065112351592205 0.6952018693316737 0.26699697911468206
P 6.896225805217985 4.104842810508591 1.5359424755334543 0.6813865607151361 -1.094634058291347 0.7427744769043143
Ni 5.6241921640727215 2.8261132063123084 0.26857607466908295 -0.872407184303504 0.3589650820835624 0.040776924807045895
Ni 1.2510306068390928 1.2541565977086482 7.109508084868342 0.35848814244714394 -0.8120417958415691 -1.1322932634050178
Ni 6.822941706223891 0.7969201784295834 9.33252704401245 -0.3492964486455468 -0.7037651855206525 -0.5375803900290419
Ni 2.7069087544866033 1.1661395678336939 9.072801600883604 0.7146201259572854 0.5121424095719115 -0.02775351596418446
Ni 6.128391839224226 2.023295325108831 2.448635764506712 1.3803239858298422 0.44513097654836886 0.6718076587774494
Ni 4.175009979476229 6.841480191206818 10.592697323286675 -0.8448192473829063 0.151941398198719 -0.606508066238691
Ni 8.211706189028517 6.975517243187486 0.1764064604013253 0.2424128620174148 0.7944194547741157 0.7542809348820171
Ni 7.750889830640579 3.944909868947666 8.298133040939392 -0.0016005117179004693 -0.10188561919290841 -0.5657874485908773
Ni 3.09010087003547 8.364553551285116 12.554040039782471 0.7192177726302968 0.310701104870852 -0.19202438226253382
Ni 0.21367008373504337 4.512997548798398 10.065938867068702 -0.3390981679563063 0.07176977364413446 2.1541591886947034
Ni 8.542236684479255 2.388193598438475 5.875144898911994 0.6095429964102729 0.6014211386340867 -0.7429107453718625
Ni 3.8209847178667773 2.5128526778104763 11.761920296027352 -0.4632307714728732 0.996422545515916 -1.3481628277162654
Ni 1.1118923001930356 3.19482609458712 12.580854698853084 0.5868123875819764 0.25638012283078426 -0.3372793695800127
Ni 2.4292935827408004 8.100620252620555 7.994764234850005 1.0806066336640037 -1.062958581564937 -0.35229589759350294
Ni 5.667910732030993 7.824962222984387 3.547851945202624 -0.2577448643887948 0.5380167062355121 0.2838945262009691
Ni 3.0783489565345628 8.520182592373464 3.7826718489020608 1.0062248763183186 0.10377563712676967 -0.2789577510209841
Ni 3.552385085005634 4.121551005185285 9.407984839266273 0.9027359171940323 1.4442984317992738 -0.8164273265037746
Ni 7.142852893561241 5.875920507081367 11.647593296042464 0.5991467407776133 0.5956582680083806 -2.149748204111201
Ni 0.5294776152323305 9.146739892749528 0.3876482381855258 -0.27092331075228177 -0.026043732361929337 -0.08308134200221176
Ni 4.452742942182335 0.4794391092116968 1.5716947502380658 0.7204295335502109 -1.5917918215289684 0.29289492992736654
Ni 5.9967196672927 5.648792353089656 0.4104380707510482 -1.280866516462452 0.17320416423223717 0.0026307527546277276
Ni 7.951940878190029 8.722556523015538 11.431338153770945 -0.5260829309124037 0.15243864955011166 -0.26954571367846486
Ni 9.203913812711539 4.980419261806353 5.570834671224499 -0.3406842814965036 -0.22706260481358959 -0.021872117482742977
Ni 8.045702482590485 9.050051636027721 2.510420747522393 -0.5276420478694074 -0.5927097269030179 -0.4330807302520541
P 8.491206016139152 1.78485017808502 3.4287507869882607 0.3418353643818113 0.9280718248556599 1.1662364531196816
P 1.8190276782588235 3.4174691312442516 1.5791617910369076 0.6942397625287204 -0.8252564947596304 -0.4244413094095013
P 4.750183238631287 1.0700221442271964 8.191617393791152 0.12785144712905078 0.011014605942948773 0.1386883898435547
P 8.581542621847747 1.651275229102461 12.385951433347092 0.24163638886270639 -0.4765424009801148 0.15784696504987653
P 6.498735679257066 7.859393426764995 1.4199972089708768 -0.7383071851615801 -0.4547085929344749 -0.3871073488457333
P 1.7422732763573683 3.4613054901628257 6.094860377163463 0.637866011724682 -0.5981792346580214 -0.7727908207607466
P 6.951977172813271 3.9144110710725277 5.954024068520436 1.3824243200022968 0.18659318394463348 -0.7734243405796873
P 2.380365029999937 8.368658113209488 10.300905556426361 0.41641792488439255 -0.16707234030288645 -0.6662571612728654
