# total energy = -340896.4950166551 ev
CRYSTAL
PRIMVEC
9.02322593707184 0.00000000000000 0.00000000000000

0.00000000000000 9.02322593707184 0.00000000000000

0.00000000000000 0.00000000000000 13.20640324056654

PRIMCOORD
 96 1
Ni 6.421505114559351 2.0555450242351836 11.422085834234839 0.5451075516440225 0.2582002067586585 -0.3239078333691131
Ni 4.5752989337359145 0.4474040291461491 6.036620311462641 -0.19907794667520554 0.28571563857010795 0.5901944166803319
Ni 2.6059257178878936 1.4457463873123724 4.7945714466611085 0.18395883164557997 0.5490403110395254 0.12710454166069723
Ni 3.234646059751844 4.133621043815157 4.516365537702503 -0.06051991176192804 -0.3861794377148252 1.430902212998026
Ni 4.992650206336065 4.361881592168043 2.6655277349685806 0.3533729327077656 0.5396863806284511 -0.32700704111972717
Ni 7.240588455537854 6.212085062113523 2.5414926656019197 -0.31293642195927396 -1.0090762297241846 0.38665277780681795
Ni 5.315456116812583 4.511017471646894 11.420884842853024 0.5320293783038257 0.015558002339257077 -0.45747201461222503
Ni 5.795554903080203 7.8151604181210335 12.363029647111803 -0.19772477508142075 0.25303357495605455 -0.11635990154968347
Ni 1.8307133017657664 6.485010579211587 0.48963904312706985 0.17334223247199823 -0.5801223771563105 -0.37147272763226996
Ni 2.648605576911064 1.4306054140690572 0.3649696409719667 0.8628725053401912 0.18053695044822457 0.5082888401537762
Ni 0.4996358752225816 9.090268578374806 4.822595782000255 -0.2825200144509457 -0.2937145976151845 -0.30990689110433084
Ni 8.467061427602431 2.401152626836766 1.445770750022597 0.5408629174350557 -0.14597669597485183 0.5389420462632589
Ni 6.669463365290161 0.7580006125097175 4.909546294792005 0.957696589700628 0.13308569894479658 -0.4808646825045525
Ni 0.6816587065368976 7.448745256342405 2.522845266731458 0.033859628861922335 -0.6247245892467176 0.276908067580807
Ni 7.456487184258236 3.797803641433478 3.660894233196994 0.724932563626887 -0.21724021940652907 0.2471393209588066
Ni 7.732309156905229 3.8848597259695348 12.698445515936076 -0.41707407041115263 0.3712325865970058 -0.7872252510185217
Ni 8.024381959594661 8.62873056800796 6.767370781424794 -0.8644023117211564 0.6936836329149344 0.13580052677279839
Ni 6.935116162224869 0.6826747217855254 0.38330122693210916 -1.0062145919056735 -0.07048653605633667 -0.05926521341922051
Ni 1.950559789618991 6.397088264978653 9.229360704982897 0.5379429155747832 0.5462887164363173 0.1603879863041754
Ni -0.03731194187034102 4.945539943342412 1.4642331727598716 0.09634437765970504 -0.8687472189534136 -0.5087557524878659
Ni 6.356546910519646 2.0722199459000503 7.061093932151296 0.3122535369596364 -0.028629233700918435 -0.335260539377771
Ni 3.1775019694360425 4.2535848336065 0.7113929432047739 1.1931453616953838 0.46638320105892583 0.011226207733122601
Ni 5.95352452082199 5.534873903676525 4.734997401581049 -0.43976122759602326 0.9335770709446052 0.04488426210720012
Ni 5.317693876862847 3.12771180831768 9.184578434299599 0.4520590711267698 -0.5824340560086227 -0.014975647473225823
P 9.343550532451001 5.525164912490703 12.440854971440523 -0.3674494654054898 -0.012288844669682062 -0.683211786849333
P 4.115231709208556 5.798108476040786 12.677869853667463 -0.7632875092560016 1.5841579591327943 -0.06214124941543491
P 2.309657115104218 8.334347819460191 1.4138113858208698 1.0181236846384336 0.9212118645110328 -0.2270440928708283
P 6.197314041136583 7.72816749616704 5.790215860250603 0.6648561671602807 0.26232631311189014 0.02254754628321278
P 4.814360283621725 1.0368318310307552 12.580446082446919 -0.6585747050269433 -1.2700357443955352 -0.14862184690718275
P 3.992145883218055 6.152739304651495 8.058388693777859 -0.4336440589546919 0.9178684019600967 0.034137308003341214
P 4.611057978410084 0.9263785214530317 3.7573407890407498 0.1538643262530447 0.9687621034861703 0.2864247488219906
P 0.10668791736411481 5.482773796699824 3.6013337229559483 -0.44354794833196515 0.12164326143580986 0.4685120744764706
Ni 1.4006483037187556 0.972369904421552 2.4707063598829193 -0.2636463174748943 0.48564899126707334 1.069269097163997
Ni 1.6782749215675747 6.516140708943076 4.733676401293313 0.2849401938566641 0.16247032275450085 0.7636644329794461
Ni 5.886030790273719 5.646175396499106 9.05256683314087 1.0987221123177917 0.01360704926047334 1.0376725533046387
Ni 8.729438793495826 2.321667028922366 10.0283745866719 -0.008435275251546763 0.3384782749841203 0.7797556821143539
Ni 2.451411995707603 5.125129210602068 6.739175004791475 -0.07207007849337264 0.4297413814661761 0.6868283005559978
Ni 0.6062606300046325 9.15731114762262 9.29264600292051 0.14991536890762566 -0.7353478454229401 0.45134713266140974
Ni 1.6263823487890854 1.3793986064672616 11.521609310147705 -1.0317135075077264 -0.9520555893647668 -0.6923764840677367
Ni 4.197839343322114 6.831042273435599 1.6253121941844029 -0.3360665802188341 -0.6344081350830687 0.1132763775283533
Ni 5.557648526123561 7.875913798840486 8.065507116776459 0.32704020835050773 0.790143195996265 -0.13903420321874765
Ni 5.233092109801271 2.8920522146373107 4.953272848032235 -0.14136336557255655 -0.4749169495615499 -0.3466926924741126
Ni 0.9516074613745508 7.570946806184011 7.370691644395654 -0.08304637499921826 -0.6217966169666452 -1.1907614348442397
Ni 5.217328533963327 4.627868248465088 7.0368340867031565 -0.6542053723146539 -0.5794847435723116 -0.7058853171874488
Ni 8.260736341677733 7.090144208287679 9.032149979650018 0.030716455247250325 0.14089722456941542 0.3669514427231487
Ni 4.588689401133459 0.3718164648676923 10.53283337619636 0.07978621619070775 -1.3245950676986544 -0.7605192024822451
Ni 8.110725209275998 7.175558065690076 4.616443942014932 -0.47900166115388476 -0.083815649065075 0.5376112432669774
Ni 7.239794411649052 6.202971603844305 6.959470751546104 0.45205392892044727 -0.5642445295837895 -0.46264378862115163
Ni 2.0983782781005096 5.2104979518744186 2.777636806518979 0.3418644178475338 -0.1005555875275752 -1.6971504868721417
Ni 2.3742182971995214 5.298690962887625 11.467503340029179 -0.5947455263861241 -0.698783673145661 -0.08422445446771946
Ni 0.9497937929467162 3.2549573414983892 3.7832121826541187 -0.17429174086946114 -0.22397393858593687 0.022942724839102424
Ni 3.5482482796990524 2.5377191524849025 2.7049881069516952 -0.31192083621056604 -0.5832069296189053 -0.6904090759287207
Ni 1.041505862103483 3.318769595834935 8.137230935677808 0.06887548281547494 0.1831707885266458 0.20567076940137483
Ni 3.7477788764388777 2.7155488906727774 7.1827910836589925 -0.4241587451720759 0.13110929194471616 -0.7743357966503632
Ni 4.08841468150943 7.134682851868731 5.766060684224169 0.03239718538378292 -1.8692405921045938 -0.1403467513825841
Ni 0.6441112584677184 7.481120591263153 11.22664456352235 0.9416076545585655 -0.9629416401496514 0.49774783141313633
P 0.35306349425292366 5.543653502583405 7.941525284443252 -0.03734758741052277 -0.48718933917099966 -0.44792036636804794
P 8.535628922045786 1.4022634611743892 7.926311223069263 -0.07258327068436532 0.9346613051477194 -0.36047072009481146
P 1.8391590413103092 3.2736534657893 10.43542223749223 0.24229587682357623 0.16577444742706934 -0.33860862991439755
P 3.9287396740519194 6.007122483316204 3.7387592597201547 0.15364886780812892 1.1796583829525424 0.19261470754836504
P 7.070076553643381 3.8982862862711163 10.23200443498767 0.10330409680698982 0.7991878226970366 0.6799991934493064
P 6.557530246646941 7.888456082993172 10.048158009696909 -1.7918215905944819 -0.16675480906246765 0.16507125071245765
P 2.2593075139732894 8.3365314401544 5.748338166019643 0.40032179065347834 1.2448008810881466 0.8611946034171362
P 6.764107982899894 3.803713854469456 1.570729797732593 -0.0904984604018893 0.5096985760171093 -0.6998586513773947
Ni 5.142679385189819 2.861219851364124 0.25638504150073343 0.4162315199051993 1.2270304444786029 1.1788006629379377
Ni 1.6805758441999021 1.0597778947719652 7.141639759121768 -0.9048434504553384 0.21522164631460353 -0.9799919107637187
Ni 6.788921854424994 1.0079304381235215 9.20660593363308 -0.29271958069176685 -1.0702214337749376 0.2249923525481222
Ni 2.7328734846103013 1.4691706820320658 9.247546114681692 -0.1411497068998537 0.24206524887000896 0.4453006693570137
Ni 6.242971564742764 1.718653857958418 2.509097479583952 0.042576954130262155 1.1023833632194628 0.4877863493250502
Ni 4.176355042194382 6.554119467215491 10.460488759345584 -0.1442481433195193 1.4494146699799166 0.2902070986825583
Ni 8.178137730790185 7.101702960805372 0.11115080494822903 -0.13549816504103115 0.39224646984451156 0.7278463948395723
Ni 7.658968375903045 3.99478066521272 8.149183100849498 0.38723333290063633 -0.08114324443923446 -0.6785079536157606
Ni 3.390116243889102 8.154244228318017 12.607532904603717 -0.6127185659247771 0.06250608895402138 -0.8861345611919255
Ni 0.13894414570154198 4.898249215828579 10.200202977241103 -0.2183301100365982 -0.6066898432321939 0.12297869241778175
Ni 8.62375877047693 2.28782993138814 5.8054560889800175 0.05946344547295566 0.016264798598294567 0.4294575316771701
Ni 3.9205465848356327 2.6588379152054142 11.208697366990195 -1.3637162020698321 -0.03315360393383323 0.43739864090111763
Ni 1.2176211873496237 3.4829291466189822 12.816880771241474 -1.002106997495203 -0.24851820358420426 -1.2530163270194032
Ni 3.1448108216049757 8.28258157184583 7.815179366895653 0.7531866733765737 -0.03625563989792466 1.2492213787533455
Ni 5.609559145354068 7.978543971468296 3.595232217528577 0.029146796767285287 -0.8984879405509557 -0.417552552709468
Ni 3.1279012960638717 8.312484542840078 3.688059557420072 -0.25879181759607045 -0.6613075305770739 -0.9998760512821553
Ni 3.320917123625107 4.315051049180673 9.05292325056823 -0.3613412956252228 -0.21243302782587284 0.7854491329547053
Ni 7.297037757450953 6.253943807569863 11.265326231100875 0.0825717493556449 -1.3829100013894633 -0.37304161478128656
Ni 0.2898936936082275 0.10035180806050584 0.45279179739619885 1.0644351661104636 0.22732280045351175 -0.5796279540183952
Ni 4.588337495319103 0.20748366814426972 1.4135605401378162 -0.09292789577898834 -0.019764327111120798 0.4812408348970486
Ni 6.03279356131217 5.59868615801307 0.3240754783760023 0.860756230328137 -0.3602894573219408 0.9383577801627
Ni 7.886958227475657 8.915578922838106 11.341830555141861 0.3089298719030421 0.9358416986090656 0.23940595687029093
Ni 0.09545129401494896 4.760121672080863 5.783387985129496 -0.4273340575762641 -0.12267144559000807 0.3167005169873965
Ni 7.869074193525567 -0.16187396763593548 2.5843214078542407 -0.07883927889640616 -0.27168127196422887 0.238876309619066
P 8.461530190058836 1.5602601485942027 3.6497740094633455 -0.6750055968894568 1.069338516949352 0.11535177200014328
P 1.6538941648909138 3.0406918166856594 1.6361806699123964 0.008340915765527571 -0.13791294513011088 1.0862874860988647
P 4.651788820615283 1.1235540562044748 8.318396560521258 0.8422499439938333 -0.7725709914404566 -0.5157679221396407
P 8.434126652669118 1.7908216195794158 12.41417780374454 1.261757049326511 -0.2665742897549667 -0.21017508502963156
P 6.4359152064959275 7.732841527239768 1.3615010376781582 -1.3497545976834173 0.3088177718052101 -0.5804026274008908
P 1.8266799197396866 3.117975747453832 6.096881024041994 0.21021108047388956 -0.3612361375059262 -1.3602796655844573
P 6.950572948378504 3.9643272774319165 5.899934679231182 0.346047602690946 -0.2893020703697856 0.25033288819543986
P 2.4641437676064815 8.399648906088244 10.397784557162957 0.35572497787970997 0.2265967209207646 -0.16855792370947745
