# total energy = -381170.61628732027 ev
CRYSTAL
PRIMVEC
9.22699646362693 0.00000000000000 0.00000000000000
0.00000000000000 9.22699646362693 0.00000000000000
0.00000000000000 0.00000000000000 13.50464200361142
PRIMCOORD
 96 1
Ni 4.261866537263268 5.079221548446409 12.551591913815951 0.07913315598774114 0.37960101316635914 0.054181371138409914
Ni 1.884281817659753 3.6652305040162085 8.04178491420094 -1.3639452873615026 0.8214839150910757 0.4685892075713091
Ni 7.664607451198558 4.105053735539941 5.997141592049823 0.17382431431473935 0.8040189255370926 0.0743969268543364
Ni 8.44952957046893 8.021969016996996 -0.34798509218200707 -1.0493075664404057 0.5407325625047784 2.5706683877413212
Ni 0.767404666838967 8.319788775821582 7.05525661708214 -0.6254563252064197 -1.2290515886736897 0.8455499549013438
Ni 0.28147228952107134 7.8515187147766365 2.5944034462134153 -1.6391124609918029 -0.9917539363956532 0.017228190952828397
Ni 6.712833558255757 4.406730378808207 11.82473159131664 -0.2332988155312885 -0.9702469155618129 0.29445816064942837
Ni 5.633247312887447 2.130910201140942 9.851420331981803 -0.3824734496181477 0.40403652050090416 0.6115949938432952
Ni 0.6860723854579469 3.402048889214534 10.56831365310297 1.0094757791554485 -0.18404522071179916 0.8555692868105589
Ni 5.068665864705809 4.167917261173423 5.951941305388918 -0.1388457413570254 -0.31036634723925255 0.7212265755302095
Ni 7.955091747983129 1.71806670673042 9.881116496798889 0.5242826444788712 0.8459790720189623 2.4995123364217857
Ni 6.347961217488046 6.104313153804247 2.5277310165168916 1.0446279015765494 2.1368896029809776 -0.39978263032055666
Ni 4.637977359496057 6.888672426301738 9.715104379787643 -1.1149977095493635 1.8997336184871283 0.33855000876232016
Ni 2.4063637209906905 8.357434920630713 2.7994715930648773 2.5185053325845206 -0.31139478850376695 1.1569020630926334
Ni 1.5756387922025428 4.782499802178756 12.61425336823097 0.7845093947492554 -1.796383241823235 -1.9459779941666489
Ni 8.035624971486584 4.063080129477015 9.572697687351203 -1.491243947310877 1.78951453972786 1.1320186695873924
Ni 8.209563078299553 2.9552592755018576 4.01249958128714 -0.00177354696065501 -0.2786600172749072 0.03221669394186064
Ni 6.314125822141213 1.6931353627906478 4.000169546162522 -1.3361480626435764 -0.3854549008439749 -0.905834353613698
Ni 5.33554750501446 0.10052351093702772 5.639889827507077 -0.4542689342938951 -0.6554040206084454 -0.1539355458106123
Ni 8.668080204279976 8.156563211685915 8.97452351382481 -1.5854640795387276 -0.23577195966212947 0.32411197896011923
Ni 1.7201520078889652 5.530061813524577 2.697430241240325 -0.01021653552168563 -0.2518940620349726 0.6618546613297956
Ni 2.490504700038353 0.1561041684092728 11.878035026107785 -2.2731750398099946 -1.2862655759908364 0.26931457150426524
Ni 5.206397238128822 2.8443046452739664 0.15595469106958948 -0.08710974643531451 0.3536387847746426 -0.5924857838176699
Ni 4.039542061975032 5.822170061653856 3.8997087788001763 0.23269460628838637 -0.1807146136766694 -0.5024470366610185
P 8.780852552774387 3.993084135721608 12.404337357535706 -0.1890359890581712 -0.8748124513108869 0.34023793798770435
Ni 5.746767048080273 4.897828028641826 9.68875669191939 -0.14243628692176113 -1.0959820876788093 0.3834340137592041
P 0.6759752834323018 3.241443792021464 2.9269148656393162 2.373318993721448 1.539940898295948 -0.28018596700113035
Ni 5.966434148440806 7.244714531632601 0.15477548094542112 1.0899219975276584 -0.3995625438899506 1.5983172813523119
P 1.040353057199579 1.3130292511700268 10.200758101817982 0.31627937028957787 -0.7126529749285855 -0.030307649844605867
P 1.3450100202652342 6.874370582072779 12.398435770717098 -1.9389655674045572 1.878962447378048 0.11140847108167912
P 3.3538378336685275 8.551275658412628 4.863602331352485 0.0739734661636726 -0.3300085469502123 0.49028237627402665
Ni 3.0341870016531574 2.6097451729227634 10.175639449853792 -0.2360182713449806 -1.069432876435371 0.15175267922668056
Ni 2.9419078118894033 5.124313879250875 6.42857379315948 -0.9291444890945482 -0.007136611044781257 0.39830141778933986
Ni 7.715568151635035 1.5901528573458668 5.9000699004199255 1.146871932550141 0.17127583686127276 0.5442045802137789
Ni 9.528165435220735 8.71814588607761 11.37717429151374 -0.4463005713764379 -0.3234365501596494 -1.8618309299040838
Ni 4.275983841566692 1.2851544954179719 12.110733413309966 2.3499931745113143 2.712040752174942 0.9430191901941113
Ni 3.619233927576621 1.411278307524836 3.678029270551685 -0.24703621972203904 -0.18684412361317498 -0.3161112201428298
Ni 3.046375863734741 7.245083611483671 11.2529051056585 0.3442735415096587 -0.664096920396753 0.359825887421961
Ni 9.229395295779645 0.39208552088672266 4.297987459587852 -1.2225762653619914 0.3404382269239685 -0.2921146001179163
Ni 8.388105456254621 0.835380871109395 1.6710505472022523 -0.9928093742433611 0.9248517752564651 0.4531744156781357
Ni 4.6342404260039745 5.800154448537536 7.888493134256819 0.12376416443355459 -0.9850292160773099 -1.50788207008819
Ni 0.9968293157621602 2.7983634308120395 5.881717404825475 -0.6159530137016747 -0.6168966085618667 0.38641957875008937
Ni 2.278246877688049 1.3299607893378587 7.950074107407834 -1.0814203878145503 -0.4692075578815984 0.5335352734253909
Ni 3.4015137234304826 7.887670086188934 7.598737770178111 0.5403522963472243 1.9607217281347262 -0.6233102253976942
Ni 1.6196423374463524 8.718127432085057 0.71573348768918 -0.47701676951337196 -0.7951871861780757 -1.437436414572118
Ni 2.7819209234468754 6.368260609296891 0.389426300559764 0.32869574167605975 -0.16933002598881158 1.731877863050998
Ni 2.163093964154238 6.712362981445643 4.910557592705226 -0.5950648573987558 0.9822637375170309 0.37659616490176434
Ni 6.452383134352 3.3634154558037914 7.961364260052062 0.5569940186689634 -0.14665289610627 -0.8186341043471063
Ni 8.932073794754006 7.163138657549875 4.89617547360866 0.4168742956955207 -0.6977531749986177 -0.27093359516492693
Ni 4.609124542138668 4.788100588918742 1.5405688247538802 0.20891190204649182 -1.1242865910504574 -0.01754649352419559
Ni 7.073775198609573 8.434249664634637 3.7170585421027003 1.5280911980462135 0.4512820837514293 0.09658271892275624
Ni 4.461483374714427 0.8680619692220076 8.099328153781249 0.6192437686378045 0.4361981928351133 -1.237567853674817
Ni 8.419763280480144 5.105712254756951 2.972884683789701 0.3343511401896242 0.2768419902295619 -0.7712414739957556
Ni 5.934748643226455 8.126234074924245 8.175534838730536 -0.2732961818598325 -1.7424078160480445 -0.0030876377863882304
Ni 4.114502179727331 3.3865106274844914 8.214684061233148 0.756271997170117 -0.03790191725209602 -0.4041360221932459
Ni 1.2441312699715519 1.2187939381956026 2.363839263250044 1.3797825115040752 0.8101931726686046 0.24355623159323858
P 6.517350415136581 6.038902977198383 5.3659744479366625 2.080740566593236 -1.3012602496274557 -0.7780708382127632
Ni 7.196900236926494 1.2103420096061017 13.002039108852731 -0.9844352912470529 -0.24626925964902743 -0.3598641968590641
P 5.506025488223649 8.814254279296213 12.19529883418636 0.7404874806423505 -0.4365049254422547 0.3482397252462583
Ni 3.387285695171738 1.388284632803181 0.7398583921543644 -1.5153722078176484 0.4283861529898622 1.2920101917840976
P 7.553228379141937 8.212165091249597 1.6546154214341091 -1.4848393293361137 -1.8846080756995993 -0.5344966088973956
P 4.419445179677565 6.8248492930554745 1.8943235577077375 -1.147793930143778 1.837220073333939 -0.5953080837578134
P 4.944701169727704 2.6717598148987847 2.412806932490744 -0.5634868254821586 -0.5519996507781655 0.00697565998688476
Ni 5.946845235345271 4.358011838466979 3.865622409154615 1.0451734896673741 -1.3528448065729668 0.022782030891522056
Ni 0.364636129663026 5.72657838022675 0.7335425132029307 0.40365471168145317 1.1536827848243874 1.187562725401284
Ni 4.01339275452673 9.512202731661962 10.1999885703285 0.5188023380905903 -2.4956813927114694 -1.6889358122718332
Ni 0.4433811612880461 5.966351105474316 9.667365746451008 0.015108573506664303 0.3538390737109068 0.16688542110306095
Ni 6.8210477705894546 0.8777337067192945 8.050603154542628 0.40531075922763743 0.4899159940735434 -0.1763463094056447
Ni 7.516384983008884 8.42935935660796 6.107785272503187 0.03876195125954615 0.07758406633306639 1.2614562302566406
Ni 1.97961514319111 2.2047630793400304 12.582180329172997 0.3859015014630902 3.043006263721785 -0.44713823678638476
Ni 3.9406009808994664 8.405959694050129 0.16715626454956117 -0.38610564705409633 0.13273422914264882 0.03796850882397332
Ni 5.0489477736624 0.3691305995494297 1.9287190317285698 1.9835302413888096 1.4231757908880458 -1.0343964536565284
Ni 4.916337383172982 8.198702903681822 3.5498432247769682 -1.0855377524170338 -1.7562796889341301 -0.0029187163086917475
Ni 2.8317190223524826 3.7141520382755253 4.525189325107976 -0.7177776977496605 0.8044961222838274 -1.783343635030458
Ni 8.981927255637272 3.0916250534759118 0.9226341160012042 0.8189187254670607 0.27949048359600254 -0.6482198441551804
Ni 0.30465142686788926 0.9955744442685224 13.134978903109227 -0.655433074074168 0.5567777888930993 0.3993946508535186
Ni 6.79331141978155 -0.13792329494556915 10.587652514599407 -0.015365683822792894 -0.5124437428624142 -0.5334437421528491
Ni 2.5774875939392534 4.902976692564251 10.14927884419075 1.0744840657060335 1.1940164514464275 -0.3480954863589102
Ni 0.3588480348986221 5.864503520571573 7.090274913351653 3.13024147999137 -1.0700041755578087 -0.2803978259016203
Ni 1.7546240659788945 0.3018012077180019 5.640051299941921 0.8833477424754077 2.0097323537054743 -0.3086228821855846
Ni 6.840516732733391 3.5057972353502853 1.7134688944857166 0.031545121796132766 -0.5258147648526815 1.233955196622894
Ni 0.5321144163826457 4.945559280381442 4.8753778240008705 0.5296331101575071 -0.923155618500965 -0.14036629176660986
Ni 1.7834861103325612 8.529472266210673 9.492912773245793 0.5473791212870185 -0.08081954255122854 -0.6244764777916535
Ni 8.442655458242754 6.130813087111067 12.019833659489587 0.6816778667033099 -0.4449345442668466 -2.508758794720718
Ni 4.881081030399529 7.059648667309872 5.874438227462749 -1.5551158062641732 0.16529519379780566 0.3740988524012073
Ni 2.560399196834717 3.8187954030501206 1.1421941832049263 -0.8279918914129223 -1.022025333685685 -0.09146133853579087
Ni 7.569818518447529 6.314171957122596 7.4156824683440865 -2.8878260468707944 0.11435829773862241 -0.15684243504476214
Ni 7.443279491508211 5.266095904039379 0.43405912694964793 -1.1696868735621275 -0.1341431936750335 0.4941760549014779
P 2.1966894575978766 6.471150844778904 8.354903032852372 -1.0856153997325044 -1.9660904486458077 0.6405507576456968
Ni 3.4650231388033372 2.150628292184352 6.0123209236247 0.5035706087425005 -0.3183318819432324 0.9963474693036066
P 8.916840023901093 3.6049966723216 7.799605788324398 0.49216493800872013 -0.5905178614580218 -2.05010484398525
Ni 6.05076889441028 6.740846718951963 11.408991742774846 0.8950400912116715 0.1071736070647251 -0.13114965826434832
P 4.755556973050653 3.454947258869129 11.344857659754057 -0.1687996074066383 -0.5529995527975896 -0.045314150555767124
P 7.398085663744701 6.429011152782998 9.577573232183838 -0.02984099462083248 0.2639720762454293 1.0690340983350557
P 5.674085998408333 1.9355285549808097 6.41694685515115 -0.46595279838972653 2.660138663989012 0.6764785818905575
Ni -0.11521657980812075 1.1691434712304232 8.197033740055357 1.860395483009138 0.12711945405903272 -2.6375250403545545
