# total energy = -340873.03891737055 ev
CRYSTAL
PRIMVEC
9.21571855549057 0.00000000000000 0.00000000000000
0.00000000000000 9.21571855549057 0.00000000000000
0.00000000000000 0.00000000000000 13.48813564506724
PRIMCOORD
 96 1
Ni 6.291285299965226 1.3639355466267744 9.333803138897181 -0.8816551852643332 -0.5391881008357939 0.7875047299321534
Ni 2.2965662539776 4.103086679265673 4.475808117913574 0.513649076024425 -1.1754667134686982 -0.10423200793789791
Ni 7.0560793428667115 6.587653589665772 8.08621788087165 -0.6863403051759857 -0.6851555408392652 0.10632385746992012
Ni 6.565499002506963 1.6346011975644597 6.954981989875513 -0.9666820810286899 0.9610552217602157 -0.9708758073950635
Ni 5.279215099557443 5.9012300164808025 12.020518676687418 -0.7694039065663847 1.0550310991877443 -0.5171385772349223
Ni 7.7332779818811455 0.050228430279389384 8.00765019478026 2.9553784399994716 -1.792311385746707 1.1268299262976011
Ni 4.369964669919552 1.270580318707171 12.435642557505199 0.2232010649756543 0.987326496751919 0.35012305831190027
Ni 7.164511486173923 6.584446519644446 2.7521194916446703 -0.8681088140384662 0.23633863079887682 0.5629569211206177
Ni 3.146550398250143 2.409348216394195 6.332612267791749 -1.6305787124891788 -0.023857780454204072 -0.6308073051056878
Ni 9.051853762286767 5.05342078176295 8.236475562373641 -1.2837479517753052 -0.363223086028968 -1.0032652794693626
Ni 0.49616690888540094 6.631262369381029 4.64176661894238 1.1752797942688726 -0.30794385384068895 -0.5417880003524863
Ni 5.921808715784303 2.0436777239339836 2.8728647563757104 -1.731332017849857 2.2371770244488305 0.5214181784468827
Ni 2.84691974421756 8.979123312262926 0.14452089676556967 0.004138447648405776 -0.33888888015897767 -0.36072963018315296
Ni 8.437662990329224 1.8893144398615889 1.5859615571462093 -0.13890307695752208 -0.16318920319839636 -0.14162433254342705
Ni 0.29365610376009743 7.292831149900731 8.569578627396035 -0.1973679059626343 0.9988427249216347 -0.6127460767286028
Ni 4.921599145024351 1.2632630382562169 5.001494816144687 0.40382337604883356 0.3595422947432711 0.3308181873357012
Ni 6.800988256113047 4.014818527931619 12.087419263218472 2.8857858765123137 0.8462312972390844 0.39837160890564294
Ni 8.111546361465356 8.323452591552558 1.1242024546735065 -1.4172776802360558 1.6688413555148034 -0.5659882517477736
Ni 8.781031444135396 4.733073192650084 2.940400305908112 0.09469784319521755 -0.9886321029372198 0.3531790715294047
Ni 9.030215255361275 3.982729396281466 10.750165064654167 -1.1679215541315886 0.0667095855124077 -0.22097911762367103
Ni 1.9852224217924193 1.4568576357791299 8.851912299465903 -1.514633786989727 -0.2119182929729834 0.7686659999590955
Ni 6.3701073398858945 3.6073178894174016 8.80389472004317 -0.3798910336029522 1.2446023919240952 0.7594398533751373
Ni 6.291303731402131 0.15462777519196938 11.626543948145324 0.152991179619472 -0.2779606772150374 0.2356518891444974
Ni 4.035185265710724 2.801523115122598 8.54528691512819 0.2924760972223931 0.38877445213551104 0.8870264768785755
P 1.7975811783895521 4.668517084893241 0.3615197328693933 -0.024458647262996586 0.4139589218209387 -0.6663975435054716
P 2.828211835759831 2.781700104732167 10.611588306290193 0.23718889461431408 -0.4193597811215358 0.1316520518220636
P 1.062378807437706 5.763703850020364 10.001991569981014 0.3291546835903492 0.504165562014022 0.750653879652391
P 4.296644413914778 7.402525846635878 2.1779157220507184 -0.9535905379520544 -0.09320506069977497 1.7665846704045642
P 7.188020783945187 0.7592959452729726 4.896583998858016 -0.2680012520094804 -1.1851546301804234 0.13762343891415008
P 0.6176706272450475 0.6665885823605506 13.35051641854255 -0.12196979153729315 -1.0165128885078878 -0.14715503255366913
P 1.9466915029442593 0.5179473378750545 6.589628518130053 -0.3485575135969933 -0.9971200858035731 -0.17543485333496883
P 4.003169859808186 8.207187087561076 11.682748771840888 -0.6631803221197546 -1.0516310723672597 1.8441412259338046
Ni 5.95430333904635 7.360585111960447 6.1695410513539795 0.18393492038618 0.8259383513180034 -0.14573784049116836
Ni 8.780377128125297 1.936480486899351 5.99385720264269 1.125019869672056 1.2730611614854206 0.29066861170000907
Ni 2.2749922570812733 5.744489077047771 2.8239974877116936 -0.5199781035662464 1.1497600527312135 0.23243852441352228
Ni 5.088320707540991 3.817270387192763 10.77669619650587 -0.3879912941125834 -2.114725922399745 -1.5579368206527362
Ni 2.1331070557929994 2.197405123433184 13.064796891513387 -0.9007389413686617 0.4285854134848619 -0.6307733665439589
Ni 1.466497277280009 1.108632498348712 1.968148460216245 0.5707895297911589 -0.045575888857586025 -0.9972213872681277
Ni 8.669742428108039 6.018546112375822 11.929648928034341 0.22190471476173396 -0.6260970441142121 -1.145036679113615
Ni 0.6827750702497897 1.6664783676902155 11.092737280386078 -0.8655173991622062 0.8347374376668721 0.07055364184884624
Ni 7.061396812413563 2.8620058753236206 4.706671080856711 0.18998318346278892 1.3919561707521317 -0.4910125695718318
Ni 7.777430488985076 7.866961193747065 4.658640599428144 -1.4281863567287596 -0.5845762991626061 0.04319838976434496
Ni 4.820585655071067 7.4994014790041765 9.678249831762246 2.8917971157034006 0.24848169391931396 0.7358386690164296
Ni 5.310050893498113 8.27112574218163 0.5859943597815469 0.9654168411630212 1.5832683574389896 -1.5912192368549498
Ni 8.550463384182725 8.291280518436334 12.157692802702988 0.012232794620766027 2.1146924980586483 -0.41985703247292855
Ni 1.8582574686780684 0.6533990461119291 4.382726596831997 -0.24439235434128875 0.7253434259120605 1.253333601149506
Ni 4.843311616773905 6.482290280603103 4.145740710549295 -0.22572563116972094 -0.18884032810759735 -0.8483452582582938
Ni -0.008977031344174302 9.001277899421734 5.997189606434964 1.3542838530123384 -1.6551054939859497 0.5820496760860104
Ni 5.489315048828037 5.918933411627254 0.9990502333786802 1.2816082797244832 -1.1454868792771562 0.19728923020589892
Ni -0.08904411482771886 3.9507785004080933 13.121757404122024 0.8579912659884901 -1.154923599210024 0.24525264545905504
Ni 3.8166897969302815 8.362785277906049 5.488861635480194 -0.310333180008472 0.2142284291633988 -0.4671033670544019
Ni 1.0507946493434372 7.416377071469359 0.15754639322574415 -0.6355918709785248 0.11244256877314827 0.596314927755773
Ni 3.743074637935041 0.20190625399484688 3.1208846223610913 1.695654104832273 0.3870690394086302 -0.24571055893208008
Ni 3.1623922182692743 6.28869568308019 0.6985652822455891 0.0044528935650310405 0.29113783802694376 -1.0107872988780204
Ni 1.7702842203344813 8.834897318487823 11.098253809451496 0.8497156562432592 -0.07901668501453488 1.598017490723706
Ni 4.794044385929067 3.8672472283584103 4.487192294917432 0.20327707235821765 -0.0007998701934760418 0.9798047344535771
P 6.962079014655463 6.933261463055799 13.032505935629132 0.1987493596911932 0.6852977228440843 0.012344380497965837
P 0.21400925703796783 2.513872895077723 3.3895006975150332 -0.5385196140138596 0.6384259979932102 1.813780097143444
P 6.874151844904136 5.4649118263669205 10.037546733340996 0.1799463680520772 -0.14119007321948587 0.7601080830867555
P 7.362225509844917 2.3069523686730977 10.911806923160018 0.5681698327801247 -0.19020455544497564 -1.2587429450905354
P 2.6767699344367473 6.297146496900751 5.003882608795623 1.1324508720288047 0.38316867591295944 -0.46614280291334564
P 6.4182779002349335 0.9447493771153153 1.3421569607808113 0.9513246247360133 -2.1920968442807407 -2.4700161267348815
P 4.06356967854314 6.029669484547487 8.530152862286178 -0.7957523146529263 -0.9889213520428645 -2.3127363470423847
P 6.38778308787699 4.550749418794069 3.012952892565828 -0.10486398509494199 -0.4642245028447102 -0.23042175109380958
Ni 2.6175312962267556 7.498138925576241 9.368373141954637 -1.6816523912365426 -0.3601837849820119 0.6042143851085078
Ni 4.424162310136254 5.58240302091253 6.466023615963332 -0.15254997831699535 -0.9314250575986088 -0.06631337851525353
Ni 7.1350119714088045 3.7244588866618322 0.9073621289270588 -1.5528144118245064 0.3479558754572524 1.7623626619034163
Ni 3.6577278693502975 1.8455674243695497 1.2250749441344742 1.9555111304680646 0.7944150838987416 1.0162097554451723
Ni 6.045133460110082 8.883556311914822 3.307533332886669 -0.018660552523980762 -0.7556865569802921 -0.4794084096740001
Ni 2.381009882154039 6.462089425756138 11.867967202862703 -0.35689225871493374 0.8637937316028801 0.04264226015055882
Ni 1.4735473018958527 3.7504748598520634 9.101051875243213 1.8624924747474827 0.00992831485730548 0.9784433353296763
Ni 2.0591693466519354 8.179678167981606 2.5441999813598386 -1.6094259896709637 -2.536267284553632 -0.6523909448137345
Ni 3.5813572105378837 0.24742545214522174 7.91413645650328 1.775268571331807 -1.1354176679666124 -0.7259561197953949
Ni 8.88575886862487 0.3391236938871406 3.3948154023463495 -0.48579323015442144 -0.5826330593933062 0.3394208414030477
Ni 7.180832523552563 5.285942574027463 5.047381721461301 -0.9980351414186747 1.088831335566641 -0.4616672836404952
Ni 0.0977262431814265 4.253468772966768 5.3768160089679204 -0.6896675697770057 -0.4937446237910142 -0.5027864222783084
Ni 2.4526620931189864 7.239066648451277 7.106480107081155 0.2323855596883998 1.2417191568390291 -0.48738320034936067
Ni 7.173662694596842 7.747046265248558 10.091944354648108 0.9481266866240059 -0.10078004483355546 0.4603675909924652
Ni 3.387476925742956 5.138592451697105 10.30297969934159 -1.2014207143302986 0.2907208050941832 -2.012996369168727
Ni 4.211610979757405 4.251607197839447 2.3251248438887613 -0.25190871732299197 -0.37095850700001276 -1.223913496116176
Ni 4.3318576741201875 0.40934009591725334 10.240691579895802 -1.538871833601485 2.2776510733034776 -1.304493668963089
Ni 8.424134315641567 5.825817792387404 0.8334253413578399 -0.00522396740310068 0.35239848460963824 -0.539955832239754
Ni 1.9087319586401283 5.127902218292688 6.63628401436557 0.23893827320525302 -0.5127463617044976 0.9603347986544236
Ni 7.8261447767227885 1.6255421463260618 12.849432002291117 0.10603306570237868 -0.3588493824413046 0.27193452562561554
Ni 7.370962010937492 3.864418002793621 6.895782057683021 0.490187245457059 0.6609822860271714 -0.7522669897757819
Ni 8.483133345171805 2.3862167630794664 8.827121095257954 1.0057103985757454 -0.46654620899935134 -0.32797249035678994
Ni 1.6667179763699698 3.475514684115707 2.1287378836748667 0.7166430699245852 0.07734546795969906 -0.10444746638281367
Ni 3.4098526901446142 4.144935256756583 12.314842920035293 -0.8853557740443719 0.013856189156801943 2.278247826347212
P 1.0391920598122646 3.249443894767653 7.10077465578747 -0.5965699811893725 -1.2474768852584128 -0.21470742568234638
P 3.254355872702613 2.255408855370596 3.48324390718147 0.7038014380752265 1.3007406296785597 -0.11936834935870409
P 0.049455231501259606 7.174132696237899 2.4030188609613043 1.5892425727445532 -0.6301426749384954 1.345267251336025
P 8.454352656445948 6.486759904052364 6.457013408032729 0.2427316788094142 0.2424295741879631 0.14329323560541773
P 5.70971817132806 9.000503779071758 7.702521443119163 -1.4645700375641164 -1.5450684493305002 0.017216363878286477
P 5.172294334076373 3.290223448918121 13.273579914617178 -0.7031128966486343 -0.3283368156747442 0.7482380711220468
P 5.100678985985233 3.277164775871519 6.539641539674108 1.1592299398948616 0.621024514687311 1.0078922367184127
P 0.24826776881174217 -0.01948847981062047 9.6388507922359 -0.5690512069438135 0.11878368049982771 -0.28205207367559165
