# total energy = -340856.69453257933 ev
CRYSTAL
PRIMVEC
9.41616838717100 0.00000000000000 0.00000000000000

0.00000000000000 9.41616838717100 0.00000000000000

0.00000000000000 0.00000000000000 13.78151423550744

PRIMCOORD
 96 1
Ni 8.142339491558838 6.740733448835102 13.769441567673228 -1.5241399267079494 0.9568877206460875 -0.2805286950525298
Ni 3.0254901503884923 3.678162428339953 4.421661180866019 -0.6340016436732693 0.486334190259556 -0.3146742305859871
Ni 6.301412708434847 6.712277788738018 1.7340730487706792 0.4167046028868759 1.4115798585203303 0.27872352352299096
Ni 7.618207324787158 8.284457717186003 9.347159861327263 0.4286977706930101 -1.2103285583428895 0.3081883657513273
Ni 2.3185242469837593 6.7747163996260955 3.2284302308353467 -1.0399934881283315 0.7406160358004148 0.6645581763038878
Ni 0.8811998536821728 2.8947654882019194 12.698755454572234 2.018015933870505 1.4420492307537809 3.3619734652561717
Ni 1.102510878155967 6.413653432576887 6.865122913101981 0.11975452905352924 0.5229541554754348 2.3653508879143073
Ni 2.7838618599347247 2.419766886746781 11.028808394019016 -0.7016751357608432 -0.63987712861744 4.111023233646237
Ni 1.5112479044611435 1.869636679760658 3.0088489564475336 -0.19664902551873875 0.9274917839824736 -0.05103485508962824
Ni 5.7061037267479255 8.209373192495681 7.68789356028699 2.7462143127328575 -1.4378007398900723 0.6412297859905924
Ni 2.631442346370361 4.796605462976485 0.9736430843251664 0.3570483246768238 -1.7760275609850185 1.1432037396699344
Ni 5.014128363010485 2.4682130717896333 2.3448970506898856 -1.0790685997529224 -0.4784265053767051 -2.080564703137004
Ni 0.6254878005522937 4.367171699115587 4.681180190771958 1.3750840775871414 1.8454686864959766 0.12748249382540625
Ni 4.654289497818532 5.329993723022629 5.30935536570933 0.008795743914759046 -0.08832202157586079 -0.5668922516192818
Ni 1.0794695147351974 2.426640689483668 7.687135558752306 -1.1579798695378445 0.3636694295377672 -1.1512546349988688
Ni 1.072887613210425 7.3092157675119 12.562097664845233 -2.9868009201748107 0.749533907115335 1.4234012766352906
Ni 1.5044117663967875 8.987384084461798 2.1141670332329303 4.488956629302185 -0.4450055067140981 -0.4633840092212858
Ni 7.089385906285384 8.82173485467096 11.758814719227704 -1.7391887948901144 -1.038273163003115 -0.5039189932208548
Ni 3.6084545356534155 6.924150987892386 7.7778452728420655 -0.21743510902615457 -0.16431586060367184 0.7545151623800103
Ni 6.117901007696237 3.1321470868278296 4.139029244661503 -0.4793297339172648 1.6063432369805821 2.656235215169548
Ni 0.6361195959909496 2.135492770819918 5.45058847153202 1.0063521459248024 -1.3314357447695715 -1.5012977320024532
Ni 8.670238125583605 2.6526852216777814 1.3545892320034287 0.4985523295923027 1.065649498133539 -0.401676762019476
Ni 4.453084817158538 9.305744729029113 0.9078664418340401 1.59677796188965 -0.09125899271699767 0.5754331992107574
Ni 0.3853190161590981 9.083513744928753 4.202135461870189 0.23303142080251482 0.29008060040702305 0.5823679786573777
P 5.094504774191396 3.623266168126187 6.432618536813002 0.2738705663060638 -0.5799087184836077 1.1526756837161116
P 2.1939765910922517 6.7859122235359015 0.9771797970758167 -1.1010677297318325 2.6334701535588905 -0.7410798628107108
P 4.796087573729185 2.8584473277140123 10.630867004478004 2.0038365570463292 0.15612226904928597 -0.9342311595888363
P 5.61066144655466 1.0780665056834218 3.9788611663407227 -1.892062732205432 -0.10238775564030753 0.7373653900736011
P 4.587990257996039 9.030820868058044 11.867013082390367 -1.2436418277830388 -0.215182565546552 0.9516226155924064
P 1.1377555954767438 2.441998459708137 9.66729074550353 -0.8785395224534869 -0.24052207275260512 2.639515588422022
P 2.75633840048278 4.263217202930341 12.71304731456408 0.03116536985921084 -1.8841956707525291 0.5883146831591158
P 7.610401321405132 7.837782949474091 3.1957815510687615 0.23464324537432493 0.17247114272095457 0.7387545571116438
Ni 2.9970721549639388 4.574656963920106 7.271691395886192 0.2915638698207688 0.0925669128951438 -0.9918979181726851
Ni 3.5812606420861157 1.386116446145407 4.610467592945659 -0.5205185494507487 -0.524050216753091 0.3539264912183904
Ni 6.688370137849039 0.41807033215833017 2.4659400088023946 0.5202118168436073 -1.452190947173473 -2.141179231495267
Ni 7.248293159693192 4.8190065269642295 1.0418227329237633 0.44986463457861237 -1.3752182891721605 0.10497685652372243
Ni 6.04798595931078 6.328757260692271 12.643188763187418 0.3166712064113579 0.0536794918013269 0.5472022293895221
Ni 7.3774547379697335 1.379355637426113 10.262211781063383 -1.1366523117046619 -0.30426949031289535 -3.1046551468818335
Ni 8.578703555165418 8.938457674844177 13.536478976752004 1.1493131950017819 0.854923939917076 0.5486818992588421
Ni 8.43605802412282 5.800915123676299 3.3528498268402496 -0.9970144134636441 -1.4289700289723195 -3.1276852892284195
Ni -0.02270708945205799 8.666716478701966 7.013219463876612 -0.9068010884023415 -0.8775121096302371 -1.1415201813199245
Ni 5.418872934027388 7.397040367685794 10.608913208476563 -0.2881890398112649 -1.6238141400718358 -0.48563716419253133
Ni 3.186807942838278 2.155888190995393 0.2503165887898296 -2.3563666821378257 0.7758679170241735 0.9611166711257707
Ni 8.092057153730105 6.590376076091805 11.39488641221571 -0.15964468038024765 1.0512664899389894 -1.0224678205397424
Ni 0.8203441006572066 4.577736050899506 8.477532478280205 -0.7621441396801778 0.7037698135063428 0.9389727880388796
Ni 3.0375522617665087 7.104734260341719 11.841076247268786 3.529671612068515 0.47654137253885026 -0.3047834538348364
Ni 5.219542070825805 0.20627340396583785 9.923930291194482 -0.43051682617961984 1.0910831077152952 -1.0370940550933492
Ni 5.151830405783405 1.9994479736383572 8.111219997497004 2.327656458687327 1.64171004651565 -0.04069439239556862
Ni 6.957493639250353 3.912606182508454 7.858853508904682 -0.16660722774100983 0.32723458374950093 -2.2544072722841886
Ni 8.212358117793753 1.6523774324343738 6.872330989807579 0.723445180448083 0.8294741323854036 -1.6042400745946501
Ni 1.5501555111855487 5.377159309199431 11.25124182573423 0.8142634860832364 -0.24558688887002225 -0.5941526299971315
Ni 8.104825477718075 6.171855651096731 7.675696797704676 0.23160934364400756 0.03471786309715956 0.11290511023186361
Ni 8.984502737013186 0.4808196765947865 1.9659330064035612 -1.3488840221530058 0.11867080907104724 0.5070868494258751
Ni 6.170066579151515 0.2860396474517486 5.8538499960680195 0.8836562748547621 0.2150650661320812 0.4694816374785915
Ni 4.9610305909100685 4.054263015897117 0.19511712796218939 -0.9635846730502889 0.6400589056109428 -0.16530059311444434
Ni 6.953614177979672 4.023396816758056 12.280541996658288 -0.13433988306687183 0.9453023298013332 0.6555937680217484
P 3.029699177543819 8.656405774596637 4.197642066437254 -0.9883428538315753 0.5951576742228782 -0.5871743989070854
P 6.362947367182182 8.278986923500891 0.05273430801049371 -0.19711079564650572 0.257137312711783 0.4060401811944942
P 9.027478128370927 4.808799400708359 11.519388870500181 -1.1389575627990707 1.0569563412349152 1.512690290110111
P 6.1413190178423145 4.9171041665709225 2.9372126325274146 1.4653125721570959 -0.9241604056163956 0.8020183501672962
P 0.9847899441606822 0.8983438710014189 0.2886940652483628 -0.13600415814317224 0.6676951792709727 -0.12491781842202355
P 1.072275562281798 4.072342058711942 2.4140390316716465 -0.7219467415256857 -0.9064236504582647 0.4526784498783236
P 3.159538719925916 8.624739201166294 9.040645697887724 0.13730667900467966 0.09448289897093405 -0.22884746462815428
P 7.262116094512027 0.5584041939243456 8.186440115008438 -2.2367687332668185 -0.9461628780294157 0.9836642174089834
Ni 4.780381405283805 7.921087788944279 3.195629950761824 0.1452480453389434 0.5687195346360077 0.08574783309078136
Ni 2.358467632202764 8.674503649747727 6.259177427892337 -1.3544332341060095 -0.2762444658548791 -0.36250780512949826
Ni 0.03732380724448164 5.1088926790981946 0.3054247127865824 2.5922944506515293 -1.628369877763318 0.336642250216646
Ni 4.126202540431109 0.1890399330493309 7.396731517371041 -1.630630391662721 0.6475444153547106 -0.5012028798412723
Ni 7.065506503900801 3.8537268831745464 10.051381893338121 -1.514934091838965 0.4808014333667849 -0.27505738752531345
Ni 3.212589411185669 2.8624680315066846 8.95460734480861 0.07691300840797077 0.518451896729707 -2.257389494840964
Ni 8.371472526900483 3.1054428340034312 3.885408522473901 0.4188938972287108 -1.2333237336864824 -1.740007434136668
Ni 4.576078805308146 7.565344956890059 5.755670435798572 -0.07208447667107586 1.3266830605759345 -1.1897818445397899
Ni 4.620485454222061 4.861605271596662 9.467265910710566 1.073857487865628 0.31690132014429295 -2.0149259820912717
Ni 2.6651898929580358 9.141856322679095 13.258629512342099 -0.17934987211865888 -0.058892146350517934 -0.2125736671687952
Ni 7.880899583353823 1.4074534831341539 12.303185056167043 -0.609723230741879 0.9404925671175157 4.831214940154028
Ni 0.7630109361306918 1.0461927765541594 11.506365368355814 -1.5367043936365212 -0.6803478350379767 0.042517304536920326
Ni 0.4423678124080049 0.38493483649928306 8.871794029314948 -0.28554568865114693 0.5894333701445913 1.7439867304993901
Ni 4.955663375074417 1.5679991497970562 12.952431732151819 1.971158350087018 -0.12028880429044446 -1.4464177921351218
Ni 0.8410624953996338 7.457341508407743 9.323014923001338 0.4733079532032172 -0.8438139460468435 -0.2926632735325347
Ni 8.832582280359857 2.924737151368372 11.13478830796961 0.3230573124433597 -0.6710075314736573 -3.7649614898879027
Ni 0.0439763300302494 7.318264705087445 1.9271788832197192 -0.4899910702858529 -0.31875585685452845 -0.47027919367922233
Ni 4.37742590621212 6.717927489617652 0.47708145784609607 -1.518586343879572 0.16815760294726523 -0.03649423827129199
Ni 4.292868716380281 5.179758760465058 11.619510986255408 0.42399316612848914 -0.5232891702173503 1.0203911405163717
Ni 7.67890394457068 4.892301979709334 5.2082407858329125 -1.422876257369756 -0.10371547331279557 2.28076699322464
Ni 2.210021741590409 9.041668293746937 10.86865349833362 1.3522118009746582 -1.1785870042652347 -0.9753148170030235
Ni 9.385603250962726 6.84836025059211 4.998334624201472 0.9997482674550394 0.9100599616592715 0.16017792717589832
Ni 7.257134941569817 7.267492726515811 5.70234950051341 -1.2497787939187122 0.8294916158869005 -0.4963108418562937
Ni 4.209733367936482 5.541518523956086 2.8556808575166186 -0.1790343977607691 -0.5963614647229923 -0.6150523562642762
P 2.5607551721980206 5.739738279318008 9.362002567154873 0.0688986227439265 -0.13612217177827524 -1.183008273261382
P 8.965915221119193 3.7295464578402147 6.588156685262923 -0.3447306836517353 1.1533637109220718 0.9602604937730623
P 6.223051357234338 6.389331470290068 8.732325513400331 0.21674271094482028 -0.921070196726846 0.5192396827383251
P 8.107311346105112 1.0574827621452925 4.476552732995719 0.4029006071242481 -0.29988113143721257 0.5032651616869398
P 2.330266208645263 5.950877017358022 5.336574682930588 1.710943941111808 -1.4333699578122283 -1.109042263296877
P 6.754207985433028 2.9000479585243757 0.24824220695019103 0.1838127929860189 -2.3270411937008313 0.3931206449193488
P 2.6200205344253704 1.6210686733930748 6.688664863911592 1.410805699358467 -0.7164170699567081 -1.503210375644134
P 9.192675382091394 8.543760155224888 10.947221063616237 0.32753540281937144 0.054344379078835436 0.3570925476511979
