# total energy = -340859.9752114413 ev
CRYSTAL
PRIMVEC
9.39048743800671 0.00000000000000 0.00000000000000
0.00000000000000 9.39048743800671 0.00000000000000
0.00000000000000 0.00000000000000 13.74392757053384
PRIMCOORD
 96 1
Ni 9.425044155559245 5.98854842589672 6.5703116428013795 -1.3204687042351064 1.1007496842707818 -0.13425992175855586
Ni 1.9907926690007929 7.248883269964779 0.5396130762257147 -0.41206916099739355 0.274224864321689 -0.43607195166989415
Ni 6.817737832859135 6.77287947568244 12.010528864190443 -0.15718979108185185 1.1107456191412288 -1.612947886781293
Ni 7.589175743770331 4.723123937786425 3.2964121983627384 0.3230894512328758 2.1648243817180335 -0.8619559070631929
Ni 3.3645739884826398 6.099731793904273 3.469764347582894 -0.36153309992105476 -0.9507841788515109 0.4033801178638279
Ni 7.271786668154848 1.864913188583457 5.0865179490611805 -0.35356576544486207 -0.839708151408586 -0.30563654586375105
Ni 4.779523203686201 5.76117656022384 6.6876025836596185 -2.2982854617243773 -1.9797512339623518 0.5636832577636808
Ni 7.762571089231434 5.197277806097692 10.067220132577065 0.9022304383125235 0.5331773758653398 1.5596664017493331
Ni 7.768515267605487 7.788169557237228 0.4430798072408456 -0.04059154826911719 -0.5422909081308338 -0.07561665819405042
Ni 2.249547542771751 6.722527683515506 5.644451865741518 -0.7849259134613836 -1.0757878721191214 1.0733720635887771
Ni 8.687355655511155 9.118989397949264 9.463146996271025 0.016607269539377852 0.06139562949866201 0.4114459255910979
Ni 4.393395762039023 1.4520322490094602 13.748737148534952 1.0582406072639776 0.6214564600184072 -0.5553045467816824
Ni 6.530022696678102 8.154032327587084 2.475170899734917 -0.28885315575782516 0.4449288878398918 1.1195583323368525
Ni 4.223841125827503 7.298887614106689 1.624944923430397 -0.7982277727766124 1.018844107744226 -1.1690566961772964
Ni 1.0051953078547784 8.593065773909478 8.012379645882392 -0.2644186768645446 -0.2733486323643228 -0.827241386400143
Ni 2.1864528595248967 0.8793618408245402 2.6360712629772 1.3759651946405143 -1.8130339630060388 0.28784168377417524
Ni 7.839432226658953 9.047330590409937 11.717453637936883 -2.121881816718236 -0.6222586442047283 -0.1123716063258968
Ni 4.54261999354308 5.829482963846048 8.986989197999215 -1.00682317202395 1.2124360916041956 0.15946496026927376
Ni 3.240140643088375 -0.5598908942050654 11.851209858986374 -0.18099023593555927 -0.2552254404010508 -0.5246986489703673
Ni 6.21561979598039 7.345990297715295 6.528832921954576 1.4597613033215633 1.5377665163524485 -0.7956947219421135
Ni 4.654028733242542 0.6330587530314553 2.275115022169907 0.5838967565970783 -1.2686761450438475 0.6123568117099841
Ni 1.8821447325271952 6.711484470612052 11.394691325566846 0.6248048076653497 -1.1902839809871888 1.3752848807440379
Ni 7.722220165892883 6.839429858205204 4.495020553163562 1.51061695252085 0.2710582936682493 0.37747059708691766
Ni 5.7751402146349236 8.899637008313416 13.356760372434065 1.0373804759855165 -0.6964115733690586 -0.5664479649930115
P 0.5224726200074556 5.313757408865064 4.514193110803851 -0.14405659613400354 0.6505137823956797 -0.5571601119331825
P 5.9992817527238005 1.075454932806849 11.787245616628246 -0.4776058092476227 0.1720494818025037 0.15147397164399717
P 0.0031486303456868875 8.854468765060346 13.367260815179508 1.039464355097739 0.09316520860077503 1.209171304809995
P 8.014461516886385 7.444599803411859 7.621680915084363 1.3168779015600547 0.5329714305021209 0.16168202252525057
P 2.5097673325401053 5.290318752906716 1.5730061389329495 -0.4245125289670689 0.9965066205892902 -1.0691950493929523
P 8.380737468671406 -0.642038875905241 3.5884986063180553 -0.5051235550519172 0.5157190711795764 0.6365920301082649
P 4.733800921690529 7.150743288626355 10.77291618191021 0.3278737599953966 0.7734436238533969 0.20640147691981228
P 0.3386857614519964 6.513861668270923 10.031018865515755 -0.27980107285788586 -0.2870811514590669 -1.3748305668154388
Ni 6.970821554587103 5.464042765418518 7.965732400901183 -0.6064877545237168 0.3183439661280904 -0.4670270052905118
Ni 6.718649412317269 2.4761869504459324 13.650385881235364 -1.979194333017617 0.043527748079305685 -1.5749228136877713
Ni 0.14977733119794598 8.756704403208435 5.852865276881421 -0.7866387823874322 -0.7873527777353214 -0.714055511703067
Ni 8.506119253269112 3.2029824853851747 1.1542110705438213 3.22890267870971 0.689445940684503 -0.4800046484971023
Ni 4.734354960433133 3.0826621733682162 11.59503643013647 1.202013353608975 -0.02692973451130846 0.2168877211631168
Ni 7.494040718324002 4.458105609077879 5.783623580737798 -0.5170992393565546 0.3669925803737292 0.012667311055023346
Ni 1.7939774485556645 6.074912736332993 8.128144632576676 0.21853219874507526 1.2098158803725294 -0.12089224220239823
Ni 4.120799310190098 7.89961585888534 5.2162738225793195 0.9859360441622957 1.6867742858441401 -0.2421416106338991
Ni 7.1387610270066215 0.6786570805965801 1.2452001959077732 0.7572963246695732 0.19790809473682044 0.5830426361268991
Ni 9.25778079821545 1.4357679252434905 3.052004110879107 -1.3625918586574017 -0.549407464570957 0.47765877397274503
Ni 7.9137579325525165 0.30208164249140146 7.182851242333401 -0.958587991166646 -0.6336283194942507 -0.49393102877020734
Ni 0.9887056123969014 2.687717064275168 12.862474238694471 0.056571468637141284 2.901904122230415 0.0007733878309147971
Ni 0.711548200933004 8.959642221283708 11.44768841796754 1.8559017089038425 0.0839917696316231 -1.3693690294802352
Ni 6.630820185883599 3.0368084245522633 2.1344596102019047 -3.1216398543652883 -1.5405222247207147 1.3929133924590786
Ni 4.862948291640518 1.672736868796752 5.382383089050808 0.47818096502480223 -0.04082037645047163 -0.08419128723693887
Ni 2.5712656329692836 7.970044512606341 9.540140539567538 1.3736398889414472 0.406891473451196 -0.04077101126977494
Ni 0.040928438299064424 5.1359673154117695 13.330976911831167 -0.34107148963259326 0.02518884056080178 -0.32327019978511423
Ni 3.614849252345589 3.9566817660458398 4.761515066454101 1.3749285258458839 1.2767360392338463 0.6272093033417844
Ni 0.2886710877742066 2.566542217926395 10.49693821563396 1.4949121401910834 -0.9492224907913459 -0.8639127736792477
Ni 4.774236359413545 -0.18582177712363807 10.08169275139237 0.5579440412870584 1.9401359335635748 -0.3039702139049216
Ni 5.162702032364263 9.274242322211839 7.303288935439894 1.118767718114757 0.1622929166363721 -0.12000392606017399
Ni 3.6681966099174566 1.988294799415488 9.117639045895254 2.175671351734866 1.0435146139077125 0.021428859297737288
Ni 2.743318138766108 2.1727239672928826 11.138889760008588 -1.9026955293289296 -1.6362593078137242 0.47198512062673553
Ni 8.881579101499351 3.280115946940415 4.1527692237358504 2.32876331859826 0.27096984771950106 1.5561401337636296
P 8.394381846518954 3.509497376866134 11.736310675208502 2.3969302053824846 1.6590775912598201 3.549699220143351
P 5.66402258003751 4.467965620598819 10.02051842277031 0.7344857545329609 -1.0550557817780926 0.9376188451141464
P 6.392761945819452 0.9576700523238468 8.730279572332314 -0.8299783257153319 -1.1304868063238982 1.2532215010516738
P 5.592166572267764 4.080514120261685 3.7618366698074666 -0.8632028920964165 -1.057383658580321 0.48154268240818365
P 1.5506041927573733 0.732340617608876 9.604394008930282 0.27126089659735864 -0.46406663711060725 0.13368605153295685
P 2.5550670426134534 4.155102759795806 11.863688877377019 -1.2817260362492702 -0.040497960114046376 -0.22947070003444997
P 8.577580860578022 2.752990340543792 6.581306964220302 -1.0187651748771744 1.1780105629364745 0.4673705046728596
P 3.78689236765525 7.556346600649181 7.510836543663386 -1.0278987617473265 -0.6047689720603971 0.0390699694182682
Ni 1.8207497274568079 3.9497703674940188 3.079065616784864 -1.2199866502579442 -0.022544975180051496 0.6700048012407557
Ni 3.0023735081262752 3.261560344306722 13.968228517380812 -0.5144690008225591 1.4569284618584586 -0.43826227445299354
Ni 2.64030449459019 1.9412954111656733 4.689372648825889 -0.8345415196059821 0.25108750697327725 -0.5112101275656292
Ni 8.255008236048674 2.055248972886253 8.707272878783455 3.249275071718475 -0.1659289707270626 -0.6778304679327616
Ni 2.0225137346367315 0.8270173872816596 13.603450348298257 -0.260612415744577 -1.4943159013679814 0.8627143824957724
Ni 0.13445675139183755 6.207853863096754 2.233195887475167 0.08193565843354277 -1.1215974742540682 -0.738621116857573
Ni 7.1226469510352555 2.775583852657489 10.400482887692544 -3.1764112936792133 -0.825437757532501 -0.21383042239403172
Ni 8.585731803435333 1.4510180763958778 12.896957985653707 -0.5642360449433573 -0.4320790284604171 -0.023846981820926674
Ni 5.561121621707546 6.019527643046798 4.653446523038448 0.2002431706279003 -0.2131007433168588 0.5069485240757979
Ni 4.078748708675079 5.574071103505047 12.089350735337554 0.6942803859586688 0.2302564291605389 -0.19534830442944423
Ni 6.523383622254002 2.713249798870822 7.526105475790099 -2.0368690620212666 1.0538669036763142 -1.5544532329795102
Ni 0.08025110329329001 4.367384112598066 8.555100034310279 -0.5066518187709854 0.17784629098993887 -0.3568372371072822
Ni 1.3671610260320726 4.045403088759976 6.300476933227034 0.8726118441151425 0.14360613886014623 -0.1938678632291758
Ni 3.8539873984334574 2.8614035148383197 2.3452084354991958 0.805423004973471 0.3518289852594135 1.0618596920738035
Ni 6.6383889185368155 7.9713122283733195 9.402013985792479 0.17057752524266753 -1.3002135535304962 -0.31918317419993414
Ni 0.9115599432083493 1.6923629869670043 6.332060897750396 -0.299306232770349 -1.0820603353913947 -0.6176915936593362
Ni 3.0654024579629895 0.5844836410357227 7.525198354730172 -1.90922253181417 -0.6677661417182241 -1.1975062097672409
Ni 6.6189224386483305 4.415172301769557 12.268282712029846 -0.7597226747228787 1.304664133102682 0.5410310675818037
Ni 2.374882374933644 4.3834512361336175 9.448455579104824 0.5897174770439134 -0.751397442686635 2.0033148802149046
Ni 0.1628197788183591 8.89445345939955 1.8616152494918814 0.785138286582506 -0.9827329638439656 -1.8477443699040306
Ni 0.8788049849357862 7.690546052692758 3.9220083312459164 1.02112313358639 -0.40380383566480776 -0.5120819886476212
Ni 1.5456084535867636 2.4872113823750595 8.316354410585815 -0.2514726582268379 0.2905652533529253 0.3425516737225455
Ni 5.728197169308086 5.954235585803849 2.5065351268586697 0.9409923895720697 -1.1792688608236077 -2.070825364362053
Ni 5.610299602979131 6.188124449567711 0.07083338371771775 0.6241080387086413 -1.0478420376384727 1.0250795471309766
P 5.115467881935377 3.8744117080125475 0.6138270353220406 0.36574816644366687 0.3167280277912222 -0.4991503681876178
P 3.066688954704293 8.193237611491774 3.1770328131594927 -0.4046350733168515 1.3451142706979287 0.4616713974055533
P 3.789352675291904 8.812671706698723 0.12749746135548637 -1.7506898535511783 -0.7615841534116498 1.47938113443502
P 6.106746487814886 9.364466122872022 4.49803020429924 -0.9729329470344081 -0.3069249256578714 -0.06997822896135046
P 3.5204372944107964 2.7697147981807393 6.778477145080185 -0.4852887797141771 0.2921662792914581 0.4766557866295275
P 7.685559704009311 5.681038142776504 0.8050436473207073 0.06949691844955773 -0.8192601679668794 0.9901832494744237
P 2.1152447953693834 9.505051106186304 5.519066324948946 0.4337859838491948 -2.4231022357921623 -0.16480257043210328
P 1.1621573007809827 2.2899172470846283 1.601030169772894 -0.3263550093580251 1.5498476158866985 -2.3436608045353826
