# total energy = -381172.36083852814 ev
CRYSTAL
PRIMVEC
9.25781852545666 0.00000000000000 0.00000000000000
0.00000000000000 9.25781852545666 0.00000000000000
0.00000000000000 0.00000000000000 13.54975320664104
PRIMCOORD
 96 1
Ni 7.962325868103493 6.418084672259999 6.199513126678673 0.16738447222666658 1.0159703857408566 -1.7578035817778244
Ni 6.426583349856365 8.281877997290623 6.994694025281019 0.5135981681818316 0.6633196759110963 1.0711843119088391
Ni 5.193090097585464 0.6207404491366193 5.427475849125518 -2.212615533059383 -1.089856948617678 -0.25563398869337906
Ni 0.7180299404138051 0.7909019347842188 7.649730063911909 -2.0794100207072708 0.376861502748009 -1.4141342495110678
Ni 6.048151493531011 7.264554812421855 2.0156752475910493 -0.8455239867594149 -0.011916548931927866 0.9555584603117027
Ni 4.33391823012272 0.7674204033512949 13.122976568850538 -1.389481483959394 -2.8887279898597735 -0.7768071410089912
Ni 1.7295919846853844 5.080116935593676 10.822838176632 1.7491047684522458 0.42021878668772145 -1.7864099326606073
Ni 1.5727737931768297 2.948041281516095 6.216491040452068 0.8628588784934365 0.14351537891855282 -0.3692932034824479
Ni 0.704139509187674 2.9829988050497334 12.131975214201804 0.3196603709466688 -2.0684051849563345 -1.377268743943286
Ni 0.8588987618101371 5.304387594386682 6.770906624625845 -0.06980750771144106 -0.43027977046814925 0.49507259857381836
Ni 2.7283717586331044 7.376750317640119 10.186569588135482 1.0849068037012541 0.18534362780824856 0.8362574738558242
Ni 5.361758297071523 1.5945296671980296 7.677141539396747 -0.4827858107866653 0.507260655999578 0.31849900364871603
Ni 1.9007227639542688 7.517857990759747 6.949587155071023 0.01561559505006988 0.7981786647062318 0.6388263187554224
Ni 7.650087415714981 2.9962652592932995 12.80001848815175 -0.00811517290796667 -0.2226732174966423 -1.037183272373046
Ni 1.7045681006516384 0.8445269240099199 12.72076600511095 -0.45065062081501744 0.042998615048713044 0.758811475762519
Ni 5.043326363951017 8.812915737601278 9.23028135060585 -0.5128486916103168 0.29783016244545485 -1.5353093130612074
Ni 2.737953601021164 0.4738966315303798 8.3183426937139 2.708249660563626 0.396774182511536 0.2283687252195228
Ni 3.865898461923684 6.317137416801632 8.062848189682041 -0.012111438551553335 1.3228024945746057 0.3053889486293192
Ni 3.5102038084051657 4.973124324503035 6.116250156562985 -0.49683483268056366 -0.19587178103308203 -0.7393171144833331
Ni 3.2278588527036542 0.5385393508295405 10.903798727228931 1.2477365666777027 -0.7261998603750849 -0.7855560908462149
Ni 7.532503859994446 8.631055146421513 10.00513763396303 0.41594432768208367 -1.7300282114367689 1.0805490409531906
Ni 8.706404533084724 1.9793771919049554 10.238355974560923 0.1761604186470837 -0.3607995641891399 -0.5952006116456716
Ni 6.896056595596393 1.3937183210729893 3.61274340868551 -0.26809484016455115 0.2103380929700571 0.03640656365349214
Ni 4.474248246468825 4.888248642364158 0.9405749417950875 -1.0186548745515553 0.880884882757212 -0.7631895502255566
P 4.160537800901856 1.7091970100178513 3.223120701076399 -0.18351480212962587 -1.2984510623134347 0.37971594147766863
Ni 4.375745055155818 7.477586479273697 0.4096621820373191 1.4462977216174897 -0.45437614929572073 -1.3387366493063588
P 1.7346560115320213 6.2005814789603955 8.717708329757016 -1.134031843362679 -0.8410487245968806 -0.3613443809490164
Ni 7.990395574500208 6.4305364384551105 3.3242151558526114 -0.496867228580396 -0.5900661186325837 0.413079861650095
P 8.77707872128806 8.77990235600145 6.096630061323356 -0.31841055769996773 -0.20877897601305334 1.5420198923121635
P 1.6618432672014951 4.663135522066501 12.961978472184294 0.24264040464718856 0.9371629885236504 2.2451623566471524
P 4.233896756537596 8.607364388285237 7.126262441978757 -0.21601945962555058 -0.12352556606018723 0.17511963608739517
Ni 3.6018469560374453 6.681765865396941 2.65699860511547 -0.3318049767290028 -0.00995042634449254 -0.13433808329465896
Ni 5.87066059279295 0.8145371460081009 1.5015700577419993 0.03952171224370613 -0.37743717274582095 -0.037101275727671586
Ni 8.749934796764588 2.613445196888774 4.9432613786178505 -0.12228475167455068 0.3821299502358 -1.292225393118697
Ni 9.243533918121317 0.33626712090852334 4.217686315937119 -0.6283454738287565 0.8002082935417508 -1.4223584371930729
Ni 5.165270352294525 5.226927425052478 3.764581819497893 0.677361241605827 0.20036144137331943 0.49958642728377195
Ni 0.5810790279050354 7.4357226229656685 4.805217117716781 0.46789089595270383 -1.732209535358804 0.5233027970641052
Ni 2.1852525648766328 6.703984630354761 0.5484396621819962 -0.5984851959342145 -0.8974394446817834 -0.4218804906608605
Ni 7.131853238711269 4.555402285477266 10.193736991398128 -0.601101550511139 -0.30019866267763134 0.30169555893813205
Ni 8.730752596351003 2.86664653922061 7.183158218562624 -0.49878012933239263 0.2302667135731841 1.4636747794433569
Ni 5.21055960153355 3.2470503109359723 2.293594040156588 1.044851073330949 -0.13090771745687133 0.7354686872715205
Ni 5.162576327043388 8.130901489402229 11.365329690278411 -0.23800701964023524 -0.6430092464885184 0.9407468492201669
Ni 6.764651116508346 5.359110560914049 0.9953728966541869 -1.5148322761537782 -0.07502813268043208 0.21375406063014155
Ni 8.78628099310809 6.389885356401031 9.80648521116639 0.3348728170210491 -0.5870031634365439 0.842595243148394
Ni 6.173900445373545 5.786849559808302 12.387537300310408 -0.3250602018060015 0.08068610229715782 -0.3613384674117454
Ni 4.647637933508421 8.762479141147026 3.3763542651717584 0.5098713541495478 0.8145136544208295 0.29812172554394467
Ni 5.584612509598468 6.392579381652166 6.097497518938584 -0.4484728964374083 -1.68717409238572 0.1692287245242569
Ni 6.259998159585102 1.3184800282345674 10.419069521999742 -0.06473215007106271 0.4520940381297634 -0.17350292641957862
Ni 3.563399234841682 7.612195163643163 5.342247444092936 0.4380866681070778 -0.5065160645240696 -1.0718795382036508
Ni 2.935867249882955 2.1899647946114373 1.2134371137689755 0.14347784081239806 -0.2689888127337303 1.6233495417305914
Ni 2.498666760244164 3.541263790252453 8.858571596462108 -0.7218346414278536 0.6714541320927726 -0.46762581521677526
Ni 0.49457396966925204 4.595831179881769 4.060833870499254 -1.0958003106853063 -0.17368238942023634 0.08142066647033719
Ni 4.296127814056959 2.7249278500646414 10.105636810994746 0.23630932022283818 0.125154617023178 0.9120643936838099
Ni 4.930649452158667 2.9035296890505937 5.128459413450655 -0.6587091737222784 -0.6951872140436544 0.2783296305186819
Ni 1.0832481120623694 6.825891587423341 2.5502939121874078 -0.9464161316908023 -0.6256738405338643 -0.05915594153486586
Ni 8.618705216232458 4.6966673415153455 1.6844101261436555 3.611381013423864 0.3562363702984897 2.275964943850306
P 7.187585307480469 4.28330573511255 3.5706990249121997 0.18885498339561668 -0.5877816934737813 0.08744990338355262
Ni 7.9161478682661555 8.51237916809055 1.9794836568203782 0.4578625651824244 -0.4765575704887663 1.4405145392768095
P 6.374850658779572 1.023137095032731 12.540161699933172 1.6164168191665 -0.16695869754315765 -0.06797791070187002
Ni 0.14353322162752416 3.933536085582784 9.369790198430389 -0.1364103924426554 1.1160757731048907 -0.6158167452341266
P 3.585710577986828 2.8523524670977456 7.091751145308021 0.2942972095915319 -0.021107728512892682 -0.931839519428208
P 4.687020694396159 4.1004267838722175 12.105363614255445 0.7874949597401405 0.28609179096260406 -1.146816139611541
P 6.936818771475261 2.9126671561394972 8.765606432314838 0.18272804456227237 0.12395879694286395 -0.2684141711771829
Ni 6.2478519014081595 6.737951567284031 9.089865236545533 0.4163431057823991 -0.5420996180556341 -0.3487891699918251
Ni 2.0328225794472474 0.5630836798529468 5.645748367161786 0.223608327716402 -0.17031321583768733 0.3771384105584795
Ni 0.6570088798027692 8.049506747106744 11.64380487774977 0.547743703715289 -2.678573987876064 1.1459715322230586
Ni 8.637211595878576 0.5160715505478172 11.982440148690047 -1.6708964382716192 0.66514644470719 -0.9356164699721371
Ni 8.959633648872757 7.652170424929777 8.006129237435964 -0.3614739645483452 0.9386809678300737 -0.7889507183500606
Ni 7.229699124894273 1.0906913983232394 5.972622505184391 1.7149502340577238 0.02690993701696656 0.26267186937676695
Ni 0.4677068539258802 2.755200917319673 0.8849669277969008 1.5417478695976996 0.5259566897471846 0.24536680243941614
Ni 3.058283386981817 2.753136423742342 12.577166127188551 -0.06507436390182986 1.2148606418852883 -1.4542180049058309
Ni 3.09146340931883 3.52983964193664 4.126983762688053 -0.3810631995341825 1.4854031722593837 -0.6498959463060227
Ni 4.68870561740546 5.406945710304492 10.397213663536231 -0.18065830651743725 0.009127673332881055 -1.0070926236352524
Ni 5.322051512528151 2.6496062368576285 -0.09350026607000406 0.8857926044714745 2.436340074638675 1.3836196258619784
Ni 6.833668155158577 3.531839330782844 5.82925314694843 1.1699198155085397 1.632320120660318 0.24713237898027116
Ni 7.5502973875981665 2.8704607605383696 1.5515419116958853 -2.482251492458809 -1.3799311212667977 1.2231982152167062
Ni 6.681812154490602 8.281109598335831 13.302036669863744 0.8251544219641274 -0.4989809324892891 0.30257461910897565
Ni 1.4091603627186746 2.2147572331768726 3.696034152257395 -0.309309623839964 -0.9461405094319125 -0.8407743878895715
Ni 2.1561089515069574 4.412952228641436 1.9490643160293748 -0.5045900511459503 0.6688622029958803 -0.4847848434945652
Ni 8.915705298987397 6.226225636849215 0.15816057522475635 0.26855069675504717 1.9174130380447623 -0.17714746515070137
Ni 3.493650828511589 5.841479948148345 12.395694364395547 -0.14841641576459602 0.5076080120366677 -0.4706255212750475
Ni 9.032335299378493 4.9727077226600755 11.789559050091201 -2.7850798794498033 0.8483370307281777 -0.12659597745539486
Ni 0.7054226428639881 8.505398772766304 0.6013499478015542 0.8204634442463612 -1.0202186194942493 0.6831410815123977
Ni 7.654355270150628 0.8443232519978066 8.31552461369175 0.05086953315635756 0.39446044677669484 -0.40672615151792535
Ni 2.2233947780542254 8.69960003631639 3.5253616350157655 -0.37427085920269737 0.394442706164882 -0.4173640908477458
Ni 3.4210695296493734 9.102268862083237 1.562503169075077 -1.7852012570644868 0.7909520650508056 -0.3184020730595355
Ni 0.9904755105447339 8.942451137305376 9.674618692705467 -0.6878940228163507 1.1452914754368984 -0.3025663915788595
Ni 6.438766639308237 7.965760518853223 4.5051573258707736 1.169438504996747 -0.35660635204339874 -0.009343131777796812
P 2.244622956407677 5.626226404800721 4.06662000720702 1.928024752122338 0.9393129449871177 0.6849313406436011
Ni 4.925603940949495 4.266271348644887 8.169309401977442 1.286568709053552 -0.7803850881682366 -0.13882902918647705
P 0.9261429281731095 0.9452232925806383 1.9940767564883006 0.549041596591106 -0.6315578101184671 0.20816679635035118
Ni 8.467015856301666 0.8559677363994512 0.5593990679974415 -1.8441893055629206 1.8654456438385354 0.6171827723437178
P 7.835290079457151 7.023453439173299 11.739966766705345 0.4201961609799022 0.36689564978454875 -0.3208515630412926
P 2.791371215107259 8.221702175529858 12.469824496331697 0.43637045674691943 -0.7175272723017514 0.09151507459186176
P 1.834316430186581 1.912804217400084 10.209996498437885 -1.291502913130376 0.7327618298633187 -0.21142952626202294
Ni 7.4625980707459 4.9424439132237765 7.7495237951562155 -0.23749228478734583 -0.41906873224367824 1.13556062130238
