# total energy = -340869.8729502742 ev
CRYSTAL
PRIMVEC
9.30341469964802 0.00000000000000 0.00000000000000

0.00000000000000 9.30341469964802 0.00000000000000

0.00000000000000 0.00000000000000 13.61648781650192

PRIMCOORD
 96 1
Ni 6.803094131108883 0.8220422852325904 12.420851352074372 0.344999878152722 -0.7695172922157973 -0.6183875912850962
Ni 3.288050057221467 3.0916735785221405 11.48007423600039 -1.7128257315155533 0.4643504868996132 -0.3023645599806986
Ni 6.919889199973358 3.6678061442040235 5.670246156685299 0.3853014059852461 0.08478341229498301 -0.5515697623295985
Ni 1.9081210633292183 8.866200780881728 3.951777063868754 -0.10411553696469164 -1.9908936237324166 0.27389164935198634
Ni 7.369076671290435 3.2879570230738926 1.370839557674263 -0.6403360705317295 0.36933819778777033 -0.9753019614872173
Ni 2.7592904794842954 2.7358737845399044 5.407965218185985 0.0648697040901915 -0.059846025623355004 -1.3725453703256876
Ni 2.916313513759794 3.33225988414866 2.5067818478461596 0.4495051943566646 1.228108250923814 1.0641772844633868
Ni 0.23411391997979242 3.665154670998162 2.1939024275057406 -0.1485773668224925 -1.8409921387818617 0.09095380277175304
Ni 5.905379730922504 7.57016067785701 2.8489093435009116 -0.47773282174379017 0.5092411767647166 1.2990434444817949
Ni 8.047556102718541 3.985220048897202 11.028061317621486 -0.8668543728060748 0.842433263649233 0.060140159825006104
Ni 1.5723143076606476 2.4846536758456694 0.5193687108810457 -0.3166868901406417 -1.366973275554549 -0.4856312506552604
Ni 6.62026342429634 8.249328561977164 0.6917247030182255 0.27141284879419064 -0.7128900306400561 -0.9586877499693038
Ni 5.781802472699879 2.362462626421899 2.875897619370671 -0.20977013628172902 1.183922043324903 -0.24626797409744683
Ni 4.455786767326798 4.865202140555965 12.567868563778282 0.0009461659633532093 0.6419874900922234 1.0371783872770397
Ni 8.923621456764437 8.895097187118232 5.363861450187026 0.43058007531738746 -0.1372449725288088 0.17883976525145973
Ni 8.836876417566383 2.5394135751077616 4.451107149703823 0.3175117000347822 0.49000058336754965 -0.5702416277074889
Ni 1.994633517158337 4.642273716139003 0.867631808568307 1.074391248881911 2.0590692522673897 -0.3786363352602447
Ni 4.643138933711441 3.9949235104891763 6.1842821502274 -0.5281161592923485 0.891878148543922 0.42440557107555943
Ni 8.19848540032794 1.5118607185670234 6.497883515552994 0.9188559626843467 0.8694499014473929 1.7613982411076181
Ni 2.230875128093148 0.8554424745531537 11.857510051342448 2.422390040216486 -1.5240388823537108 0.6663756891286007
Ni 6.447061751757712 7.304957536782394 7.443208140760398 0.659759983584296 -1.0186970406434004 0.17008670164917802
Ni 8.555652796279515 5.93318763763239 6.534961344727161 -0.20448574795433816 0.3594188817915294 0.36363831918951567
Ni 1.2650225182235268 4.528083603406601 7.288551895199184 1.4725957360820703 1.4090398657072958 0.7931020215142728
Ni 5.744346924886563 8.529519504225961 5.5023278933874025 -0.3416692711175922 -0.071234984186587 -0.41011100882975826
P 1.8479186664340437 4.435914673404979 12.296491676670652 -0.9619646209483627 0.8074156099234676 -0.055597020539013935
P 5.1210274395551165 5.613754891936855 7.6622430861013875 -0.03861488415872059 1.0445600244530913 -1.662832173206246
P 7.303720182619659 7.146911126883579 5.1599268773387825 1.2881877327142137 0.21657687479091733 -0.03803972838154094
P 0.22152081776416763 1.003038358654973 8.948020592307211 0.1308984614854907 -0.5936425231299324 -0.9182702653842056
P 0.542748192166407 8.562295434416303 1.7841000322226657 -1.765379080132237 0.1675179124807373 1.5571616330496085
P 1.7889257134573322 8.09892025559418 12.272022765517198 -0.14331663264418543 0.06090377746390801 -0.7931788974987952
P 3.5099085889413284 4.4959682156640355 4.256636940688289 0.5368573958200883 0.08749515479919126 0.7628262533488669
P 6.7260246432585316 1.3592661097160499 9.890049948007542 1.4793788204421747 -0.4348447641310124 -0.8104209724086945
Ni 4.89000504429921 4.194416633132234 9.15292178994875 -0.6033396958130384 1.7444135336241637 0.42705689265547736
Ni 9.314020650229466 0.07411937503077806 12.821380103527266 -0.7830919455764385 -0.17102232608957 2.5255069607133347
Ni 2.929673217351429 6.130531671466486 5.765207041455619 -0.0664128802075953 -0.35925921628521357 0.1291128303399776
Ni 6.899682183120272 5.772489754527715 1.6911272871860041 0.9598015518587728 -0.5265287602005706 0.8415521465958603
Ni 8.985572895634006 3.080667638864129 8.974381818022321 -0.4842541678020757 -0.5945097562262343 -0.7475952953317254
Ni 6.895170026962931 8.476936604017103 9.899145896615858 -0.47228054037996725 0.9567769060998361 1.2569879100726418
Ni 5.33871804146366 7.15856830557461 11.923754085781082 -0.09121117019819776 1.2711035235384172 0.32615163509796735
Ni 8.243951188247385 6.606819989971887 9.724827814306341 0.9991101196504084 -0.3678605848009794 0.08986751168610975
Ni 9.131050392195563 4.494591310279939 13.37051974163201 -0.5572053633488211 -0.9145825321199733 -0.21523861559546806
Ni 0.8812957338225094 4.875147490931632 9.996640101224619 0.7237920222645405 0.11689546233817932 0.03616410862538288
Ni 8.42895889411316 7.647220862292604 3.308316615929 -0.36782047559166325 -0.052935671656766894 -1.4002533777639175
Ni 6.308143162600126 0.6158562860130551 7.621815097273079 -1.7827576806200005 -1.6154433995096373 0.049188545909508836
Ni 8.67940681938253 1.3773519480044472 2.0192029051911704 0.36296906103663296 -1.1250589504401074 -0.33923675041669965
Ni 1.586641566387053 8.620292922013972 7.611140359180432 0.4711096600003177 1.236500074531935 -0.41696145609268837
Ni 3.5856290816518555 8.354122225804586 2.1090441208204886 0.8261543239835515 -1.103787185545525 0.6586587801003173
Ni 6.93354661283723 0.9756025885353827 4.580123184193627 0.3379242022528632 0.3641700233232696 -0.9866924627123458
Ni 1.8966964700071236 7.010411425562919 0.7298612607917843 -0.26962104700109046 0.13403854977636914 0.14084374562366064
Ni 4.490339649735804 3.1554298798546436 0.745004428992414 -0.22129690597440596 -0.06100199360466913 -0.22921898903496007
Ni 0.443637984414285 6.3851847402062045 11.94721543711631 -0.41490200246049835 0.5286797451053024 -0.48002418888112813
Ni 8.325011841028662 8.470694012714883 7.993327428439098 2.038469316628851 0.8017892648756256 -0.21972956148728612
Ni 4.3078159556102555 8.934608789592936 10.808332337539595 -0.4168681250479337 1.2907503512350673 -0.8600712884459705
Ni 2.941562981411394 5.87677173054348 8.39489164995449 0.9416814452192943 -0.6571431147867393 -0.4518986342895056
Ni 6.484991773723656 2.8127479006803506 8.035470966948672 -0.06907371486921006 -0.36375144772861223 0.1319191894405212
Ni 3.7323439323761485 8.489440393451057 13.172100233051959 1.043065442185436 -0.4143885531591896 -0.703514245852111
P 4.029727585096633 0.23095075896227438 8.592207773544315 -0.057694269387674836 -0.40446692317010347 0.2532958274785057
P 3.995584052936952 6.612299701264 0.7168113609115708 1.4473924973435652 -0.9751266122516172 0.06739195629141298
P 3.402668127032709 1.332807198145987 2.096884557732559 0.8621533677859797 -0.0717098669404765 -0.9648558264532285
P -0.3853706977886511 3.758105087839406 6.48970023193238 -1.4599243112619888 -1.737318317340279 -0.8546079513385539
P 0.733939877821431 6.709511082064136 8.053634953921032 -0.6837818004201902 -0.6653379918927057 0.5230855388469766
P 5.374247782422193 1.9028181169174967 5.849057788322643 0.07342350719747355 -0.08188809302505898 0.16377078673347922
P 8.729673169316795 2.1615274744914434 -0.2836834441487274 -1.4651253958469541 0.7847564777630549 0.5567741893486733
P 1.574454093054851 0.9131655114154794 5.698745307111661 -2.375184586175277 -1.235432038278737 -1.8815422922900822
Ni 3.7267990971807348 2.317750415097805 7.638223529880717 1.6039413124073085 0.20618036204794166 1.4078034221970335
Ni 5.057010642609405 6.981152186150877 9.569190988829696 -0.4900311794951689 -0.9280831377095694 -0.6144669160744514
Ni 1.4513047919110675 2.152921815840843 7.315471325799738 -1.7968211006916022 0.005600634016229064 1.3040689227208444
Ni 6.8298879656102125 5.85962553714558 12.982068683217182 1.679078202751463 -1.2837649210561697 0.3094217239377961
Ni 1.930365528014176 7.329202235640193 9.797839152639513 -0.8858633098084099 1.4234470422715613 -0.045576917298850536
Ni 0.7247183331138902 6.811662576100455 4.805176508541181 0.4962905301413195 -0.9293049259318125 -0.2222772676098043
Ni 8.851315317269878 6.881382366292455 0.5923800492142168 -0.9067470952359545 0.36993726482434997 0.768145094458619
Ni 2.349623914056678 1.426473977923551 9.46875597481612 0.07225185548687557 -0.0013182045907912782 0.9040183834508818
Ni 6.127601095817904 3.1147739573647795 12.541071007911048 0.54990934390804 0.43972163260733954 0.1385660053330775
Ni 4.658908221725245 5.136173398780173 2.2770033191433185 0.5138233968187603 -0.14224782506003888 0.05448193309796424
Ni 3.589359750969576 0.51139103272657 6.105306392693256 0.6339414798592953 -0.03934559167715805 -0.4053853212193147
Ni 2.0601388604652326 0.12094160082185108 0.7841941333165112 -0.60986129898164 1.955280502514497 -0.7082540745299415
Ni 4.170683622086091 7.897817642198093 7.129021590646564 -0.8126089811989489 -1.6174789418824271 1.671794010385224
Ni 4.567446351245186 0.5381029971780343 3.7484016262474316 -0.1277732855929477 -0.3871214899131204 0.6295618627343609
Ni 1.1966145095123204 4.277989207898012 4.232576449442686 0.44680939269205633 0.9150610144182885 0.7032687055002081
Ni 5.437650553993915 5.9753414098981965 4.959832754102397 -0.10405357337850467 0.0036558515850324135 -0.3804042257939449
Ni 5.0900842820719845 2.4478958841391583 10.386234549313132 0.31473285173806437 -1.8044953294074084 0.7304362670539356
Ni 1.6393919280615452 1.6131376916161453 3.2439509409298863 -2.0640664483716646 1.0313502106310368 0.42199361919995715
Ni 7.419640730496937 4.806767392464698 8.459978339597303 -0.305864345603841 1.2901510270881715 0.09295412103123346
Ni 5.1071281379075515 0.8325207212738568 0.7597187097727275 0.43844713677029 -0.34892055336336686 0.9646707070256161
Ni 2.9215513362682137 6.396609333528299 11.577677290561812 0.5949162476360335 -0.45931112470349283 0.6552929489518778
Ni 2.670991770021755 6.207898868589075 3.2466470705265826 -0.8380675304813696 0.887181257288885 -0.38082305849891834
Ni 0.27419954314502776 9.05480890825862 10.65175679751393 -0.3798910336029522 -0.7520407326975888 -1.3964399175550983
Ni 0.7769811958550943 2.403137155741278 11.666483966470105 -1.7255228673672478 2.4095841467010697 -0.6507598369682148
P 0.38925115208396505 5.655824933469844 2.3563056265354474 0.5427027988572718 2.0103905561147632 0.7017540686278947
P 2.690314962472887 3.7390516944162386 9.224026858598126 0.04083400329722645 -0.44830011830496985 -0.45642094763989133
P 7.702129616190814 7.793396114960967 12.2780550996459 -0.36094945950344287 0.4606864077844646 -0.6808787678407823
P 6.902212711934287 4.379582497048886 3.5340369951146604 -0.6846487764061756 -0.46245224143563585 -1.077716199490086
P 3.748801673082 7.872884490648244 4.663810190960922 0.628214347567531 -0.332907208654246 -0.2898350600551202
P 6.70906451815578 0.4164013073705031 2.3257373966670385 0.26481565519264716 -0.46271063730334505 0.7661704872307514
P 4.350574449835293 1.5929027645187874 12.572743553111163 0.38610744682630926 -0.5040529476955576 -0.9141894104466127
P 5.923558603358475 5.34732370011426 10.975406781118997 0.6527568127935854 -1.5023675680278643 -0.7819971698503629
