# total energy = -381163.01800593594 ev
CRYSTAL
PRIMVEC
9.26439779020930 0.00000000000000 0.00000000000000

0.00000000000000 9.26439779020930 0.00000000000000

0.00000000000000 0.00000000000000 13.55938262565070

PRIMCOORD
 96 1
Ni 7.311759356540599 8.46056323642604 0.49217206979969763 -0.27231479178316975 0.7091585886220819 -0.2098992056604256
Ni 8.253791137627932 5.71486433894432 2.31198332613609 -1.4980632842255557 -0.2863159911582682 0.579685546729208
Ni 1.214998003542976 7.12573950924604 5.240159365119978 -0.7515925894165766 -0.30105895379539765 0.38610770393662536
Ni 5.889322217544041 6.347761687812676 2.5290416860254465 0.9796589529043321 -1.2344887005288612 2.236645577425393
Ni 2.236268180661503 1.5671933576318209 11.42768495169146 -2.795266590174818 0.3917767292969446 1.1515845075344617
Ni 8.473514864819775 0.956011757658252 12.195335748682409 0.07364667895187316 0.35327420234637225 -0.20205399858439396
Ni 6.2141968619525425 1.6856664791619176 12.520490177910286 -0.1358627474693015 -0.5962956444820634 -0.10569625118825021
Ni 5.149976935740057 7.573460071037171 0.9869835665875032 -2.536265484781419 1.946322264879945 -0.7928297416894926
Ni 0.218412814875883 0.11292930577129068 10.228032496983522 0.954708967827214 0.6336877119772765 0.051912115488258984
Ni 6.786931210256584 6.241091409325225 0.1162496660118589 0.9244506831633047 -1.3974845567695287 0.22537596113978603
Ni 9.401325794988379 2.403397920449034 4.528508148235442 -1.048302522214659 -1.9700736016632718 -2.1059121807628576
Ni 3.7100115557413935 0.03484062153098484 2.705544217262148 -0.28605116753265575 -1.528672010250348 0.12892565402983605
Ni 4.6367200225488725 0.9637660587781057 4.757770499600525 0.19992821049064277 0.044995076653451545 0.9805716945265885
Ni 7.827397220015897 6.144491531455791 6.538619403739 -0.41043162539397055 -0.6669253909844837 -0.34771419176009144
Ni 3.2374716717279353 5.738080920313918 5.5487295955012 0.4208811028620687 -0.49806279155039385 1.5927228179836697
Ni 6.910249611936841 8.689412395640652 11.097595377652894 1.6757002874181655 0.9798245319479191 -1.8487704971756997
Ni 8.748074563730155 1.2774863680034465 6.241478661161318 -2.853836577299227 -0.36197018745847337 3.195523589028632
Ni 2.193244316383604 7.877526877554163 7.669430896282903 -0.8523253259519644 -0.12407963879144437 0.07137382375729642
Ni 9.702974593629287 2.4521657114823796 13.668806750461314 -0.6626761287898264 2.130655192035492 -1.1031004438911456
Ni 8.65739463617803 1.8659146065070504 8.661015162913559 -0.2354505717669687 2.8050126138179885 1.3002521200779156
Ni 1.3681107091676166 0.6125897884684529 5.414545907855157 -0.113021838315386 -1.1508124052551276 -0.31141381466716045
Ni 5.446734132240843 7.667938401766286 12.174955925978162 1.0839264420658559 0.20161768237792374 1.328675408415615
Ni 6.642647475918945 8.403151762065546 6.1425358170395405 -0.18788259218001838 0.40516857722281835 0.7166893497814882
Ni 2.1701944941778737 3.12632668901003 1.3437657241225125 1.3200287884842106 1.769001507376173 1.393692179606632
P 3.254064208532784 3.413708314742248 11.253975636449542 0.021613721615033745 0.502863812483463 -1.525871050466443
Ni 6.397168722307516 2.8474034586451085 8.795877004492667 2.950429323524312 0.6539084098995254 0.8782785554826164
P 3.5192112790826244 3.37267629603277 6.3826588221714164 0.042481051982346196 -0.06568268690979011 -0.11461000873811228
Ni 7.0822709538644935 0.24133664126891324 8.47521117609223 -0.217617914460922 -0.402842500192803 -0.16937090652907605
P 6.156164672926539 4.293844652840639 13.024166777137266 -0.038979209476674805 -0.7094334395500234 0.6836879551548032
P 0.8182158812348708 0.5930335707457535 7.989906804524489 1.2896532615161467 -1.7979958377259937 -0.4620964007581138
P 7.757552923549256 2.588648822710201 10.73785139207963 3.2291911564844065 -2.302917046959118 -0.32269041602224424
Ni 3.0589004004194735 9.089875263271239 10.040953728998401 -0.9177426750155098 0.09101988012299808 -0.7382601339737286
Ni 8.757144409364965 7.403449103473924 9.445086178906694 -0.8032419381617522 0.1058209496915726 -0.2275174329628211
Ni 5.033467866584404 3.395735382636493 4.630068184790144 -0.9324565841869167 1.0908097994492505 -0.4687347320102379
Ni 2.2303482303441955 4.672462070004542 13.094946777801166 0.2924478150876189 -0.46147779333750844 -1.4652878895667474
Ni 8.644433743386303 4.741648594213704 12.516205393838682 -0.8640415859476281 0.18873619842956527 1.4170611933498758
Ni 1.1959967232600364 4.032699802223626 8.852622368637489 -1.1063210077109722 0.0734589884210993 0.033103981642820406
Ni 2.9026285350793364 0.8608589787552713 7.298134206412798 -0.9109827305838569 1.9889025614443165 -1.0417770623913156
Ni -0.039978656657712365 7.158322396986215 1.0578719607079161 0.39389274719868295 2.3454634049617606 -1.3616194674418034
Ni 8.039487083261792 3.7034894195545633 6.840003240597319 0.43191936295410127 -0.6578244571244799 -0.15606853299321508
Ni 8.122709170429829 6.756553249238663 4.319870199681612 -0.04735483513487973 0.8572798417437623 0.7362721570094223
Ni 5.518894528205648 4.0340616687285475 7.193374246791432 -0.6780757511743484 1.0925589209298732 -2.1967484841201395
Ni 1.2567155877039098 5.975786844009509 3.062644143648306 0.213868988941451 0.39237965298826616 -1.217942623244722
Ni 4.096429596015113 7.091627995837078 10.091895874240624 1.5783719485786367 -2.004138147447148 -1.8631301083314817
Ni 4.401700774271151 8.681065173049268 7.043530020778601 1.591389186773911 0.3429237123499836 -0.7467519734948236
Ni 0.7221107222182451 4.361104182267328 4.725661949037575 1.278776980923275 3.670891252974356 1.9787433615231276
Ni 0.5557286193487219 3.2246497449060985 11.350084501225366 0.23483582100110525 -0.6326006495606847 -1.5392590417375749
Ni -0.009333880977601836 0.5134412747112393 0.8994739160284646 1.1137165288440949 -2.5257774407659017 1.0182478689211236
Ni 2.948746708286783 4.399607020324811 3.68687742751393 0.2764884635448851 -0.6425400201615836 -1.2078528431088875
Ni 6.187700683693543 0.7363213822991814 2.7749002799545757 -0.6527655545443339 -0.7319899846943007 2.030150769460826
Ni 5.792277648570961 5.298170246030597 9.251648328139416 -1.7912664894219603 -2.2116948210173266 0.30301762018366524
Ni 8.207191215724867 0.2549951432294873 4.229768370564227 0.13039169705240122 0.7549195969072805 1.8318269273428258
Ni 8.749158498295296 8.216881776025186 6.869861468887852 1.8116823340741508 0.568800267275272 0.8574796164593942
Ni 5.420784553463411 8.034437986355792 4.276304368121142 -0.5649788366466528 0.8699394394893017 -1.53253509275018
Ni 3.402109288455441 7.393035920130178 12.16009490515814 -3.1753813097528027 -0.006979259531310561 1.5920584449267936
Ni 3.3181182562540132 5.902060764783945 1.2266359403013514 -0.33775656632674733 -0.1176102290170168 0.37807146389571017
P 0.06283670582499476 5.346419230776354 10.490623520127187 0.2654628018583428 0.5806527957384839 -0.4627648875800482
Ni 2.448886114592979 1.9244007510346932 9.227539585243125 -0.8608012246334594 1.3387754729640942 -0.4116287310258653
P 5.8773896729295 6.240628189425593 5.205365992018755 0.456500137617259 -1.0665604399835826 0.8184124752546034
Ni 0.9404383046325957 8.520874467358237 3.010644004155322 -1.1670327237687321 0.8458908831805303 2.6326882810875434
P 1.5780882896711854 1.2617832134058933 2.1919695352198145 0.08584244968711668 -0.16738524355761497 1.2524517127651849
P 0.8654448557616365 5.546011421130155 6.753277358108459 -0.46784821564022655 -0.4395871639120042 0.24566119375138334
P 6.531400584823121 3.047727536440329 2.8938032695515314 -0.6856571630660321 -0.37873866516606386 0.6125928389801902
Ni 4.197439327329051 2.1601148291618633 2.256579446820604 1.2615863280766013 0.8561485563527965 -0.48990776654342716
Ni 2.1742059785086942 8.025025357995254 1.3911382968181647 1.5254293349433343 -1.0493520465250958 -2.5963297970631674
Ni 0.007737625203467052 3.702600037347268 2.6010288377477884 2.433079401609532 -0.6694299025738922 0.11111613665224089
Ni 4.021953100552144 0.6041360253001535 12.09242033070138 3.4570189215987943 -2.139677707249076 0.9889480915157419
Ni 2.736999627766616 0.9882981846626612 0.3859946572854553 -0.3464723489331904 -0.381220293937337 0.13935687666548904
Ni 6.651365274430035 1.9400668480402763 5.278247158147389 1.574257926410263 -0.05173265248760123 0.0354781383019518
Ni 2.697690787083773 2.0673504120613893 4.053427966292397 -1.27202449269079 -0.053061398601353775 0.10876306303903203
Ni 4.597225893906176 6.689256662220003 7.580616818486499 1.139242183919025 -2.127950134399503 -0.30702211335736806
Ni 4.9343666012569525 1.5095780665154876 9.964003639271393 -0.8878510296623999 1.1023697363727079 0.6608025659161973
Ni 4.968830161789637 4.28314427315912 1.5997493786178165 0.8989656515183228 0.09318809141891048 -0.3256245589499037
Ni 5.3585463277487415 1.516480043020017 7.369483967553245 -0.8958011377474121 -0.013885242622524474 -1.3922071104206732
Ni 1.3134692898069262 2.7469403268127373 6.552544720361763 1.3454279452836053 1.037676924180013 1.1220304480264287
Ni 7.242637683117385 1.4944678333894643 1.0420576333344507 1.0381656908909733 1.503906887490526 -1.1021853882760437
Ni 2.7837014580475996 5.494890473006674 7.919005440246887 -0.9271218022375647 -0.5395082031793741 0.36247900877409184
Ni 2.406890598492265 5.320034225293267 10.721431173077447 0.5764616404752717 -2.1570732770177043 -0.3207016677269896
Ni 1.5487016192384777 7.185003863205067 10.25124629903372 0.19663951243704197 2.180075651450149 0.228558986853458
Ni 7.612565094964176 4.418117287514139 4.391531244594612 -1.1945368427262717 -0.7609634891085153 0.16887648339116076
Ni 7.649418870178965 3.7837932213549132 1.2083415335852519 -2.2034017277705984 0.3252010982592399 -2.6088685529601263
Ni 6.734957937517779 5.991221331065275 11.198857100592232 0.8666013762550043 -0.3505262072875898 -0.013603449716047539
Ni 8.824070420463919 7.050781265087454 12.034752232516489 0.2896432557592883 1.4777374281840099 -0.24450291177722405
Ni 3.010392012529922 8.537467004163085 4.962137560679741 1.4846228424499335 -0.8064254780960562 -0.17857005652984084
Ni 4.40089477164579 5.515086860630666 12.211146370296678 1.3098636750257504 -2.9672978171448765 0.260086625148094
Ni 7.9399503912286855 5.4163191136309505 8.674113168795579 1.9071679632779863 -2.5606135746084804 0.603009309056813
Ni 4.155971881913919 2.8852763176390903 13.06799108540173 0.3986510878192747 0.6811618462988398 0.9508109183243881
Ni 6.030724724105965 3.4391483516300836 11.015208939183793 -3.0081336202143163 2.729943857707608 0.6721017929791006
P 5.1757690197516135 8.86999404131352 9.41032059899945 0.7966992519472279 -2.0185661499470204 -1.0577220157563463
Ni 4.158010049472304 3.7549994723937354 9.131512247169638 -1.6228088387357729 -0.4958850671727847 0.8137654634008953
P 5.282772816566801 0.47292898872914996 0.6846121449031669 -1.0423288211297275 0.1804382200868312 -0.46082499024485796
Ni 3.59245560961257 6.629065868461711 3.563229213265135 0.10402529124373051 1.2087925813143376 -1.7599555951238206
P 7.895870385579624 8.193007422398109 2.8002291440664995 -0.5756787395626602 -1.1148082192463769 -3.5038903893393525
P 0.7015141126009702 5.244149541335414 0.7816715369130363 -0.30854729175264284 -1.3691234891283324 1.2023617380873293
P 1.9157663321055372 8.706579325121044 12.254034974363883 -2.346389516320456 1.8502092865047552 0.07694463297685458
Ni 6.586042004183812 7.170708897102397 8.750914101714905 -0.4346917834929159 3.1137751069052313 -0.5232097231296666
