# total energy = -340862.9760795886 ev
CRYSTAL
PRIMVEC
9.28197539981139 0.00000000000000 0.00000000000000
0.00000000000000 9.28197539981139 0.00000000000000
0.00000000000000 0.00000000000000 13.58510923407689
PRIMCOORD
 96 1
Ni 5.755465044826793 0.896736259534405 14.04808930832453 0.14717225894484978 -0.7837054107907213 -2.1201198397218066
Ni 1.7122923644697974 5.026087438104817 12.26924146929073 -1.8537684646109238 1.101517672785058 -0.2468205041668072
Ni 3.099381447836118 3.394297644048607 11.51054024669759 -0.791570929581727 -0.4192322544047361 -0.44612470792020587
Ni 8.589474823329986 4.143399447949054 11.870328167183175 -0.6574236221416354 -0.32166557430215575 0.24072570412297895
Ni 4.857628871237966 3.114251172014899 10.057721784554978 -0.45119749445742297 1.88740800704224 -0.3560697628136384
Ni 2.291255564002545 6.090562911432505 9.657559128593197 0.44419818032145436 -0.09511204791450072 0.7126236643525469
Ni 6.375890827322472 0.9227777689950715 4.438798306868969 0.7409986159508142 -2.091235295476973 -0.6979074411882948
Ni 6.412099812354572 2.8900357804651913 3.5773938857156686 -0.04655445072077144 1.5538603365905173 0.08714599898988862
Ni 1.3044887865704584 5.602488812498149 1.129870700998839 -0.16133183827468342 1.7773977018596678 -1.174684583887035
Ni 8.381790629509622 7.349272996598627 6.037711344969347 -0.5142530281570111 -0.7898508615668268 0.17814273918443513
Ni 1.7403981852022248 0.5924183506997643 2.7284607263642475 -3.282867048741307 0.9369377598867218 -2.1412975022406866
Ni 2.910901660586227 8.179935516078942 2.0681428710998024 0.08642300478093504 -1.7861584787714335 -1.0560410285094974
Ni 2.5404301867112684 8.183044977751782 8.202702344709225 -0.16285341712553242 -1.4500602739837156 0.6407317633082513
Ni 1.2060163122803915 8.05415547091873 13.282282733759567 1.0126451780223658 0.7541001863297787 1.5531805369146734
Ni 8.462014740668925 8.669095606105007 12.2806527295313 0.15106388068977208 1.6561372776845735 -1.2052434305104986
Ni 8.477664150759702 1.555584778133743 5.78040942482558 -1.9540384025772797 0.3256340720316005 0.4804273378568178
Ni 3.19020557460851 0.7604963565857602 4.346705334094556 2.191616819320529 0.9229023648395783 -0.5282668259376
Ni 4.614190509167499 4.605289095005545 3.6945249864378114 2.2709307238605083 0.47536714972509103 0.2895560953621206
Ni 5.145035949559921 8.497731781018457 5.648959949248139 -0.5013234645795367 0.2728796631477043 -2.9119342527729075
Ni 7.134135376738586 2.1918363282479114 11.089605458563717 0.29561644262358766 -0.12898530362317784 0.3593304358427812
Ni 4.673381664653196 3.4494882682477526 1.570900037119379 -0.3861992352091671 -0.4941835111006457 1.303486310744497
Ni 3.2406345455593946 7.065485888582367 4.123868315853555 1.7084602554580062 1.35448234217639 1.7798029688670511
Ni 2.474853032327318 9.079071166187763 6.138485749094831 -0.9721222782076548 -2.1328442292670107 0.09307650554171067
Ni 5.3783569587247255 1.5650152648788378 8.62525312471546 1.4250773787861328 1.0914931986695202 -0.4392611480311531
P 5.723349410832672 7.4813369389305215 9.34829392700744 0.49283933836792543 -2.904505307298688 1.062070522533029
P 0.33340761893220583 7.199155612613968 8.039286674937463 -0.33100073566015253 -2.110735313183113 3.805232678703124e-05
P 4.133124301465964 3.4120633444719446 7.85484176228215 0.8650656563367682 0.7704660292823118 0.4254309270162802
P 0.07990573941190483 3.9429180668395096 0.4100850873894415 -0.5272779796617694 1.1459910726070843 -0.5550114410212957
P 3.4352590003538257 2.882173947519231 3.387106897905473 -0.8259041556459583 -0.483540943785135 0.34634687909891965
P 2.954424842030861 6.841651058013514 -0.02719897176097491 1.221220265554729 -0.384505392446512 0.25978477763695906
P 5.642271357960231 5.919542519426239 2.0294110452238865 0.18273087277574981 -0.583452212860492 0.07537703137941856
P 1.2561946699024202 1.5040883800414355 6.352546659838305 1.1696123115704502 0.15286905221931094 1.0380075680465544
Ni 8.667564080206443 1.9967013648206258 2.600665564400531 0.9624901544345296 -0.47828586603378276 -0.13915581639827646
Ni 0.4643697908146491 2.8601756664307727 8.03947695542789 0.29521997851611737 0.24807314562698568 -1.7914827191978242
Ni 8.536808896369683 2.0043961222140148 13.351091871888244 -1.682557676659631 0.75183941532006 -0.30458007957477873
Ni 4.94694003606208 5.222364084474668 8.770817699892572 0.0030393010469560557 0.7074215513263171 0.08540819036317548
Ni 4.275138521150951 0.6744357394566584 6.986155631629316 0.24848709323595272 0.32873096578936933 -0.3415162904794957
Ni 1.379477863749217 5.121394758871186 7.733527275363143 -0.0029256582872272193 0.6497344810274939 0.3716218516156245
Ni 6.0675621770286225 3.4174190441293457 13.44518232571339 0.815912591650885 -1.3991244063657968 -2.3130348521194097
Ni 3.428659516027288 5.692356895830831 2.0534838477567634 0.07279358692295851 0.5287959589681925 -0.7825160184683104
Ni 3.862146319146781 6.113285186582102 11.514820165435939 0.7047838565931539 -0.5323993600487347 -0.326824749905592
Ni 4.287316472538317 9.070624568807807 9.443674575377438 -1.3624172807527504 -0.5631284137014753 -0.5013892848204655
Ni 9.278921372987595 5.772283983785565 10.245264092315443 -1.2632480320497406 -0.025496087388575447 -0.9911643824407703
Ni 7.485578801570785 6.001725127340674 8.583044270951047 -0.335376496130345 1.5197430831918342 0.2496787995512087
Ni 6.445524204843829 -0.03143619341366749 9.999115393503276 2.845535256522383 1.574164081144876 1.2288407582144643
Ni 4.586678734844211 4.884351677674115 5.951772321714617 0.8920095319154637 3.0426205982475922 1.380183860707552
Ni 0.35445728216106936 4.424615448850756 2.822224454664367 -0.5235889608459564 0.2913818357169498 0.5965972348828822
Ni 8.655237617216793 6.527743940658836 13.047124821714 -0.6224571333687796 -1.73591629478643 0.491394892611915
Ni 2.846122756064559 8.103786192007332 10.941582088171277 -0.9488021154244757 0.601535295614448 0.5136387916117799
Ni 5.594896156831331 7.215334095287884 7.274662624005694 -1.478005594243732 -3.522212327576992 0.5885090585581091
Ni 1.0871606205767148 3.660578946945528 5.9505220396628795 0.1428443209934572 0.9526867951908624 -0.2838078800244338
Ni 8.44122311634903 6.7313719113417925 3.2335412601552593 1.284421323693246 1.7179861926705702 -0.37606214677516525
Ni 3.3705543516333 9.26532327940338 13.087757596099163 1.185187797411204 -0.9005983020257393 0.666930018970174
Ni 5.276060310675822 8.026226007714016 11.718419361995952 -0.6183533956130512 1.9023633428004916 1.1453069020558662
Ni 1.3450417359693936 6.541509109795623 5.748579675665857 0.42977274892474376 0.43995354611248744 0.3858724479973677
Ni 6.109952957505834 7.137365504088284 3.85650009366741 -0.44412696076388675 0.10365942326387954 -0.2321608452721034
P 8.569082323941233 0.38807938072086856 10.41428978786352 -1.955049103229981 -0.5114605530135385 -0.6120737332519266
P 1.330246267591755 6.580224228116282 3.429519955123027 -0.6234734904484359 -0.894079527070615 -0.8027850531299916
P 6.3047352058776935 1.1797019127505264 6.512171570961744 0.760151277619865 -0.1787361497940599 0.8934064122629903
P 8.660426241321622 3.681797542121991 4.516492151604343 0.5136745299457218 -2.0295846125447112 1.2404158646465735
P 6.94107957574329 8.18105863507122 13.580843033413124 -1.8026222807544117 -1.054476769346171 0.10902454423053481
P 6.805943299639125 1.9337324454518054 1.8310143957314176 -1.1741155987574423 0.9500298171839897 -1.6117926901309272
P 3.2553928860364616 1.3560223125633373 10.489524837383565 -0.7559048436386852 0.09325828253521358 0.06557778590080963
P 3.3654678292550404 2.1626723623492037 13.772583578530684 0.5624884661246313 1.4956279353111857 -2.544173426774586
Ni 3.9136519992142316 1.0796236567607536 1.8310691593847601 -0.04044191006513035 -0.3138147107991692 2.2825978757857914
Ni 7.062589912337811 3.6733416627668913 9.139803129547166 0.5360408134560639 1.1876678835205805 1.1415209526508727
Ni 7.692177004299441 1.6500474391621163 8.274296075380745 0.4486808986831563 -0.9261591812139792 -0.08347240679304334
Ni 0.3649737599978727 9.262000332302254 7.658102873550186 -0.6371116500571609 0.678564774995625 -0.3162374613080489
Ni 4.98998983677443 1.667079863549172 11.778792112917328 -0.7469674319397395 -1.4259150441960797 1.565883843413955
Ni 6.75541222696167 6.463967489452592 11.267326508425578 2.3560208687626325 -0.6881310785278213 -3.391469417832759
Ni 6.1892952810265704 3.3692734390635923 6.9772579302574185 0.15589292664729926 -0.08228378580158087 -0.6489839760147146
Ni 7.204362800669084 8.673671619850412 7.550576760705824 0.5989420809659749 1.377304739387544 0.7108002379905629
Ni 5.029577460758514 7.873277621310799 0.9756868837041146 -0.22167023015342469 -0.3616536846593191 0.15480252179659792
Ni 8.546155845338493 8.616086246064421 1.356504047073249 0.7515617361786411 0.34888455791910883 -0.1535467950126259
Ni 3.66101519977724 2.8927739631323197 5.845319205196762 -1.4339487131338335 -1.7488548572249685 -1.1460093274395295
Ni 3.8175649925358663 4.702155787595905 13.31051293295891 -0.42491053573643595 -0.6253449964395359 1.3442138703708462
Ni 7.230389458969522 5.007504923868913 3.972693714900129 -1.3397499210622217 0.4253177984771837 -0.936598117159116
Ni 5.851431385828302 5.827298250456997 13.101411381534236 -0.9416169105299461 0.5281927781665549 1.678852459893902
Ni 0.9343514638006408 2.0203611194596474 4.3565813556465045 1.5677782322231903 0.6014113684420739 -1.7123171673102509
Ni 1.8147932159718434 1.4860999122146707 12.318093432664853 -1.2569987087059191 0.36792717637285666 -0.5560529949119326
Ni -0.011362065772313207 2.260040281597276 10.024506236506431 -0.45116124190284884 1.7703711340301895 2.6232811288410307
Ni 1.29223657938195 0.3702988291373025 9.82283490618358 1.6815549464267299 -0.33020317945952166 0.18506646288746192
Ni 7.304468902584285 4.937648778944127 0.9941923575463341 2.1758117339674725 -0.28178956404282435 1.7916639819706952
Ni 1.784803154285426 3.1320632823139505 1.4866317693903537 1.174922410929454 -1.210538874581483 0.2939161721030293
Ni 0.5569342879263176 8.80561489650545 4.8683866804284825 0.3432502424514669 0.09200178442029316 -0.47995502620608954
Ni 8.39552795272098 4.693440012936807 6.967218545942956 -0.6768855875209892 -0.11550552396918817 -1.1276398237934064
Ni 2.5046481725357372 4.83021919864125 4.476034806549379 -1.0194514023109218 -1.080459566563178 -0.5974924930036419
Ni 2.7239533992348988 1.8186266717058237 8.134817691304773 -1.0004026132095867 0.09588800684857679 1.1908141424590457
P 3.4929371938912444 6.908490561016886 6.550331627168863 -0.3798622372475458 0.029552773956452328 -0.5191517510102092
P 8.311423975951982 9.091908137810268 3.4887510231018375 -0.8923530312978116 -0.20175189396294288 -0.01918480045856696
P 0.7497283372225868 0.8372332296839099 0.538662719857697 1.230319656752836 -1.2777768217935348 1.4700773405355907
P 4.890403525467226 8.949318435666427 3.3125791348913114 -0.5756080342257247 -0.9922262480463816 0.10393890217751131
P 6.689556613323436 5.910112032681144 5.786808418489033 -0.12933780186659016 -0.021876488358117164 1.3391981623238098
P 1.207018765595815 4.000763335929499 9.818881712970258 1.2731398372421556 1.0906007687622379 0.7422769684426055
P 6.081717189121408 4.375300314917009 11.30461777175933 0.730065256867762 -0.35635386971296046 0.3549742157566145
P 0.9086227569022869 7.195145799352274 11.41172248293221 0.03272474392653074 0.1531757848264523 -0.39015899118786357
