# total energy = -340888.8690599329 ev
CRYSTAL
PRIMVEC
9.09144894345460 0.00000000000000 0.00000000000000
0.00000000000000 9.09144894345460 0.00000000000000
0.00000000000000 0.00000000000000 13.30625450649196
PRIMCOORD
 96 1
Ni 6.802713171602026 1.9738263360572381 11.20453191205871 -1.0834860120943277 0.4881840989841011 1.638136727342095
Ni 4.735244909584485 0.3793152585729098 5.453155735256169 0.44700582497357855 0.6064653859262136 -0.13496851778980629
Ni 3.158414882353321 2.0585040931828953 4.427310254650869 -0.04729184310742823 -0.6396776110121242 0.28936634794881777
Ni 3.6910374291867556 4.635266243585896 4.826378504731929 0.0021342727341834215 0.3020935657074991 -0.444025659299332
Ni 3.7833792779225615 2.6194374125833573 2.021991924362587 -0.29467876130066667 0.6074863709915602 0.8907895434654337
Ni 5.258612361211356 4.375841742879366 2.594799585461763 -1.3578201483003713 0.2842853338814846 1.257966214825511
Ni 5.559248400789543 3.3417530453548236 0.09285733390104377 0.24007187258906396 -0.5198498055184982 -0.30912784684646116
Ni 5.877194559496702 8.003011741981547 12.415134730873513 -0.47540468783124584 0.20022594423671966 0.438367175461974
Ni 1.9322056819750761 6.6807877474220625 -0.001773741723772349 0.3720661382418947 0.34454890665823246 1.2961440114468128
Ni 1.0334704789842224 0.2679259147808483 0.07991201949571601 -0.9289645118732581 0.03734527341767761 0.1413271130179824
Ni 8.288937816879754 9.305825492664791 7.100869973004544 -0.43472675049590936 -0.817271933892257 -1.081301088627867
Ni 9.067211318999345 2.5063216026029598 1.3499592783970664 -0.5344127909343378 0.5729307445038778 -1.1155913772693045
Ni 7.158716136335381 1.0480077061308752 4.714991888374604 -0.25101757296729027 0.5244058003202968 -0.5834768954508402
Ni 0.9533384464197452 7.510618857514553 2.664524636215875 -0.05541164400108521 0.9838506223881767 -1.3780812125422526
Ni 7.8964054095727585 3.9109050347618988 4.000139426187682 -0.3654833428180544 0.3209068417592602 -1.390269527078328
Ni 7.956099864510171 4.169774957071965 12.608688046108899 -0.5832647794400342 -0.7993348897978622 -0.667877727595424
Ni 8.53775259646049 7.386366022359264 8.74600133005726 -0.8913243329229812 1.6374605272106766 0.40417098919623945
Ni 7.167343921552501 0.6808531699040336 0.1841582117123396 -0.2968534003544823 1.1036182640678283 9.435948601919234e-05
Ni 2.004973640750442 7.047345884586477 9.31389960863036 0.9679352367095008 -0.43978565307605544 -1.3202445040394424
Ni 0.11471863246066957 5.150205921876342 1.1323672625372496 0.7900408660904459 -0.5076347515095451 0.16455240209451016
Ni 6.37161483711798 2.3579764272734187 6.856979122268478 1.080495562007436 -1.1229413898764726 1.921253237726459
Ni 3.584458371125334 4.646730560929192 0.15927946118900269 -0.5771794924779028 0.03003948378488375 0.4175327552151261
Ni 6.161156881384479 5.9150149878457166 4.7790611486296966 1.1405364772504165 -1.001868656232152 -0.36790815020946316
Ni 5.492153506266529 2.784765414873466 9.284598777253908 -0.15467808040359168 0.24006904437558657 -0.4017315265168114
P 0.1834836261874605 5.981928053386284 12.185096521165187 0.24157776771062914 -0.789541300746208 0.3294207927675423
P 4.162238145749528 6.542124965407834 12.461281108328786 -0.4561250136660273 -0.7478709175906152 0.4969369054760668
P 2.7802833304561423 8.807286788591085 1.186658669261244 -1.1121445563712846 -0.16589657482723041 1.0964585130945954
P 6.8507796631119415 8.201278064441963 5.6632082123588114 -0.365650464523538 -0.12112287015596561 -1.0087018771039014
P 5.059700545863252 1.3768545123357427 12.700208027844043 2.088582174124842 -1.7633304251333246 -0.12196850598571253
P 4.206258942399994 6.5737086596589105 8.048807189500696 0.5098682688257542 0.34913009827101166 0.18569792582387373
P 5.206209248470076 1.576439094918902 3.3653517198417324 -0.7908181105761025 -0.9501213484565314 1.6787616999523087
P 0.42283784381146944 5.515509439061871 3.5145414907947403 -0.04075815575396852 1.3819805475966587 0.34919231896751474
Ni 0.5933506995360596 0.34621874718787204 4.791914639398889 0.4212086614048165 -0.4166578088093405 0.4882352639370108
Ni 2.148173055876727 6.668468833861265 4.528091695606961 -0.6536147899185065 0.17961778106806486 1.8689477434545234
Ni 6.424581619704847 6.39978014649905 8.957783909927889 -0.7062876948321901 -0.26692833066027577 -0.21266519844133697
Ni -0.33266976056081965 2.8789891935776 10.30019910384322 1.3886116797599308 0.5255142028931271 -0.061574321168371374
Ni 2.6181555182571046 5.689674329898913 6.814425685506362 -0.043724180360827924 -1.6564262696799021 1.3559386150069421
Ni 0.573967730007189 0.21882027063624765 9.36780281047683 0.008098974958050568 0.7123110182081346 0.05679412617090864
Ni 1.7451763906298952 1.4899430479687732 11.33819348791073 -1.0546256362192095 -0.2996070518402195 -0.595371075785265
Ni 3.9727268887939435 7.032935937727537 1.4402291858778866 1.0914492328054621 -1.3204108544139777 -1.459230627629074
Ni 5.73778627865444 8.306902520345536 7.413805834100371 0.06828464330901142 -0.45050663903798543 1.5955433181516006
Ni 5.421012916884066 3.115657797130864 4.980238553099094 0.24940780527800915 -0.029943581636967788 -1.5773918440535544
Ni 1.210408261803584 7.535274867534391 6.850019617965312 -1.0239053243172171 1.8100514833389472 -1.119613353944504
Ni 5.65039926969032 4.875935084752999 7.472247487348723 -0.4041329368694524 -0.7772817666525645 -1.3861776163971418
Ni 1.1058838712438162 7.775943708701495 11.322878032719203 -0.3560188549710449 0.2596515944932044 0.179913972152245
Ni 4.899400114937809 0.5299060218356735 10.559564510130455 0.3450847245570444 -0.8307496566637177 -0.7513092538482029
Ni 8.472830558277721 7.345127209140242 4.585375098237124 0.7028033358280155 0.06278479653670478 -0.08809525027703537
Ni 7.616925172102303 6.345831487406969 6.616402104737512 -0.2206207058429878 0.11900968046770473 1.6326083413246981
Ni 2.445554356669108 5.446741717900343 2.601559077884237 0.7525392696005619 -0.8306007897906791 -1.9436251776637559
Ni 2.4316080737154087 5.5744402122730055 11.202709076509677 0.06948329160280291 0.31952024582437877 0.01103491765792293
Ni 1.3558078076174804 3.6077324808785747 3.6917001958277758 0.13005205432479539 -0.8727918213364324 0.2856315634967339
Ni 1.4855609694917957 1.1884705950713303 2.540962751193886 1.9057469145607435 -0.9098558160682653 -0.3899677011126639
Ni 1.3192147248999833 3.3669272679746376 7.974904617874859 0.5695515436189997 1.1756415484836655 0.8246276029263798
Ni 3.9050683244253444 3.0861378618305624 7.077796784276908 0.537774508317719 -0.2084989828787893 0.2537439707595179
Ni 4.29359140266938 6.949358245945685 5.757430172773122 0.11455293024793176 1.115546382963982 0.07551509961917963
Ni 8.536416153439504 7.585796050307344 0.24176890651090763 -0.18755991873327696 -0.6972543809853283 0.0825583796192062
P 0.619028588437252 5.876730895591461 8.025374888532726 0.44467486284755675 -2.2594929143372116 -1.0538643325731527
P 8.713163015827295 1.9036948975273564 8.37662029794035 0.26083558749897656 0.6615836670565961 -1.4994305968867272
P 2.3198741640016096 3.6477166741187124 10.294796055629801 -1.1349281299247034 -0.9845638464051172 -0.6885565961010142
P 4.526232494261438 6.224869756833976 3.477283823146399 -1.3032194302363556 0.6867763642721398 -0.22774883224733677
P 6.798403824718028 4.132081809010662 10.39999594085936 1.2686810301398537 0.11675122345083118 -0.595427125834181
P 6.7031527122630665 8.003420857192053 10.36830042178408 -1.3868034229065986 1.152988329860524 -0.9769168713828207
P 2.628683416340797 8.781139780915177 5.357337316375971 -0.38487048909541455 0.18811656256769538 0.5507341538021805
P 6.970786791527087 4.331702757390311 1.5582425595004994 3.1288970501483337 -0.11697285254333402 -1.3458480635401597
Ni 3.1081846259522847 1.6207144521447931 0.12958860664520086 -1.2847776785914002 0.52423225085691 0.27950153933959604
Ni 1.4554682728967858 1.1338582601933165 7.106937606148808 0.22827899371919397 0.10308812414144182 -0.5247809242715284
Ni 7.08939383677739 0.6678133044278333 9.197003574104887 -0.89496912876442 0.13685879283398367 -0.6665656936522196
Ni 3.1349316692702662 1.8079892126162773 9.129527747863646 -0.6177134480362071 0.4773391858497973 -0.416382957881399
Ni 6.694924950807331 2.2313143581007053 2.028458672123321 0.3129330795251643 0.2983726652124861 0.6576012853700804
Ni 4.43777269430088 6.993642694620699 10.351826715974363 -0.04946725349219223 0.837446351957603 -0.6678227059877725
Ni 7.259785776228653 6.171230207012054 11.161472990725391 -1.148063895975713 -0.29066372660400264 2.9792321066886176
Ni 8.058696867855998 4.125608697235543 8.122617028345484 -0.6303355076755918 -0.24014926279421864 -0.28137381666164446
Ni 3.2854133351435615 8.623548601828197 12.174384975809222 0.37118245008536077 -0.48555231778820895 0.21732352314895476
Ni -0.15268361485073081 5.412994258758144 9.982831161300243 2.000366853330174 -1.2808531467260134 0.2258549576587336
Ni 8.932330579820018 2.548187725811425 5.949546129902263 -0.14176985698235584 0.4944354792104517 -0.103808290136918
Ni 3.922169340224502 2.5409145665135378 11.344393856212179 0.005143234763836303 1.2984564616300733 -0.20537354987593018
Ni 1.3988740021100976 3.635779601421054 12.34120488490031 -0.9240465057463506 0.2284738833388194 0.22910046117922478
Ni 3.1186307009938754 8.773012025399789 7.733382089635168 1.4408549533353636 -0.9483004931977087 0.10029667743923372
Ni 5.920560771810356 8.128628294505187 3.4665059102118416 0.41218588908091597 0.17370810045184923 0.42358718893932207
Ni 3.4558870976369254 8.229716117296704 3.3203099534548266 -0.5094733473801807 1.4617893894951857 0.6124791962204613
Ni 3.84883771160355 4.66922280605791 9.157218483600529 -0.23916890115882034 0.320218557442984 -0.48626348492262067
Ni 4.948912146858179 4.693796993035647 11.325232718041894 0.4775821550985388 0.5613350692464785 0.3384785320944364
Ni 8.104663234618648 9.236003163405071 2.35043052450186 1.1466089086967415 0.1105414950956935 1.0046927559445085
Ni 4.976977450298903 0.2255479429867937 1.4143749228637206 0.16370188116875678 0.857005247926137 -0.09379872841971587
Ni 6.044777241169155 5.752187134064258 0.2405370151548279 0.04278341371411342 1.2192142908682937 0.05663394644396053
Ni 8.213506063511536 8.997970842483454 11.496071956789976 0.5386839075058658 -0.2489794594913389 -0.42902352946354505
Ni 0.45465700659481567 5.143905547634546 5.8645856287089 0.03562160585835156 -0.9924771877149229 -0.480679820187256
Ni 7.6949025312247805 6.319439010604759 2.5776076551713807 -1.1115804563376985 -0.7510009785791647 -0.27223328781295697
P 8.936058073960185 1.9972095431999468 3.6187822281418907 -1.1966811427627844 -0.6621485384211305 -0.07337079958266719
P 1.8949125576751573 3.5869312452866158 1.1271369518571561 0.7913526429233338 0.052146600096568255 1.505720286550181
P 4.807431015616019 1.1527502914695795 7.867390049698748 0.45457695245261714 0.3269335075693144 -0.009071109063332765
P 8.746719554537925 1.8457369093723144 12.317400743663237 0.5706797436861719 0.8656834924264253 0.68912403856871
P 6.705661952220837 7.869258342493392 1.387975172902213 -0.7981760936030705 -0.1803502883587152 -0.8960345939144568
P 2.22115920943103 3.4754064389026316 5.921802663760471 -1.8750440861602482 -0.07001448151592457 -0.631801550698157
P 7.210082823876713 4.164792842952912 5.983623608647603 -0.19317675069942214 1.0429571987423456 0.545638484446828
P 2.5775440150275246 9.050346680877366 10.047273170969353 1.2416605356869521 -1.0258470214246203 0.41321227346290124
