# total energy = -381164.02124081465 ev
CRYSTAL
PRIMVEC
9.30348724329166 0.00000000000000 0.00000000000000
0.00000000000000 9.30348724329166 0.00000000000000
0.00000000000000 0.00000000000000 13.61659399146436
PRIMCOORD
 96 1
Ni 5.6278934205649485 7.695416696660533 6.8927062342340815 -0.7677445165860907 -0.5815933052748822 0.9541322693881374
Ni 6.437361936133202 1.5281163885562856 0.6786754399982843 0.23239198744630302 1.45572364291708 1.0496132706062826
Ni 5.1796421011470395 4.805427933301902 7.113567300265368 -0.08287076865330244 -0.5835758829225498 0.35954949383212276
Ni 8.755269964714085 1.4183073284892553 2.0537773736767893 0.026463850618483456 -1.4786614826601758 -1.0594264000419626
Ni 4.788244392342502 3.4671305952029257 13.521781410829647 -0.5959683430496316 -2.918921739834334 0.5430660957339616
Ni 5.725282325146976 0.23158333509230886 5.254098839994998 -2.472490813527619 2.302072439570636 -0.05069932612708043
Ni 2.227171117385954 7.607554563027302 4.227380872147727 0.017632882590414792 -0.6034183715697736 -0.03764017895027711
Ni 0.8623393032878945 3.9335609287164863 0.5985919520586936 0.17286195040147004 0.1931546392122351 -0.5965612394386242
Ni 5.822113020493723 4.511809875544088 1.6410579327819679 0.8556487338982426 0.7029300912138668 0.6634762560936187
Ni 4.331154760032644 2.776542039775019 8.73263458022344 0.40225963110613944 0.9525749522033466 -0.9807850960889753
Ni 4.3112918147438934 2.5669809893632713 2.0723638805141964 -0.334974632706236 -1.3923552059627633 1.1106489456623645
Ni 6.522088794561605 3.9634344262912755 10.412827632142234 -0.9957823408287558 -0.3737520105847499 -1.4993370087316564
Ni -0.12191196663664802 3.5646311416320096 2.6652444217472397 0.04636598885904918 1.242346763120699 2.105543484569529
Ni 1.0819397467961709 7.457117174119068 10.45200182592553 0.5357320239663935 -0.4141949490911448 -0.40346136472372446
Ni 6.754955080546335 6.841747313145278 13.542451898812102 1.5347475270204665 1.2305551698024095 1.0820742193484654
Ni 3.0308528638817944 3.8611332804387746 6.017499277724235 0.0968107757731623 0.38444291463969277 0.15671593676922688
Ni 9.211205964604362 8.204540733185837 12.445185587112565 -0.4916543169208888 -0.3890444179674461 -0.38211709471999356
Ni 7.8135337708459955 8.606256009355818 1.046699067424155 0.6068178841696259 0.3709726480673998 0.16639871127462955
Ni 2.9251001242578063 4.91473460505718 8.170174581615761 -0.11239037537897417 -0.5512604586192957 -1.2780917819307924
Ni 4.124673163902196 1.9110665309335708 6.411427535062046 -0.23318285877871453 -0.6332706790445158 0.28019316608998196
Ni 1.8100864802712353 2.1939111504504605 2.466346098078085 0.11409758787806802 3.1673877500243646 -0.42461922974826233
Ni 8.421944623353282 3.5609469606791544 12.152020609184055 -1.3190353142226896 2.453658768422781 1.8595529325031845
Ni 8.16579170877008 5.439674569915446 10.284436716981425 1.3208340579943252 0.6668909382021224 -1.093320481686246
Ni 1.5908870170636358 0.18033321485243348 2.5538333011749526 1.093170072151311 -3.769595903336121 -1.50181529506882
P 2.1680753663442043 1.223771409993822 6.761565208240787 -0.14306697852722458 -0.4744384672632345 -0.746898783485333
Ni 5.831677005391538 6.803779781658915 11.206375089971548 -0.5439217588660374 -0.5789977766335642 1.0373964168251166
P 2.937604011128101 3.2589836748538903 3.8647569887244737 1.3284108419003187 1.3824340901943093 0.3651853519616614
Ni 3.415263653758065 4.740108149286769 1.6480160108997457 -0.42571374836402165 0.6345305195935459 1.245038193909933
P 1.9500481425306948 2.538903064828636 9.78001001117101 -0.2805916870799813 0.9313710644322217 -0.12497669668441702
P 8.159483944411404 6.223893421074488 12.124188296712942 0.4136979548500682 0.28573852138824335 1.5426755236182916
P 8.319550442628236 0.8914517756052504 10.881007021259677 -0.4469893699133463 -0.3590378443030268 -0.1607692809029941
Ni 2.7608191463146037 8.48695739228901 8.84435922831621 -4.317792635428428 0.6446395830030898 -0.49696441627989246
Ni 4.675048862914767 6.270029414370463 13.505455651395128 -2.9573443054765907 -0.08766150517372644 0.02044644077980995
Ni 8.022052830685219 1.694602292978848 8.667955806480155 -1.573238226896497 -0.8321786758007604 0.45048632732301125
Ni 6.2529389082836095 6.495890174452416 9.027393245518677 0.529284725679153 0.11398831599371337 -1.6492343799171534
Ni 9.39577784825003 7.061504985588159 5.641654208563351 -1.0940265066143353 0.03543211555536478 -0.8603957616649246
Ni 3.0937444377234553 7.434881839580374 1.5822617540298185 0.26065226784357687 0.04271270837717805 0.45405578984182443
Ni 6.4428882075624845 0.0558683713131003 12.628424281034636 1.271346492787159 -1.334747582751624 -2.165933555621812
Ni 1.0863495997548909 5.83043033809941 12.078408626978822 -0.32355147847095894 -1.7630324342769312 0.0670649119692974
Ni 3.5680083075054596 1.111255035135679 12.503913850407756 1.5402759130378634 0.4433929108113395 1.0161639898089017
Ni 0.6307299184312725 -0.004810833259396874 4.439281749604027 -1.8564465256637188 1.351525059320279 2.7527564847267496
Ni 4.507800072537321 5.25917761368733 9.58632722245683 -0.29574628333323255 -0.13236630428026883 2.099262536656823
Ni 3.5877410039726434 1.2650975003791263 10.27456478665548 0.17918069353064625 -1.5577807546908462 -2.108171152000363
Ni 1.037366739358982 8.695495059102743 6.895824763161851 -0.6719243868609718 0.7238061633319276 0.9916271810098019
Ni 1.3161829488945938 6.002172712820868 2.5434161864958833 0.9741624485661352 -2.216552149109628 1.0387896976282174
Ni 1.0289470833934933 9.219625620569852 0.32425444128748643 1.3445545415397167 1.5061049235831092 1.6840291189988355
Ni 9.31111611423241 7.704115457243661 2.8865957815568475 -0.004373703587663436 0.7946323421158703 -0.42631075851807226
Ni 9.110188699993008 2.9215927095627903 10.205692000857782 0.6599903544275473 0.16936087922674703 -1.4616644338815474
Ni 3.216169026507836 0.6924101782323737 4.367862599344723 -0.62241393883567 0.9062141055506199 0.04494005504580002
Ni 1.6455170942231376 0.6439697111434128 11.416846951785528 -1.5588277078981219 -2.9373588634935994 -0.8121281849077885
Ni 6.300609976976609 2.454213420349252 5.851867433431652 -0.5837234642440077 0.05251323940736763 -0.8023855036987277
Ni 1.052038338759618 2.7397746581445097 4.902817768232656 0.04131531380901917 -1.5229546481505967 0.5272918636188403
Ni 0.642301595878648 2.470029348682214 7.5287921702778755 0.3232529733939336 0.4607578844523484 0.4939868217088073
Ni 5.813777095913526 0.7177203153087404 7.598154319505169 0.02225932561883263 -0.04244454231745593 1.200401786147481
Ni 7.307572919987284 8.210820587082749 5.542784188810378 2.5693609817838077 -1.905345565357267 -0.747946765133873
Ni 2.914605790634523 4.388259564801891 13.123781947469185 -1.7848245904513582 0.8382590776668853 -2.153755525498381
P 8.971492312000185 6.496457687174951 7.958354644498576 0.1062886333566105 -0.04693831642275142 0.2409787006740495
Ni 8.652615286345906 1.4798219862172233 12.994492315439574 -0.5475562702948311 -1.3904446192036117 0.4789463824359171
P 7.958305336016127 3.3915769752076406 0.8720912186282539 -0.8154315382494085 -0.826229657306177 -0.38224770676058684
Ni 4.757124227475585 9.04372458704555 0.3695866132846576 -0.8344268484049888 -0.9176722267888905 1.6334650328980382
P 2.5706837772906357 1.8355594283745589 0.5336359343952184 -0.7401861473518478 0.6464079877574223 -0.2787633756219909
P 4.690855487760474 0.3919168433933491 2.914005715706596 1.6250675528629628 0.4043458242112068 -1.2011049828620928
P 5.374782746314028 6.703823114594593 1.9275653352310265 0.11723819038957874 -0.07280207156339075 0.892605770738566
Ni 4.804385942729377 7.798015554105183 4.060413977434097 -0.2541337499987688 -0.9929713537425221 -0.9720266331700549
Ni 6.741799949568212 2.564878401243713 2.9282484243447913 -0.09347219831823256 0.5368964765881399 0.48927630360701546
Ni 2.0294347992749096 6.399022265156651 6.562477093431637 2.2648354095960475 0.3827935519617279 0.5844963378542902
Ni 8.06856096347138 0.7659561056780982 6.587163896861941 0.8670248369456681 0.5461429348870723 -1.2057298832286139
Ni 1.2840300969424074 2.6677191493569854 12.043006066928575 1.59000387639061 2.106279334294289 0.8971584231062549
Ni 8.145798514659765 5.455667264506246 1.6075886373832435 0.2662048222306899 0.5611628053346723 0.11377337176942985
Ni 8.231176617195995 3.5240214197653157 5.840579512345544 -1.5159141963640472 -1.9362013743958593 -1.3290592741175948
Ni 3.3101807652164137 8.593342769046318 6.307642482992423 1.1493797865736595 -0.2414260726241132 0.36802410696203713
Ni 0.7098895700864731 6.705683812045531 0.5934592181402847 -0.5188064518556484 0.8918431815409285 -0.741658103911684
Ni 5.943421190807542 2.304464489497865 11.789097153471202 0.43890402180205057 -1.2454310584729777 0.8676701838391508
Ni 7.078632705624031 0.15641301877191655 3.3748455837288174 0.03280290546263383 -0.03664413358559496 -0.5614034605905687
Ni 0.27792400510788773 4.820601921014291 6.6884984103886795 2.63619243758606 1.5227947255339644 1.4466432778823666
Ni 7.265176928567691 7.05338304121482 3.3290798692255783 -2.2571071877138547 -0.7618044969525719 -0.13239818595946876
Ni 1.031459024952258 4.84181387195497 9.241500910151789 -1.3305451146345022 0.16078882128701988 0.3084881563799332
Ni 6.100091916176413 4.6815706074803005 4.175487880938553 0.32826071102117016 0.4117763123473231 0.4768717592950754
Ni 7.8337874625994415 7.982987487702802 10.684437360450367 -0.5437991172452441 0.07231047663895288 -0.11891454965073714
Ni 7.208379138877849 5.798156540812912 6.419434116193427 0.6910089142962487 0.7966144055429055 -0.37687332982255095
Ni 0.43482452661194976 9.246791803353528 9.301563293519301 -0.5562910790646677 1.5077961952426033 -0.25244273544959106
Ni 2.4348528633722557 7.7108697889905615 12.696030862216972 0.6818588723658644 0.12253543423277607 -0.2593785433374759
Ni 4.120923858538559 8.471988081296224 10.9622022759262 -0.6123303293474228 -1.290531550356042 1.3419986078870823
Ni 7.780097037652663 4.308975246417478 8.245133708775471 1.6913814455988485 0.8090672865942776 0.15153233568575838
Ni 7.672623152886558 8.23954975572521 8.48726347701969 0.4214763132439064 0.8434938437032634 -2.574288758102728
Ni 5.9700570748177 0.39658905469265116 10.151347540757 0.8393430547596835 -0.04971099407188213 -0.43992706374992624
Ni 3.606161908736917 5.5412686507365905 4.0607275049545795 0.659461992727903 -0.8576539372537294 -2.170348911080688
Ni 8.619876314696675 5.310774754001804 4.367550002172965 -1.3648024931554752 -0.07732232803124747 -1.2099349224488969
P 8.435350948487281 1.8245068855159947 4.267590544062469 -0.5195644130675955 -0.20456570926265413 0.3848501773804404
Ni 1.521724892812318 4.995572605813125 4.6477524313095255 -0.6197016821108295 0.8122474840944721 -0.3945010702066432
P 4.611794453070173 8.156134688999717 8.886461229538554 5.5043922255854945 -0.44570716076681305 -0.3970806580083613
Ni 3.9541030285748273 3.2815539349337524 11.01214804725297 -0.4093594753757144 2.1589874633212816 1.1661436362955593
P 4.400288973822197 6.322342923203549 5.743057567895774 -0.2499521078172534 0.23016566921894552 1.6529398537931985
P 3.497906531041419 5.958892890112081 11.619366192694205 -0.05440711399597082 0.16098602489949046 -0.49018621701579446
P 6.348169403822551 2.9534106359738086 7.973128582259014 -2.07344351871119 -1.571294730016881 -0.1501123154097802
Ni 6.1791808613284775 4.732349040916363 12.624761498102467 2.3771360534746933 0.274332850654463 -1.1946342875360845
