# total energy = -340870.0316984944 ev
CRYSTAL
PRIMVEC
9.26215515537183 0.00000000000000 0.00000000000000
0.00000000000000 9.26215515537183 0.00000000000000
0.00000000000000 0.00000000000000 13.55610030287829
PRIMCOORD
 96 1
Ni 0.8367079171935012 6.599971078994267 2.022135982924746 0.0014195060553459423 -0.8906003102727629 -0.3349790035816102
Ni 5.048430389428487 0.3077378898064036 7.833934691136335 -0.666058414998498 -0.2938979172705841 0.933932654511811
Ni 4.6932545186190096 6.615105440819251 7.122293657494099 -0.7195214199136447 0.39401513170916014 0.11216231852856812
Ni 4.247596652296511 2.998159683444027 4.335091602712494 -0.7956762099993522 1.620257533068829 -0.024084294642713357
Ni 3.506948400561566 6.022651674518674 2.522654521539513 -1.1311149268262004 -1.5553448915558439 1.1697272398817595
Ni 3.054881122744031 8.18799539844292 8.956637588476417 -0.8314166008237551 -0.9707652499591282 0.9906303643141714
Ni 7.287815783137879 3.6648681491025625 1.7567761586593673 1.524235314635233 -0.8958782708422507 -0.23446635347682845
Ni 4.668228174891281 0.3173770148683751 3.842802489117005 -1.48597190027866 -0.013252237024215886 -1.1671697635672287
Ni 2.330311972678715 3.2630017532259195 2.2707146341457505 -0.27929482264542865 0.0027119996145243616 1.701657887824192
Ni 0.6617495076896881 1.381904314520128 12.94377131803562 0.07597224176125626 -0.13556295684069558 -1.0340436983027999
Ni 5.783123075280039 9.094112055320673 1.0170031806040194 1.5105228501451469 0.04478296064264546 -0.7157179870071545
Ni 4.093742989949619 2.8143244242626957 8.121080030976099 0.4841973464222113 -1.3386469178060298 2.465846311627908
Ni 0.3685439396111921 3.5504990549685904 0.5359120128141637 1.4439562179685068 -1.1975609742645763 0.9038363493470628
Ni 2.53720999865577 8.363485455663229 2.263462366514806 0.6838010836938998 0.1132396107531469 0.912092675818584
Ni 3.4566641592226177 2.7450342401667895 13.086449263749692 -0.009014801904100603 0.8800675290622392 1.0852847558659633
Ni 3.285166090953697 2.165056597108717 6.157587384584334 -0.9669085952171993 -1.1399903749389593 0.12644993879583383
Ni 5.950277192694665 7.145826941781077 3.5028832405829946 -0.5763233151251945 -0.06800593572632804 0.5918208965401615
Ni 9.030527358913991 0.3055742503190618 10.84946276827327 -1.6101289292752594 -3.3760615679181214 0.7065900565639572
Ni 5.344939768316635 8.58072004699933 5.692396558866052 2.598712438362731 0.09393165445315436 1.5560102930539845
Ni 7.771939380585936 0.15863108207108176 6.394968089999704 -0.15251115465925993 -1.2647935221599895 -1.7953285753064756
Ni 6.776479973301938 1.7757682081833155 7.336480073507923 -2.5679638443259645 1.889198009063127 1.1741474804366423
Ni 7.275311873429354 9.186594676387058 9.119486656089174 -1.5412678446374874 1.5596874847952558 0.5761129988866014
Ni 6.877205912620608 7.508727450143821 7.514824727003911 0.4394794346895463 -0.8026971214018757 1.0470748204551452
Ni 6.06823074094508 4.238251137558806 13.100683344075664 -1.2157461298140353 2.092780528476905 0.015761119488998665
P 2.9212652698142705 0.7379233256340204 12.921146651187462 -0.0006923980813342914 -1.6187374968798767 0.2696984372062452
P 9.018773683787979 7.735854023382668 6.4902543654874 -0.6274712987539194 -2.4507145981927922 -0.8501820543567163
P 6.8924236338436495 5.257440186822982 8.221395656813224 0.5785149234598747 0.7571358878323089 -0.09900546943163593
P 5.018096830691141 5.3367334986857085 11.311413692053742 -1.8710781595339645 1.1926414254757718 0.9455113604883459
P 3.314295569496889 8.563140476164678 6.942946838790362 -0.2195940643506863 0.3206232490805704 -1.8505772113671355
P 7.737159987285557 5.652702665942456 2.8212275086373353 0.7280245722886495 -0.252306724092359 0.5266208056937446
P 2.2773231819805893 0.24171817276092727 4.1672807984842875 0.5600731718149193 0.4184997471140858 0.0421195548778694
P 5.781159498348034 2.452433490831973 0.45232198708937527 -0.6687920118795773 -1.9842624915691438 3.382301378180246
Ni 2.2739332331262783 7.514340316279648 -0.03870562094885464 0.2177706379887024 0.43479874138442537 -0.42545509538599635
Ni 6.146236613215596 4.3815088941971405 3.6288865280390987 -0.4060126703906685 1.429910281398402 1.9813733429468072
Ni 4.743270157453108 3.1130104096556614 11.12637250024719 -0.7107619285534598 0.5885180574191735 -1.8586162796215282
Ni 0.92886451039193 0.17187689042231225 6.0487866982405585 1.5043437179176284 -0.6643979965769397 -0.17899634543398207
Ni 5.132215846630943 7.593642890297713 9.669783722361345 0.5851568542564245 -0.7733947728933326 0.30248051673327264
Ni 1.2716754038229783 5.3772739526073465 12.657724469819138 0.27319385195401336 -0.17033378466297763 0.43281924906055136
Ni 4.059686044765734 1.1546851197278856 1.6079296174890898 -0.6328934982107552 0.8898644605480028 -0.5776374059509278
Ni 5.773888706406409 2.1373071797111316 3.0486041600703517 2.329364699627685 -1.1538568485084062 -1.361526650617681
Ni 7.823511061517094 1.950424671423056 4.500368281239774 0.051215603641866635 -0.16164936951510225 -0.3838842139227453
Ni 7.658283472413117 2.576370391431801 13.028876632373976 1.9896620653181607 -0.3957375137169055 1.3201660853930233
Ni 0.1463744719101257 9.138079506717983 3.422427528225143 0.40735787156465325 0.42651053323370414 0.20886202264516285
Ni 0.7785906710838124 2.1589620988952287 10.625258405044082 1.3651747888932295 3.594296032917119 0.3650367421989391
Ni 5.6432552674960155 1.3951491966558245 12.325301083601504 0.15085947798844987 -2.680935031909073 -0.05509514120193092
Ni 7.465176795736797 2.0941455358283725 10.897193433385079 0.3126888247248421 -0.3436639329501178 -1.5972052792350557
Ni 0.07597653403559781 8.243818408674978 8.57661969083047 1.2214506363979802 -0.18417711830397313 0.22333270545751213
Ni 2.1423921029925985 0.0757375704278349 10.95267837494724 0.5281416132136453 -0.11721736445397234 0.3123530386519782
Ni 7.849537718021506 0.8378258593429967 1.7874663103772908 0.2223376885340945 1.476327692320677 1.2337590214516883
Ni 8.940434373925237 2.203429706680878 6.789193207721138 3.058831660789816 -1.2073195963132368 0.28670525617688686
Ni 7.578036158550407 3.7823493274306568 6.343278779695731 -0.8215137398877465 2.1248617252821664 -1.652117100781587
Ni 9.060999849981433 5.566796175167222 7.03398919470143 -0.14880156701815664 -0.5078694932281704 -0.29246427014785115
Ni 1.1714218344266294 2.183479024079277 4.87612929229162 0.34296330733866737 0.5178289184337276 -1.5163525694530466
Ni 4.501444543690241 0.5039862895739313 10.496177303368613 0.07894726522918016 0.31334008515559586 -1.1484624169657123
Ni 9.208184760483778 5.329722047093594 9.371697924634388 0.5331634919082688 0.2522329334316301 1.3035791275686195
Ni 4.636208903882118 8.04146810096969 12.307352878984336 -0.15808093543755358 0.7503533176928369 0.39947204105867334
P 6.584318036470262 8.624233652784996 11.255792596808089 0.0877851752357843 -0.1812828274753136 0.6906312192418558
P 5.729161758271251 1.6829706738353831 5.447532958151781 -0.6790489137208952 -0.060593445312340816 -0.5755802663115829
P 0.5286819743560346 8.432803426225153 0.7745097654411636 -0.42989513343522096 1.128520940846779 1.260433702529397
P 1.8296369036387077 6.262680430145649 4.013378046714097 0.00020594536321900015 -0.07214104094062414 -0.06535461414641003
P 2.6311930888871773 6.005275871101494 8.89533693957649 -0.14598518061528407 -0.4121923168388192 0.9266407488360879
P 0.8409360911060505 7.570987658336935 10.619998427026697 0.549719339384421 -0.9160506320250675 -1.0588527869266797
P 2.688164606381352 4.538585786602229 0.711366873844182 -1.4383033905581035 -0.06615345589862155 -0.4055899810309531
P 5.8898601534141415 2.029078894567346 9.45917620317076 -0.29418999458970624 -0.1039108771530533 -1.0288338719670862
Ni 4.082609879231363 5.931271249937707 0.2072296111382143 1.149651295067491 0.6461012551502808 -2.1475180292291016
Ni 7.910575321709786 3.3225759363705345 8.664801893172653 0.38790053417099 0.523182212325841 1.336609318550711
Ni 3.612360990482099 7.5396630489782455 4.7843542998931845 -1.9193310810030815 -1.378474077105297 -0.3347213790448494
Ni 9.01952391837049 6.872861961766313 4.251572895583822 0.34772164795925925 0.10091682752173588 0.2504367607631558
Ni 6.117255329157837 5.8455592644246055 1.4068519299274698 -0.40877069275177985 0.04948910786906316 -0.2608132189014734
Ni 5.3262394766858865 4.24236353452961 6.87101786663819 1.5066268575248503 -0.37953236471195284 -0.7448655551053881
Ni 8.291481460052806 5.3680025351123595 0.21892122982345188 -0.4393922742923787 0.8464236157555487 -0.2182285514617274
Ni 7.366488530592849 6.858579718232576 10.042467845409359 0.9404426877161869 -0.3681683458493853 -0.34645949341738397
Ni 3.035995588006489 4.687752798347258 7.25166003355403 1.0563588168602325 0.6924731575466009 -0.3188934108736572
Ni 7.199047286362694 6.276101293232799 5.550938439010211 -1.251020122524981 -0.7906874985355093 -0.030239772721147917
Ni -0.0004723699223220432 4.34233923926577 3.930618836323274 -0.0480901706390075 0.0605744191489473 0.17582900344959396
Ni 4.710352457376 3.773513231236633 1.6596189277930629 -1.220558463601014 0.7442808862465118 0.3714475308212893
Ni 6.674420283614357 6.424758886434147 12.318659192007443 -0.49845179945869644 1.7284770648995653 0.4094178394174756
Ni 7.830522513109209 7.519332618007717 1.714588893518339 0.5585780753266316 1.2633223369311015 -0.2044980892495123
Ni 6.867286144251845 4.434812598176814 10.963807780803359 2.395985324970712 0.0009325391165983938 -2.325137806030531
Ni 9.14029316184416 7.45641479678549 12.44120584309079 -0.1589229717228747 -1.7900914952772524 0.0832122111531212
Ni 1.3192087850260512 3.341924578875059 8.336676147032618 -0.5716847879119187 -0.26380726853279085 1.770321511739177
Ni 2.2694596120972284 4.173906944414272 10.535842483610656 0.21675428090904603 0.15229543910402804 -0.373556349634176
Ni 1.8915636742395936 6.73430011788518 6.724639689865928 0.1071484102537445 1.3514342993786854 -0.11222839587981316
Ni 2.9471159453672278 6.4844442154428386 11.406482306890958 0.642874263572551 0.19726043385049252 -1.5883807389648903
Ni 8.008383682096468 -0.09142395671106258 13.234305680514161 -1.7199142629312185 0.9917359386735242 -0.9963055603220776
Ni 1.6974288983205736 1.1944012418242955 1.4419490151559975 -1.2565320534821456 -0.6869838522972556 0.5223918552140616
Ni 4.806901164636489 5.048069165370241 9.114674966390227 -0.29011942406475844 0.37351804019707285 0.7850390420004802
Ni 2.0332653887808667 0.9748788981193007 8.122015508665404 0.0007918997736760556 -0.2943620013911963 -0.45249487311260783
P 8.969369347206296 4.101004519735904 11.823427491660548 0.04984237744342384 -0.5193947202589506 -0.16046511939901398
P 9.131382968407417 1.3645840840349863 8.869593705025473 -0.4755445558432197 -0.32980105892509654 -0.8822797062222096
P 1.440218844538551 3.799206450148816 6.347590313006337 -1.7485165000489435 -0.500276511372261 -2.478544475920867
P 4.564677278194018 5.362926873986232 5.251755075875506 0.4447435113019631 0.4344282454188841 -1.5213029714797865
P 2.925951920416132 2.0371369697128396 9.812813629978322 -0.3288384379015111 0.7802904715719012 1.3488634533277155
P 7.142696333276276 8.911082603653892 3.7793733969200276 0.5872443329130725 0.9404596569970514 -0.43903489095296
P 0.20619780703337756 2.3996947783280174 2.7952545726338944 -0.3199799590696167 -0.039420153668835334 -0.6979362375437013
P 4.639691474289825 7.55532535365759 1.7120816280678965 -0.3742063245133491 0.578423906407965 -0.6151189478361535
