# total energy = -381170.98029740364 ev
CRYSTAL
PRIMVEC
9.23625159404422 0.00000000000000 0.00000000000000
0.00000000000000 9.23625159404422 0.00000000000000
0.00000000000000 0.00000000000000 13.51818782249748
PRIMCOORD
 96 1
Ni 3.871328671065019 6.471324256306719 7.606089202552483 -0.10143824724284467 1.1017359594434508 -1.1071483887082738
Ni 5.812973479499543 2.0695668929023103 7.886578461595305 1.2789032220884942 0.8387511868119555 0.6000538259729149
Ni 0.7105900921531216 3.6821148210717283 6.675835186176944 -0.3100161629886854 -1.3856515686903428 0.9728403873206019
Ni 2.8502980032256 6.109955912999703 4.193004223180676 -0.462204644201204 0.4353127049063664 0.7519528009694727
Ni 0.6530694881502309 7.718273637942677 13.35027846923986 -0.7909194120406572 0.10001976962876324 -1.736621034162938
Ni 7.241248952274245 2.759718083920503 4.208535903847898 -1.456073570057331 -0.7651546443717273 0.19684340091773195
Ni 8.520275835668805 2.162224968814284 8.591092023829917 -0.6823442966427151 1.1156083465501692 0.8128920596570065
Ni 7.805454616664081 4.778383994331696 7.1734807271365515 -0.6171385493693436 -0.514572616279959 -2.156440528529712
Ni 1.8920369011654634 6.367462607220778 1.3459001157535575 -0.2920433805603486 0.4190083113193881 -0.003971068832606063
Ni 7.612730991068064 6.9514153775017435 4.289199783450135 -0.5185159171984232 0.3895175009491227 0.033289101070432994
Ni 5.2388111358998675 5.551698394631329 4.252754458316456 -1.4288039357081004 0.7622606106533839 2.520250083189769
Ni 1.3362731707253428 1.8082918080340973 0.5016069692648955 -1.9187194155610117 1.3968340676697233 -0.41836502130843434
Ni 4.683952558115187 7.204747286005892 11.380435384712907 0.30085686508692056 2.174673249487655 -0.28079634689161964
Ni 1.8480631073639373 1.1190734784261027 5.853186271655201 -2.2813619464961614 0.26692190290237255 1.3956022521451512
Ni 5.818210434148875 1.370410356587649 12.866246239493037 0.7399961428282288 -0.22703972199545414 0.5697569747615864
Ni 8.532523105272002 6.373540060764447 1.248001390691618 -1.2163737360957052 0.7459783285535927 0.6107416447040642
Ni 8.459381228961503 4.592726101199062 4.571553841688195 -0.3303841851220761 1.2884096189170327 -0.1625744524325329
Ni 8.521153279569486 1.8540574346433305 1.920528890058332 1.5095196056916131 1.2808469760784262 -0.4355063089744112
Ni 7.25985999922028 8.040942087103842 11.117357383535083 0.7572050505073475 0.10899857608860583 -0.9426759479220796
Ni 4.156654955063494 7.494765585810116 0.8250835904398459 -0.2417981112515513 0.8967030807363913 -0.5470389643387804
Ni 8.063820282282666 0.5480939471230051 3.765964283846018 1.0396597589379966 -0.43784806973371043 1.0045415750786246
Ni 5.392363818519142 -0.020774177067505138 9.681063920758469 -0.002117303453318934 -1.0136152552451188 -0.12115089518042362
Ni 6.37043668023151 4.662164240623525 2.689916959808705 2.2234715019372806 -0.3281118441481317 -2.4471739320293855
Ni 3.0061597487414047 7.313827417237991 9.52557716705706 0.5042033572304929 0.6946876486994165 1.5081810893858478
P 8.647828470073147 4.183828007229864 1.710496528989922 -1.0243997474551325 -0.8596159460761067 0.563281908560204
Ni 2.367057320239707 1.301036870924288 10.808115673304663 -0.5277130103166588 0.639993085370014 -0.024571261581460908
P 3.628156639305605 1.3759243987845635 9.09022460129489 -0.0026983727677695464 -2.4553981197113903 -1.687059935405359
Ni 6.146790084325156 4.875512416011353 8.973643710149704 1.051770940379234 1.5824363484559973 1.2970444117738953
P 0.21984218387802956 0.4367149128711209 7.540485954786577 1.6439173385796138 -0.2253350805995216 -0.06620770617532469
P 2.499883854299725 4.72424108753385 7.622446604111505 0.1571298843781939 -0.868068447718834 -1.2913373340867889
P 5.770043382127248 7.139502404801527 9.131346240606623 -0.10568570966528897 -0.012788924234552168 0.39134581240711314
Ni 2.9137879966286007 4.1051259074645206 5.536103907453322 0.13252699822784916 -0.049688111253746683 -0.749252114208858
Ni 3.340622891178047 2.029481561018542 13.049471303957887 1.9181573724099548 -0.9754870809148296 0.47281867227162433
Ni 5.590850865104899 0.6650627608348101 3.798272691894272 0.9377463718309463 -0.7179551038677893 -0.6550430377246008
Ni 4.99578688416583 4.501813676836865 7.200759996196163 -0.298224569670396 -1.0989000326565526 -2.537930788298984
Ni 5.707218398838449 3.848542838402057 12.003082507388768 0.2340068973419067 -2.4830467346665945 -1.005434004985907
Ni 3.722855926818111 2.3559461095816028 6.987889335015338 -0.5259029536911136 -1.3590979865715302 -1.403517650337486
Ni 1.31451256198844 4.182202426950707 2.4831015851677414 0.7548918289931387 0.08056140379383546 0.850091037304807
Ni 0.508128686509856 2.6679836331671414 4.475493130691894 -2.4078046862031437 0.029223158531175478 -0.4549389637777262
Ni 0.4138847462005451 6.825608394647179 10.478556056835092 0.5388055206853947 -0.304994541404378 0.5550955160946698
Ni 7.474445832320648 0.04654424261794356 8.137935659510342 -0.5411807057857906 -0.6038271769724183 0.7525055881491491
Ni 2.5689063624028132 3.5820862163940292 11.64147125066504 -1.021701117577047 1.178203909894203 -1.4406400091110803
Ni 2.3517897963678482 9.041292787641934 0.6726946755204224 0.5290353286725082 -0.15588469911718317 -0.45085090975128156
Ni 7.435071691809011 1.1393655231608122 10.821511932605173 -0.31404173920831074 1.3058933775240928 -0.22075748853116817
Ni 0.13534156536691846 9.020520457824748 9.913630888446697 0.23186876795298134 0.5049443491615756 -1.5503075862422528
Ni 2.025897895403127 5.246874383534552 9.546801149576808 0.2653573866287301 -0.568278333333531 1.4196796048093292
Ni 0.4986578341334468 6.377567066455996 3.43371414728941 0.22497589748788996 -0.4368088298359187 -0.5972790914412552
Ni 8.350809091566642 4.004653962710687 11.388384102827922 -0.7721511302942186 0.28667620271116434 -1.1974133929431183
Ni 2.5604090109435806 4.281602966520549 0.35083994012399494 0.5453595197538285 -0.5541946015469552 0.47489098141962083
Ni 1.5300589652537642 1.0265908912942652 2.66200131301481 0.9163146843197316 0.3793523874906628 1.597491443016907
Ni 8.014951275140495 6.95394611043634 8.68970748201494 -0.7925368930394222 0.6541590924577508 0.31989485555497815
Ni 8.348721698708179 1.700698713307364 6.088497329689667 -0.2949865223490726 -0.36781816159881814 0.7381385207941997
Ni 3.752190261855634 3.41911255715691 9.039503725709704 0.7509598409285841 2.277014468160743 1.0974702421885616
Ni 0.8748106453543671 5.630963905743426 5.735577385708477 0.7969846443981307 2.462604921872475 -0.06324939487794913
Ni 3.567742317680782 0.4504464481042082 4.618867464063263 -0.4933237342035117 -0.4891441489045253 -0.34038371953694924
Ni 7.100968763184227 4.5758884145575625 0.2253266700698687 -0.3202321842897388 0.16411711432930445 0.0116147014207929
P 8.489916276705221 6.2977104352423865 12.224537340793734 -0.5067680326338757 0.45951964116987315 -0.10239649739105591
Ni 2.8499377894137408 8.030791446610694 2.8046727676404752 0.12685128799931056 0.5828852846134285 0.06369728104864514
P 2.413959005794034 2.4053692918189404 4.136051648650332 3.7873982216248647 0.2231180183435448 -0.5092645738034842
Ni 6.453535235751847 7.891508772691978 13.303883853897611 -1.7750675110645946 -1.0680221121307736 -0.285021954937193
P 4.213910478645863 9.11015827946806 12.670611347397074 0.6458318035389781 0.04882704880503204 0.8127323941506907
P 6.260996335187553 2.998973945007402 9.79531912375427 2.1482055422144293 -0.19035187965611736 0.9362304494070521
P 5.75675241609482 1.4262804424320996 5.744580883754628 -0.19174233224574075 1.0787484974093422 0.31353497477522135
Ni 6.539081397942508 5.792496709733111 11.281941845048822 1.1212814856755464 0.6696998684058272 -0.0042366637891668975
Ni 2.0273387506505616 6.148221703321005 12.329425137430894 1.1119298692573172 -0.6821884877911413 -1.105487198955767
Ni 8.868519465471941 7.828803860673796 6.393385994547547 -0.045434992404347556 -0.3253119128054914 -0.3413363132582057
Ni 4.929950882859956 7.700872539954424 5.429472306516704 -0.906418251141626 -0.22563101457338558 -1.0939550299464516
Ni 9.07714791629926 5.002538584075286 8.87681269577112 1.055446589458608 -1.2863162267231139 1.5973667445135844
Ni 0.3013557986261888 0.7311259739297048 12.007381982502109 1.8683713021257629 0.2283507274973938 -0.7046038793718639
Ni 4.353045372539201 5.547819168965159 13.016419377656948 0.5039033094915709 -0.7151484876569296 1.0282551166454807
Ni 1.1795801625667865 7.2696134808952255 8.051081644095087 -0.16849364613044532 -0.7015746056272368 0.10341465424292512
Ni 1.605657684486171 2.491423447846837 8.606205302300289 0.2556923527351403 -0.2090998496875818 0.1387611520630191
Ni 0.9480273353027131 8.415490561424253 4.310341563330767 0.2879401570252525 0.32476683893529873 0.8626539615714821
Ni 6.9554885644512225 8.77764398611609 2.0086676680692164 -0.22029289018992385 -0.0659991897089444 -0.44117919098947245
Ni 6.351881050794991 6.671686261964458 6.939182885901084 0.09872830451084932 0.05485988526267326 0.23662350902914733
Ni 2.7477756106196476 9.003220958603942 7.688807224507473 0.10381497500513734 0.5174548229237604 0.30252473970764676
Ni 0.11739645216024246 8.845475017764567 1.775776507950314 -0.1505388614242375 -1.675919088297191 0.9795890188983452
Ni 6.350855826868932 1.9723922899647228 2.1184894703036803 -1.234792347812209 1.7000411781563753 -1.4096890692555204
Ni 0.34320894906354116 4.771299789365141 13.287432242572411 0.3880154624822995 -1.0265864706938062 0.3470606173364926
Ni 4.767161948654558 3.276689557698912 3.681651161242105 -0.7026534405137125 -0.8428145582480517 1.0907419223257926
Ni 8.053152411700696 0.06784026790006457 13.48062045162321 -0.03639962167495667 0.2783208887679336 0.28707549503211205
Ni 4.625089926756833 0.6471841486395541 1.3677706358843353 -0.7276101104590501 -0.8358368413786378 0.41079697915318925
Ni 2.6009284466518974 8.394607396588032 11.572772011367466 -1.7971993099666275 -0.22021678553634974 0.41612893288906394
Ni 8.168725627797837 2.2470229946264686 13.041144823152997 -0.25903915772018615 1.705203439083605 0.28623423007773935
Ni 5.2942378816681845 9.112116364804317 7.291954126231736 -1.9566035922012948 -0.8379685430096601 0.6032247675017288
Ni 4.263047337084031 5.075181702800134 10.724546068953433 -0.987362749306493 0.10245203321933967 -1.2183655697147533
Ni 6.925045879223365 8.866792286425337 5.757125560658899 0.9722125239286159 -0.35308574048464997 -1.0908730485870182
Ni 3.1446111600173703 2.685643346199806 2.0327567358309806 1.178793720959402 -0.13016852529800163 -0.4549081105397908
P 2.807423323362822 7.797853181608702 5.769859580720685 -0.8370388321065391 0.29383158280902294 -0.34727813266393737
Ni 4.845540779614388 1.911257540716183 10.78485047918438 -1.389657347415626 -0.0633445256949167 1.3544512318281385
P 0.6067413738194025 2.7239091365211086 10.587944678870166 0.15483980279243656 -0.7785981714711431 0.052779348584560716
Ni 5.349747753700776 7.5152793005828915 3.0681959561447503 -0.32223430232143213 0.19528299840914756 -0.5200380102699044
P 5.123727441136791 3.367962195872968 0.4539395984540795 -0.8474559136748049 -1.0979767495113348 1.3025650844818084
P 6.42399770317943 4.4075300206457335 5.524856000271742 0.5230040348767638 -0.12751514683555457 -0.12709734257184566
P 5.916622694799002 6.2969530626123245 1.1226867000465934 0.3098883791615695 -0.2998561917365481 1.1394985229042054
Ni 3.925231435321626 5.5299285496428405 2.1876754600598427 0.5298663092142358 -1.0069540411748594 -0.3328814976226332
