# total energy = -340855.21003539686 ev
CRYSTAL
PRIMVEC
9.35831737527901 0.00000000000000 0.00000000000000
0.00000000000000 9.35831737527901 0.00000000000000
0.00000000000000 0.00000000000000 13.69684343193719
PRIMCOORD
 96 1
Ni 4.813282116266343 0.20590544324471077 0.9622568230993515 -0.9244100597333563 -2.660342809580018 -0.027772542127577977
Ni 8.516031420704735 1.7043180522506745 11.941921455036933 -0.8467720002339031 1.0755001656753735 1.9104247796523874
Ni 6.428387328533569 1.5946198554305775 1.6801370958640982 -1.7514838102073833 1.9517894586421032 2.7329664465840158
Ni 8.057632958425362 9.16857753621988 5.1373709427376335 -0.11553046366985263 0.11707029735314677 1.606380003755788
Ni 0.5071740126825757 4.106757225861391 5.751181110779843 0.6468281060139764 1.3596186349616906 2.836604015471024
Ni 2.4759393986427107 8.102777481668848 7.948374602524097 1.935935522328982 1.2201640563760727 -1.200171672414546
Ni 3.620499052616873 4.983968467725288 3.116072641929382 -1.9815782598687617 -1.158318740934502 -0.38922413807842
Ni 8.303522748687096 7.683796252370728 3.190323404018617 0.8137546647676179 0.11085928344642841 -1.646365028789158
Ni 3.67524520953528 9.151741923177791 3.745703045573399 0.5165713918775426 -1.6952918363968479 -0.24515391509766166
Ni 8.04788159167169 6.828876522605916 5.259985489263506 -0.060099793505373915 -1.2653789623498144 0.18181838826380944
Ni 3.247279995512089 5.983577143150868 12.727038430983162 0.4378002472149105 1.7306758723230966 3.156278013264448
Ni 4.193340378649271 1.7171857387058556 2.9139488947548813 2.184195330045477 2.851051558354922 1.979106401289501
Ni 3.3219032186347173 5.013550109096071 6.342022224541621 -3.753769220716509 -0.04796675768726578 -1.8283027162396515
Ni 3.6742719445233973 4.731518496950767 8.54810424617324 0.2943110935486028 -2.026655611823374 3.188181546841264
Ni 7.584045946970164 4.304741789240163 4.746243809414206 -0.4342585526102392 -0.13659191232584217 0.6170408474492147
Ni 0.38302095877253484 0.5947360454727922 0.6576772809576007 -1.234336234111397 0.8413325743858866 -1.3285332264107959
Ni 5.50302754353374 6.980630997920256 4.803893852228644 -0.580779036903703 2.1139152535729915 0.02510656525964063
Ni 2.65543192679571 8.226092030337881 0.07207214579340507 -1.2352039814283309 -1.2487315836011204 1.3805358447303322
Ni 2.6295561791240187 7.037071010292037 2.777775082116346 0.47394147302215794 0.5481365682783333 -0.6319038806039763
Ni 0.45200766731192304 5.065105079773593 10.592412777858582 2.0138535749626993 -1.8524623442049903 -0.005506017419893743
Ni 3.5408878463083453 0.8458505843512009 6.8146041527057 1.6223799787284703 -1.7885981985611776 0.09268364097866619
Ni 7.710673340006569 7.283868557343699 9.077172042464468 0.41854422719877593 2.385557187658853 0.916539398736028
Ni 6.2709523545441055 8.750401122220048 3.3503983593528126 -1.7001280814432267 0.11366127167159781 -0.6452214236484888
Ni 7.459486742084011 4.923906786511213 10.552746613633905 -0.9600206098481143 1.0115881975127612 0.582950333523409
P 5.956082406565179 3.50337971008117 2.804510859159114 0.6466607271981766 -1.7505366158027658 -1.4755121383979168
P 2.0465797953236486 5.965665323605256 7.987834883765491 -0.34033615412846546 0.1314165387724898 0.7828947419639678
P 9.085952951701485 6.925463716717862 10.974431460835227 -2.3314722328889914 2.4552677647811136 -0.9381204673409134
P 3.543143200807035 2.4713538231059555 8.704631463372776 0.5941001794926414 0.14575660954424574 -0.46754559679814317
P 7.612298707267031 1.5077091615329288 0.17828530520556782 2.6082648579378565 -0.15335704759932298 -2.9208726929131177
P 0.05442048747212315 1.5083174521653557 5.278954798677797 0.5539732295647685 0.2932785385190304 -1.0152607612683417
P 1.0982640576877762 8.895576700386757 2.2382016386872374 0.33859988816364905 -0.7233585342715477 -0.48322007011060647
P 4.729880791401926 7.509160690959722 2.139529411453682 -0.09053008497077313 0.03224291919410576 0.759629343678124
Ni 7.003558875604033 7.947214171163775 11.364764073009532 -1.8688744670144268 -1.1089134510284966 -0.47825989789185375
Ni 4.202558321309892 1.6097241797496047 10.695235418868773 -0.008725552798455941 -0.27077264410703045 -0.27434956282501133
Ni 7.39872318706329 1.2789638087882071 8.162702531448563 0.37773670626411077 -1.5298248929078686 2.348723820880587
Ni 4.394909177600651 2.5268860786878062 0.7411375632217767 1.0888187371611506 1.4299658172266856 1.0706688057250013
Ni 4.507180911711784 6.711083381215833 8.031870446394475 -1.2858997080109853 3.169861665486154 -0.7125007656214374
Ni 1.369936012446982 3.9025868146667095 8.361649129858312 0.5660977807424444 -1.074718807424659 1.004607909540186
Ni 1.475900240615721 0.8396151374529556 11.963850800251787 -0.5572848104365047 -1.1922806997022433 2.3674450514391743
Ni 3.022287328053569 2.7441674925906394 12.833627794755689 -3.112862622393291 0.029982405294703203 -1.19815644175673
Ni 7.104881378331485 6.01113738795851 13.039970271424005 0.6670012385277416 0.3669606986945293 -0.7094781767450297
Ni 1.085003321900873 8.145086434733484 4.081344714902086 -1.1656934361320181 0.8664537949335464 2.01648149950385
Ni 3.144319787235796 7.637481939449498 5.337440539238016 -0.09109444211467538 -0.6161227065103195 1.4648965676655996
Ni 0.6154562960767315 7.701773580138295 9.00282582553753 0.05214942831004567 -0.8720336030141692 1.5966388652086245
Ni 9.007885867767579 5.274029516218626 8.283385521258545 -1.9587962289772396 0.37175606320064364 -0.17824198376646078
Ni 7.448584302287439 8.814505596560405 0.999036882231099 0.2511934364235222 -0.34768950916974317 -0.4030301907235769
Ni 6.338238656807926 5.78801638398438 8.555569375980731 0.5749860843710097 -3.191613198230632 -0.8230615439908405
Ni 9.295251720843394 5.583836614472277 3.7326912410299196 0.6329937712340453 -0.1404033156521324 -0.7626940986463768
Ni 0.6409651977054825 3.0232793097002957 1.3049172304945007 0.898362213606369 -0.6986363489345193 0.07966126057706925
Ni 5.842397566523331 1.4330859384103 6.3701420967310955 -1.0846728333135771 -0.14292402519145708 -1.1989665963628513
Ni 6.803861740137044 6.61474886167428 1.6501137419109986 0.7327201779921059 0.5876868197671298 1.5834989853925567
Ni 2.3718749089106277 1.1255997028772917 1.9133809917935511 -0.05818843541527398 0.6767791438501117 -2.1863560851422217
Ni 1.8895378706659074 1.6355718524690306 9.94437362801385 -0.6108370326313479 0.26901992308198186 -1.6635505394295091
Ni 6.532667059566357 7.614975186049708 6.724040907518264 0.817905710821514 0.5372996255638295 1.8675449495697254
Ni 0.6186297015145148 6.716820029795488 6.637079678706537 -0.3020285167975185 1.0636093277750587 -0.4158204005097097
Ni 5.316984193185376 5.346416101477407 0.8429616717630448 -2.9262496409543153 -0.7457338166429545 -0.3239186320023905
P 1.6351881614547306 6.248829292158617 4.811249489722296 0.4966222024491254 -2.525279675193877 -0.6421343000827328
P 2.9014059419142417 3.101842384457565 5.110922466039718 -0.8919411405713735 -0.6414573286203662 -0.09311404364786544
P 5.3596487623120455 7.336387434715681 13.091675911012018 0.07363690875986027 -0.35580262519518074 -0.5948000337731434
P 4.849526879641556 8.845341252465731 6.031870740206841 0.7997066713149841 -1.2079009227380035 -1.3688969749398232
P 5.230831522998904 5.561591893960302 6.390632132726455 2.946827722215983 0.14942865907919428 0.0006823707790052765
P 3.356033002272569 0.5813583307181148 12.984908739208478 1.8610667980445497 2.558743354168961 0.48293210655654245
P 8.863065905662904 6.726356155248455 0.9628538837508719 -1.6722462674312941 0.6339756755313405 -0.9116393903312494
P 7.401221857814951 4.2146399091016296 7.142095663391611 1.7034918557091372 1.4900769235859692 -0.9489311848031721
Ni 1.0799123972233324 5.52735916883081 1.460398187806261 1.566396264273999 -1.0619357967273775 0.11239654602656128
Ni 9.07273900750169 0.19739498938118955 10.437528881198343 0.14463689411750574 -0.7155619210452644 -2.4361251304143914
Ni 6.547659084076321 3.722046154962452 13.478817336945438 1.9389300861809318 -1.5646818526860535 1.3125468782848686
Ni 6.318539398634721 0.4829078956074595 10.221830894603304 0.2856886419869144 0.9628827618872577 0.2846342325804711
Ni 4.928745036618361 3.6123666747771987 12.061837998650057 -0.26324496827141763 1.7035481628683693 -1.9839274768272281
Ni 8.700904981375356 8.535805545417315 12.540556175547708 1.772231070057064 0.07199243117790183 1.3961262429694214
Ni 2.999761858018936 6.891736340729153 9.963385049856539 -1.2873009592338862 -1.0913062794696946 -0.4857749753219763
Ni 7.836430409522732 2.3043640070286813 6.315956503026263 0.8573677734718783 1.806931449652727 -1.2439627014575674
Ni 0.3529171232896064 3.16079978421585 3.892108306649352 -0.39719584342998693 -1.1941267517720466 -3.0272703410437667
Ni 5.320306395870168 9.189193909500435 8.09195833089733 0.01563436410314727 -0.06453237535543081 1.6646933947847007
Ni 8.132125165104084 4.242172078957006 2.027255805679064 -1.2019799292678783 0.27223585891611823 0.5020382312583741
Ni 4.144957877577791 8.558593048339763 11.579777030769282 1.5963110495555606 -0.9670608045243474 0.07601723606657876
Ni 5.7081525031054605 1.3965697838298516 12.616559750490076 0.41528124017678797 -0.5095684781971481 -0.13531458827531537
Ni 5.006755970647736 3.6894698520166442 5.258177462337584 0.8191331554707119 -0.874788797161803 -0.40133249130617976
Ni 8.856580591689491 4.342409016863511 13.392760121596673 0.8009572558926334 -0.623325652016662 -0.9701376436774583
Ni 1.1311117518388203 9.246260929139487 6.158442919170455 0.07038729147431103 -0.3705985525574327 1.200393301507049
Ni 5.765154014522557 3.42567760052672 8.124967923939776 -1.2173219589415873 -1.6684477196208105 0.804457298626092
Ni 2.0463084041184123 2.1561844089695263 7.000291886992031 -4.0379550529056525 2.4224448047138214 -0.1656266089952954
Ni 8.14127759954275 0.7767440893488117 3.055231412874059 1.9885426070017362 0.9545588154025947 -0.49563284195266255
Ni 5.051479369607234 6.194045701970522 10.560457867189593 1.5711252943185523 -0.004847815010604555 0.8877260740487614
Ni 0.7308480932163427 6.300178379852855 12.661006143253884 0.6679582031243722 0.2609798263863247 2.08925040383646
Ni 1.8408933367066116 1.2555399402810665 4.173619596345996 0.9152906139305915 0.4804512491162177 0.22366309221373737
Ni 5.692496038058538 5.292137860430099 3.5646991491567546 1.868367188360705 1.1496857478498523 -0.9575060709563766
Ni 8.709336825372532 2.9667550724717184 9.988957588043759 0.29266430197379917 0.1836695825399353 -0.008245013617611607
P 8.69608544790305 8.527326909833027 7.447782294484378 -1.0410047030016654 -0.11293107837379261 -0.7283094505189199
P 6.465212307588943 2.9580144039996163 10.451130259739404 -0.38582976768489036 -1.0162421513450046 -0.13017752415906614
P 1.0555339803391528 2.9913206557043366 11.852070377805306 -1.5668855452055916 1.2148652698709785 -0.760535143321845
P 2.6886258786913664 3.7931693673692712 1.4569056637443891 -0.0787840001784385 -0.2052082279426595 -0.32018821842568085
P 6.286159620354774 1.5326210025101594 3.994054073317106 -0.40762423785216245 -0.312948506144132 1.4993892021258308
P 3.316531544434518 5.010349564537765 11.082773637460884 0.4482605233162861 -2.8187495037881067 -2.9081827561502758
P 0.1700322050711502 1.678461021213827 8.525243748374901 0.5631006457873334 0.09193673551031263 -0.835703144014251
P 2.3167824942476085 8.731263363092161 10.552445275812918 -1.4180672660168867 2.079895187873805 -1.5557148733007529
