# total energy = -340891.3027201171 ev
CRYSTAL
PRIMVEC
9.11991665945043 0.00000000000000 0.00000000000000
0.00000000000000 9.11991665945043 0.00000000000000
0.00000000000000 0.00000000000000 13.34791988641469
PRIMCOORD
 96 1
Ni 6.646194043382016 2.1202894427570884 11.805687531639132 -0.2035141280696882 0.6583031965331114 -1.6439949858950849
Ni 5.049323982052763 0.5694339213367822 5.722199647015199 -1.2162066143902215 -1.3824855122575352 0.35451913049706685
Ni 2.998783662519066 1.7119269309142817 4.810350243770319 -0.4246559965234687 0.35031486260773215 -0.17362171138563
Ni 3.570073486912328 4.534012206606308 4.816570026986631 -0.6039745011835599 -0.3391182225609643 -0.9451187530356173
Ni 3.642649784324952 2.8154094966387406 2.72848848218662 0.43308407268616383 0.3417816283257404 -0.3912334551989649
Ni 5.351102026961499 4.704171613131154 2.4771207770552497 0.05771072444790706 0.10648583696908114 0.3097001744101634
Ni 5.416254712148203 3.2347888679028154 0.4132690270486364 0.07177748695361831 -0.29093137844309247 0.22569683481431455
Ni 5.914028887704677 8.597163111954288 12.26222691564981 0.1125775516891158 -0.32663217427881164 0.27203736975206694
Ni 1.9871568981944494 6.638478593820432 0.1685926048290081 0.7269593642489286 0.4255967631701832 -0.6838188243057126
Ni 0.8005316995230283 0.34899914980231284 0.10828989136434973 -0.6349727493372872 -0.6449810255029086 0.9268862891879908
Ni 8.26210649086326 8.929967113610667 6.9273966441348565 -1.1051717245978774 1.1608060261327298 0.3553485683768977
Ni 9.186127334988624 2.7114698055591133 1.3548803665810694 -0.4334921067578599 0.03142993637450716 0.1257698820096737
Ni 7.168436955550462 0.6892805711933757 4.824031942862858 0.6968933981014837 0.12770540846948975 -1.5808276092079807
Ni 0.8011710056864643 7.63200232341722 2.331681816844383 1.0862396635800646 0.5642926092129056 0.6303226521597854
Ni 7.922271033400757 4.144938318667458 3.7566122639012454 0.7882562633861974 -0.0647555471098304 -0.7385961771569086
Ni 7.932594779149826 4.172316308719318 12.55976511126637 0.24666829485965902 0.30974079784011177 -0.43051528351772306
Ni 8.603501454088212 7.479070439613213 9.120794075450478 -0.7959088948354486 0.2593510325336501 0.21694171432950377
Ni 7.374565313695739 0.9460272032176795 0.40294072134119774 -0.6601998993351921 -0.4601727013728397 0.18506106357082322
Ni 2.006755599267549 6.563157201469232 8.948886380886677 1.7421064827575414 1.4063885441273778 1.2869353483643513
Ni 0.4598380578953417 5.283350165504049 1.4147325561587984 -1.7060241352126877 -0.7755789250288448 -0.5695003786660902
Ni 6.72214470998824 2.232838335238766 6.65288350231041 -0.07247528435159131 -0.004892552205610929 1.1490776819522082
Ni 3.584181998108273 4.8775503502650315 0.5321197819972809 0.48809231060124325 -1.3020932870517123 -0.5495761289383374
Ni 6.513763732408314 5.9076540659037935 4.531712163604615 -0.4145531037615119 -0.33211916553531184 0.3091810686818998
Ni 5.2552608219465125 2.955920053843603 9.612197989164441 0.20097439236696998 -0.15484905876381716 -0.6465725383597445
P 0.5336482800428145 5.909496289085165 12.118602818870098 -0.7944788472571414 -1.0198805194285403 0.8330921887539653
P 4.170966561041878 6.569039547766184 12.440301497912836 -0.2308909774207443 -0.675281733368979 0.33694615461031
P 2.5058430428345058 8.504313239629843 1.1516822376841798 0.06204071928182864 1.5291674618295277 1.5896922586874622
P 6.62247313994268 7.833251526106888 5.68515910517788 -0.1056294025060568 0.7409194259734466 0.1074641417219504
P 4.745493955877649 1.4603357878227947 12.622046846663494 -0.8023855036987277 0.28830422523289057 -1.0215777046253052
P 4.259593911915951 6.210718019072794 8.146395723248013 0.07304015571612582 1.1304955480746466 -0.28727604107869237
P 5.10562122808545 1.2073857771371284 3.4378766458071577 0.46501177463269594 0.2451048070272811 0.15904124246829382
P 0.394085282187182 5.9327338369373095 3.6575572002272736 0.3962640756443369 -0.3666387965787363 -0.6024305537352077
Ni 0.9614398625073672 0.2733904800738185 4.691580656080656 -0.12631855542429213 -0.48678747574689063 0.07912569978857341
Ni 2.381675376426756 6.825801683648943 4.71603388883417 -1.6212476648962402 0.539176273761252 -0.006026665810054137
Ni 6.631474497764526 5.988511247715848 9.284839489793193 -0.8424494615991491 -0.3301867243992894 0.4028059905279127
Ni 8.973213758789187 2.497771916520083 10.115988573793935 -0.08829913875772535 0.4984677402982964 0.5425058523551173
Ni 2.5380363489247997 5.543532270164108 6.736655409512395 0.2285456171170193 -0.25704063923291864 1.177002176276618
Ni 0.728774370633608 0.32491071371837676 9.04798066020263 0.6367876910588388 0.3150475547650058 0.41679844815226286
Ni 1.6707505068356192 1.1010201882048047 11.485804628019219 0.04068282243134284 1.6102073479216787 -1.3402492292961434
Ni 4.279721568159941 7.110981480091862 1.2577815250477111 -0.15338173018967133 1.2676543886475522 1.2499901385985699
Ni 5.8877817673285096 7.960602043456709 7.799189549076678 -0.41900034089958804 0.5125067348898658 0.5589706827793598
Ni 5.331740443723625 2.9549715825026994 4.817824927529981 0.7940692705235486 0.06530524896571333 -1.1387572738628065
Ni 1.1305413586904371 7.909183952879633 6.875820778998187 0.6908659609604811 -1.2929643281672507 0.04337348188962852
Ni 5.116182091669746 4.832680359906888 6.636292549777984 1.1754715985647046 -0.8771382712305862 1.037105367947259
Ni 0.7482016172720058 7.8286550880701995 11.29956133633266 1.1977075271447695 0.4224859854553433 -0.4077119124699623
Ni 5.069588437047844 0.6241990213572404 10.234384244897281 -1.487862946653786 -0.2932245453526434 0.012582721761017041
Ni 8.535667513380108 7.54941235742467 4.774297388915885 0.5076108402501451 -0.2531191926913254 -0.3909642606979783
Ni 7.519198073266838 6.277731167274347 7.008805580909647 0.3751920854653861 -0.8612732791738715 -0.6015365811660286
Ni 2.497799276270302 5.692177793100569 2.5806336560314707 0.27398343773484424 0.15661540663562057 0.440412488026777
Ni 2.635610338120284 5.2947227016781575 11.238200712526224 -0.2649755778092791 2.591300462169376 0.435269767483573
Ni 1.3034914597375593 3.3943965307601074 3.7469880157660933 -0.006771257285562533 0.013928180045317949 -0.24991868347615667
Ni 1.737891333871525 1.1055163071573584 2.4816989752584586 -0.4146832015814729 -0.4500042454802702 0.3215419042400979
Ni 1.1590319785845107 3.717506060922441 8.093324191766072 -0.0368891597168655 -0.07537600293815405 -0.11842038362313799
Ni 3.8537576170099754 2.707356723109617 6.793971350244879 -0.013078173340196831 0.8370110641923972 0.7129229407605205
Ni 4.602621340237266 6.886832166469411 5.699868618886956 -0.3438994459996916 1.8359944284569543 1.0863592198770646
Ni 8.681823299046696 7.369066003901845 13.674543605864326 -0.7765117212557594 0.3176736795339432 -0.9840699374878342
P 0.3610046081981382 5.917932212069165 7.915796804507416 -0.550741095780716 -1.1551763386507783 -1.2521071849415726
P 8.732694194619404 2.0600888723599122 7.785201420781694 -0.16685353942386105 -1.3549528540549052 0.5625715127567408
P 2.001064771222126 3.4797589514414544 10.426033823226993 -0.3821798296371289 -2.126154475951661 -1.752612010274556
P 4.306114607203938 6.349614351014772 3.6536857955713726 0.5842538828261808 0.03410568343445739 -1.0061102051173254
P 6.972805621572302 3.940989620622912 10.397081735545903 0.5720807377987567 0.9498572961618673 0.13405114818185945
P 6.512140387228691 8.121814811660146 10.044136397770425 1.614222896838975 -0.3262287681928059 0.2982927039041701
P 2.85444274028363 8.762653121108531 5.789220091150143 -0.22537493269852152 0.08290033633965724 -0.5380655571955765
P 7.238176958857113 4.180952869871587 1.3396236578676264 0.11205458930611024 0.711234497314504 0.5845192206724256
Ni 2.6774251563707088 1.913203493354167 0.46107836657190826 0.9853994549325351 0.2887410556599931 -0.6832745217664683
Ni 1.61346830979507 1.3012206004694338 6.963209645179042 0.003991637657896352 0.02476666542171864 0.1751854563283241
Ni 7.05460215480852 1.2060451493764277 8.947738183369179 -0.006349596367111645 -0.4898882261594015 -0.20948217272766503
Ni 2.9902018208672336 1.86129292727316 9.084367304009728 -0.11307300326829559 -0.5395416275204709 0.41904867763902026
Ni 6.930343289233375 2.25219991847664 2.507740897507987 -1.251056117969239 -0.12560404585577079 -0.21873531589481682
Ni 4.556638720036908 7.101013411095632 10.348629441892498 -0.9903627124750816 1.5786953933563264 -1.1277521810015545
Ni 7.625454223198288 6.521579501054032 11.593269166918649 -0.5706854001131269 0.3028834085986461 -0.6290514987568456
Ni 7.665554497101694 4.048905595400943 8.23354473561862 0.46600936265927484 -0.29591057682523875 -0.1129436767792829
Ni 3.37931218847304 8.658467192276937 12.472776609430378 -0.10838845330843268 0.22385823894367898 -0.6878791104180153
Ni 0.4339913018640377 5.023669656264661 10.086529418742131 -1.343723303887673 0.2099969075805545 0.298490421737273
Ni 8.897801167270591 2.372564579604035 5.510849224544905 0.12990010212796338 0.6883519362893757 0.31471613956751604
Ni 3.7632606832043125 3.2964030253946084 11.657472468772774 0.14779292324798418 -2.661433985761668 1.1468824740731023
Ni 1.3755570418127732 3.6054405240279546 12.571324605733636 -0.935072424543209 0.3052287689023711 0.383145793094824
Ni 3.418710228787508 8.53442720470354 7.891770383857308 0.2757207321409252 0.06028028494729618 0.6800429022030482
Ni 6.004434622342944 7.980975937452663 3.362487766072084 -1.268507223566151 0.4677119471726784 -0.17037440809292592
Ni 3.553776195698913 8.821768421413712 3.6408850804358663 0.04769524919343399 -1.203264966627889 -1.0326966973566023
Ni 3.4470184503467927 4.386844110181639 8.922416734542068 0.16643727782204884 -0.12862586340123008 0.1344509547234394
Ni 5.088767621950929 5.011996162838153 11.173570598568691 1.896436178682779 -0.19089361109220027 -0.10789814393557548
Ni 7.956379522006339 8.947723591502395 2.4135576933562346 0.7536157904941925 0.28323143869567347 0.7133952524112488
Ni 4.726469809559135 0.5207700456150228 1.1694314196425168 0.30820122126713373 -0.3846681432766214 1.4050744533016446
Ni 5.967562798965308 5.898242311828671 0.22426787254006436 1.4731899180226433 -0.39501914749364225 -0.4650295152445088
Ni 8.114929274521854 0.2314607508724766 11.007629153535843 -0.06523660051130702 -0.04399748862687262 0.5432100775109935
Ni 0.4575936463857606 5.022967422675723 5.612199771262199 -0.9611212991114608 0.00041780426370895786 0.6894037745926578
Ni 7.670853168727321 6.399609734580492 2.2905701441745707 -0.9937336858298433 -0.6882961433507759 0.6263140452210246
P 8.753779442121036 1.6228162244530167 3.451465321748953 1.1352487464889158 0.3590663835481171 -0.2975429702223392
P 1.9769790711132118 3.818609457896096 1.6148445052310547 1.0602165000434258 -1.7394911566218816 -0.6733670328447694
P 5.019930490401483 1.2255800110323514 7.829035388598236 0.28943628195480475 0.034299801723134474 1.8453640425973123
P 8.740053967428148 2.051105754371544 12.547551718768887 1.1515158590800554 -0.32227878240612234 -1.0963428134523374
P 6.565318621736483 8.013369881711226 0.9962551446602563 -0.1275388009846384 -0.7298644537108655 0.24169526712509987
P 1.84541515222976 3.2807806080199127 6.037184243354346 0.9700088314090777 0.8123816956794911 -1.3628651669234464
P 7.165628021194707 4.178855289021511 5.816970173804972 -0.34320524814614445 0.40624612655771325 0.1318795944518374
P 2.769791673107961 8.89240217656083 10.137211532038334 -0.5089370152607364 -0.2650023172821565 -0.29176930096335557
