# total energy = -340860.4768620105 ev
CRYSTAL
PRIMVEC
9.39097132440516 0.00000000000000 0.00000000000000
0.00000000000000 9.39097132440516 0.00000000000000
0.00000000000000 0.00000000000000 13.74463578719775
PRIMCOORD
 96 1
Ni 0.3882208778258868 0.5188201774315169 2.5439812730095532 0.5474421133144701 -0.8725179988497554 0.0742028085656593
Ni 4.46559470108142 6.336501579295259 10.701834513749354 -1.5037659910372876 -0.7035764665486142 0.05669745269204429
Ni 8.95880824893244 4.153401249191382 0.771349031883275 1.9042675018017396 -0.2513621007909026 1.3189116441606317
Ni 1.711072545667562 1.9449452964156517 8.375183795437346 1.1907218398555557 0.7245098742671716 3.1810565057607088
Ni 6.556081271633512 5.113045830521521 8.854789154664001 -0.6214140368162459 -1.393418100009639 0.07073593306298141
Ni 6.77642163265192 3.958200518503549 0.7971807768030779 -2.875126339915939 -0.011333165624632094 -0.9934860885954115
Ni 5.4484068087565465 8.765034945891319 1.5626961372775545 -1.0129182291780943 -0.7693262592509137 0.47248571441223797
Ni 0.6526208591737525 4.370830409088207 3.1294472959883333 -0.6960894141429496 1.3416689924618055 -1.1206536222835604
Ni 6.077536153073394 1.6064946886032057 2.2146042217250868 0.6836298482233581 0.3117094915307083 -0.0498302932585658
Ni 8.197688802151553 7.049398388142824 13.128175088532867 -0.5085809174728984 0.15920399329840323 -1.3479057174001368
Ni 1.544251330429485 3.389060699234035 4.936550975685566 2.850498256954613 -0.9114378158434046 1.7788192647975432
Ni 7.845733977523506 3.0416511047442003 2.863104322666095 0.44402694485091276 0.006729348304033571 -0.6497427085576101
Ni 3.5339164324611985 4.947088584648561 7.568731312610594 2.0625713518833773 1.261633636374769 0.683913440902048
Ni 8.161824682527921 4.699580143485829 4.843431042777479 0.04293973678631959 0.6402455677004523 -1.776835915818927
Ni 5.900572688766576 3.444298392773236 4.295034001047813 0.10316602856722878 -0.6809777553124917 0.5418180822594734
Ni 1.856707729517601 8.90322308945292 8.440402213337897 0.4813261955220033 -0.021199516895750586 -0.2865939274100032
Ni 9.356205983971266 2.0688403815674166 12.938856862304904 -0.01065439439005262 0.31097852690195477 -0.4906844968084516
Ni 0.318379284724834 8.892151134219546 12.501378461501828 -1.59743744985052 2.4154184939946592 3.0659248201911717
Ni 1.8171529581495096 0.170968268190629 0.6504487274981969 0.6730479589424537 1.6287866535857625 -2.1497088662328334
Ni 3.281778242418014 6.194350445819761 3.3575671376813205 -1.5285485972986064 0.35089464637060214 0.05733688604825609
Ni 0.6090843159490438 2.571407604866275 10.595973849997229 1.371260590075993 0.08166440705002709 1.5484736183573076
Ni 8.193725812237657 9.075472286137048 6.364920536824727 0.19767618123167247 0.12310570491394927 -1.0804071160586877
Ni 0.6798255641063793 6.52507228420297 7.8645703878772855 2.283635058801054 0.01601385892975307 0.6696348194958467
Ni 6.023838578837224 1.3331516852292637 6.485255504733937 0.4010398997664254 0.4940014769968266 -0.20548153620870416
P 4.595330970419071 4.07754098254574 9.925468824965597 0.8832790940210012 0.44690349506775934 0.8038474329562348
P 9.28961460605789 7.923247055128499 0.9393206411129452 -0.7686222912053536 0.765955543006468 0.7902468114536648
P 6.179493929128325 7.094672261069122 9.292528624470883 0.11480181303394422 0.26179949407414266 -0.842277454797659
P 0.2646948578485679 3.7951826466662504 8.906647976707893 0.09955928505257693 0.9669235076155348 -0.30792817011140516
P 9.331611029979568 2.080569704795989 1.3590416541714982 -0.39936534027747994 1.5093581404130845 -0.8039402497803574
P 7.185576863833398 1.6894827025110466 4.613757934421557 0.07467280622354236 -0.26337943696675287 -0.2822893864973784
P 3.6670897973165895 7.92811157829295 0.191065885998049 -0.37966734762792037 -0.06698160822687174 -0.033382946335819924
P 9.21019516126683 8.675304214547037 8.25490423425916 -1.7412582758246336 -0.39084701839382363 -0.2756137742494157
Ni 0.5293023796634884 5.5446642651959905 13.019056696815976 -2.1082516275293113 -1.2888654755075288 -3.0098164072333775
Ni 6.2344592844980875 3.0783322388761487 11.89463531471282 -0.15579676738906717 0.510707734007914 1.0960224539984413
Ni 2.2107097859021176 6.61179790471207 9.710942414316131 -0.4472073994614233 0.24616667263289216 1.5087408185440596
Ni 5.017473914991354 0.9186755296752405 4.010890441512797 0.45110802006741024 0.7027169467617962 2.3656383372477388
Ni 5.0079326880896495 5.287483123532515 13.3156245114602 -0.3123628088439911 -0.00972056972187358 0.17919252060518817
Ni 4.360443994764107 2.80443516819197 8.120289355300018 0.2583940679370195 -1.0560438567229746 1.8670335571509458
Ni 0.1736503296110295 7.008068723187702 5.669208266468727 -0.283654385165705 0.054455450735403 -1.1003329084483373
Ni 7.589285331626106 9.01111595940734 2.3992495006043413 0.7168063349753269 -0.50159420174242 -0.18736837154776118
Ni 2.1095314604700617 3.7507727431050664 11.996524536676823 0.2342663216508804 -0.43282156305339653 0.9836181946623962
Ni 7.704644023811681 3.3692363586931893 10.083229631035596 0.21965885615035072 0.5992997214157099 -0.4739458438975322
Ni 3.9329857604020946 0.43167571959976386 7.432384738532677 0.24779778047841194 0.6202156456327705 0.5104819911503531
Ni 2.4555699731413436 4.230679552512376 9.741881908558607 -0.4026702362809968 -0.3064443864770271 -0.7070060610554534
Ni 6.960766400447655 9.043092216887954 8.360848477656388 -0.900763881069326 -0.5628281088522371 -0.46475466431656737
Ni 8.724033964933795 5.811048558792212 10.086899622643065 1.4390585235565732 -1.2124273498534472 -0.12615786147671176
Ni 1.6432603414773934 -0.04073897285658081 10.850703009038622 0.30306235737867165 0.8307992789547305 -2.4353057198368893
Ni 4.6911094873191574 0.45526208326740375 13.21658075381826 -0.3303700440546891 0.994250734675578 0.5856407358713785
Ni 6.083968968454957 1.3235635034707591 9.768944809823699 -0.3987634450274229 1.230433556622881 0.31319867448172506
Ni 7.491600447539951 0.47836199461859835 -0.024291625616771763 -0.1490604771064981 -0.4788335110071366 -0.016170439112275375
Ni 2.22933208210889 0.9197141711076504 4.320640362654977 0.4332774196438925 0.5013458331770397 0.16726363037808611
Ni 4.141840963447289 3.125399787332197 5.883088578288628 -2.9330885182530197 -1.1725320563204062 -1.8445790848021717
Ni 9.367785051658078 6.869645805342102 3.0428972866436657 -1.9888822497293424 -1.0122708254020825 0.5899640458370807
Ni 2.0463583961317062 2.5850902501377164 2.1361501687898277 -0.438632770418535 0.21852911342128173 0.5783830258677006
Ni 5.8529698549430105 4.147766666375415 6.786757335730676 1.9207914675986921 0.11784728472848735 0.02704671970514697
Ni 5.882185166843802 8.51216426008206 10.80721435976785 -0.6108858835914125 1.0709400571085168 1.1036660865866281
P 2.175071049591123 1.4662123584283355 12.336181884309022 -0.2985073910181375 0.2284142337454776 0.7205562889360623
P 8.032867863813145 4.2167809148996565 12.518820312608657 0.08480578089248621 0.43730505274604686 -0.8913382168800519
P 3.528873480840908 3.676978490158613 3.714473821507468 0.27870732557307487 0.031489585967848996 -0.030179866017489957
P 3.70169552677799 0.5906967940262698 9.823635009732616 -0.08610675909209686 1.840443465367243 -0.16950588944504355
P 1.5688368934498231 5.468860344378508 4.938777574995008 -0.004926490767339903 1.3230410929479732 -0.5347105246804146
P 2.33673662155259 1.4299725999503046 6.500003086157595 0.25823157421722626 0.2315630637871044 -2.555211429756303
P 7.476527938507237 5.1194598639603655 2.5181410762155267 0.4503346322364954 1.4935926500487116 0.7896783405447045
P 6.610210830552239 6.0732914340186985 5.613914227101367 1.3650243793582943 -0.37624263821708753 -0.7058050987688167
Ni 8.35768278121095 4.369111861329337 7.003688774145424 0.6551193994884911 -1.0881767327017775 2.208536220783687
Ni 2.3442587896119065 8.350451733263792 5.790243800841389 0.7604130159216839 -0.019912679763526998 0.38531349017010413
Ni 8.6437787236917 1.3011284728918486 9.436283735854659 -0.9877784966876731 -2.4375929732091697 -1.274417675513315
Ni 4.326674061753742 5.666530900534007 5.387265011523347 -0.7289208588506736 -1.3113070923404966 -2.193301149001487
Ni 6.514958208048309 5.818026050512652 11.211884463027816 2.0377018423352067 -0.59525717591522 1.4200146195512446
Ni 5.287107484678118 6.532481760605968 7.080288110237093 0.5790096037081061 2.5251413498437993 4.37792713882648
Ni 0.2097360761587572 1.8195758287603756 6.767611023322019 -1.957831293960809 0.3483780505963355 -1.0436465114998865
Ni 6.621423650356014 7.12611323318222 3.665667065155558 -0.704217956787355 -0.5947396128488531 0.018680864238954924
Ni 4.2911292351563475 3.411843195753263 1.5227685443464731 -0.19952351885305636 -1.929697254728754 -1.1651020824049225
Ni 4.13473199812781 2.188903950404323 11.320260968007272 -1.0363162963870605 -0.14606591325454843 -0.7297826926303367
Ni 6.718253956048415 6.690672673164255 1.0781530053098398 0.3454307950425535 -1.4750336560996016 2.3400689734190667
Ni 4.077803929743819 8.112174616947888 9.10747014285179 1.5094944088806326 -1.6624673336676594 -0.3590643266655881
Ni 2.6147469376924253 6.143272952593015 12.430140430959552 1.899828749304096 1.1902330731445954 -1.5501407216470853
Ni 8.003971844938592 7.9758271037728345 10.297975790414887 2.1608908509915814 0.6776252939004911 0.2185972476550558
Ni 3.659229554288315 8.645168587452972 11.649651166651642 -0.28305094725375124 -1.578840917795255 -0.16460459548868425
Ni 1.6189189437124138 4.216968734326856 7.199110192660215 -2.659823960962071 -0.6796001582386747 -0.5205774277131422
Ni 9.378903961748255 2.1178330791522537 4.24397247247238 -1.56801734481719 -1.8106232966820173 0.4313578340236765
Ni 3.55620120749835 0.781044270715283 2.256732119245804 0.11485452064875057 -0.6387869808770547 -1.01596087265916
Ni 7.9563971840291074 6.631462598739796 7.602103068435296 -3.1297863947318225 1.363606415964845 -0.3120018259601466
Ni 5.874944727925284 7.752077820150768 13.145713666644701 -1.5425760219259497 0.34733906780885987 -1.5871869757671053
Ni 5.196944768651277 8.663462199662145 5.855145743007109 0.039410897697454705 -1.5581589639658713 -0.9453491238788687
Ni 5.175176497038923 4.941566693488912 2.724749958911422 1.3875845240469975 2.288640996656078 0.2991753636194396
Ni 1.6633851931017574 7.8841054865002445 2.092483091063216 2.89484284450826 -0.16844633783227764 0.7389592169232823
Ni 1.8756023638938122 5.822956310476624 0.8391941044732033 -0.40841150964014833 2.281145716720297 4.6877630674835595
P 2.9446611525386803 4.35125023380272 0.15097395106816844 1.9051265073679253 -1.9749219308945083 -1.2878316349263754
P 0.7002189975116376 8.761898361457098 4.258458984892232 -0.441412132935885 -1.566775759100605 1.5870021134498087
P 5.863018194298153 2.0025213418234795 0.2262407083238619 -0.12148153904696497 1.3262320890814447 -1.4560524870114087
P 0.7269194072822354 7.2182762261087285 11.583580048551607 0.7943772886822706 -3.4176476188900238 -2.6854141507263494
P 8.016762347930838 0.5057047468302165 11.554648343985887 -0.9150849256776885 0.8200438402104393 -0.8458705714655561
P 4.271135857131023 8.353663445468895 3.780640727515374 -0.34453605114242597 -1.0966192070421759 -0.5070236002881074
P 2.90829931143297 7.072753733915009 7.5731985976865195 0.012321240569514263 -0.44437661488084756 -0.4972063570873696
P 7.095094854780319 2.5344541325648886 7.893558438271166 0.3548559450111953 0.6725815608289966 0.8758586331872142
