# total energy = -381166.00137729954 ev
CRYSTAL
PRIMVEC
9.32979220918772 0.00000000000000 0.00000000000000
0.00000000000000 9.32979220918772 0.00000000000000
0.00000000000000 0.00000000000000 13.65509396799301
PRIMCOORD
 96 1
Ni 6.71313996570267 8.539157550524264 4.732500668980392 1.4510519484730233 -0.6842039755592733 -1.8285608549970442
Ni 6.28102131366277 0.2252146510317543 2.1690022018413373 1.1433739466992117 0.20453691290724776 0.903457111630773
Ni 5.855293569228177 2.1860449331152227 7.806316373830335 1.4295014759957574 0.6497298530418036 0.22729503253936983
Ni 7.563541188061785 9.224636037497998 12.843954425098085 0.7163736183132823 -0.18088713469879167 -0.6047111222392682
Ni 1.9256690945037385 3.308027074427386 3.4624808500698276 -0.5595599796239266 1.4191180758789044 3.1433422790393863
Ni 3.4019034427844437 7.664722783652351 10.206513623455253 -0.7659581141096292 3.3088125649624756 0.6233153676040168
Ni 9.110887211915685 2.8424704474131586 13.328354433266234 -0.7498727785119924 -0.024502356016738447 -0.2575345481502016
Ni 8.604083573918894 0.775555763977681 1.4193925897619841 -1.0457836124475473 -1.5489017070336615 -1.2652630055972403
Ni 1.5531398247632358 6.4059379004181505 13.852956515698999 2.2763498379935507 0.267346649144617 -1.1733545522217017
Ni 8.290341324355078 5.807562352719063 10.040167161791668 -0.019744786727095027 0.27845458613232044 0.16131846853824475
Ni 3.066926586345189 0.8080103788620837 1.676394775541237 -0.1502480696566961 -0.6408364072069157 -1.1922333914040757
Ni 3.926013845172244 5.154019744187607 3.8772134344856584 0.15777934503673471 -0.2873521457322664 -1.028079767409881
Ni 9.311822944901765 4.301099477954869 4.407973179720614 -1.1332664259515643 -0.9000763680839983 0.0030233602073560834
Ni 6.728478143955402 5.2678152187305445 3.646756373259129 0.31721422339902144 -0.6526043463761212 -0.47894149733991065
Ni 9.014687725319618 7.383140327541803 0.661261145556082 -3.7940882320505303 0.1302698267625563 1.1564485204949826
Ni 4.809955670219057 2.258033609148124 9.847889475897155 0.602651154386446 -0.5670439467057977 0.48600431772396296
Ni 5.4995019465590875 -0.19695844260339182 8.55960005804833 -0.5040218373473061 1.3460246983273398 -0.5492161744957573
Ni 1.291429825877943 2.714969508239282 6.112320012466953 0.017796404751472577 -0.09175521562712585 -0.17876211793598892
Ni 6.5227842169858095 7.706436284241141 0.7105560352252678 0.8900773478897576 -1.8634723221622487 0.624161517654396
Ni 5.087097145278328 6.659521650362974 5.303009993561923 -0.0698563586715055 0.22415751535165265 -0.5532818599246987
Ni 2.0951074492773936 6.487592241092069 8.2636124028975 -0.5922988646178444 0.5465985343672521 0.5905877954640086
Ni 9.007102604322371 2.8836055008902273 2.032233047170949 -0.7958114500256358 1.6971761979037547 1.6612144350971647
Ni 4.375541889316523 5.936014930689642 7.4156994360979995 -0.3566906842270889 -0.22766270029143373 0.10530955727279281
Ni 1.3066840360015557 1.0197276196272753 12.907982922490334 0.3045029464799401 -0.16491569897119984 -0.1536226425558838
P 7.133680345716022 3.058483124472486 4.141767154010509 0.7535684821960248 1.9493163145112622 -0.8413796255737379
Ni 3.616796544788826 0.93641257595519 11.54654233650989 -0.565519282531155 1.576615370898846 0.9504041698042729
P 7.506806722152495 1.5960475387439659 11.331720140925656 -1.3556136275673556 0.8552550980042497 0.0059001675345188714
Ni 3.253727684262601 4.620075740900549 5.880033379004804 -0.5772391420712446 -0.9368081762873931 0.8850904361981271
P -0.31253590744211424 6.891348325073387 8.114580169458625 0.8092048406134064 0.714983422833975 0.7372679452637884
P 4.936374353506487 8.786770233509387 5.669663360222394 0.010195966696395343 0.7823992903847881 0.8266906561029956
P 5.010975371334258 7.309136416410001 11.886390277417366 -0.8233675052670336 -0.31190078160590795 0.8424078097279363
Ni 1.6625969459682641 6.238729365962259 4.28787729655598 0.6567597633053915 -0.5845703856253351 0.26100579452825373
Ni 8.003254290891054 2.752848464264889 6.896805320487026 -0.0943653995564633 -0.7738789116186027 -1.1241310393091997
Ni 6.384208814560112 7.365115169157203 7.409827264934818 0.8637171127286737 -0.069157532832268 -1.4662034594024813
Ni 4.529968608561803 0.7753523745093662 3.546596389906198 1.052545099541097 -0.5192671935421509 1.0131144043493003
Ni 0.02405966793074729 0.9059041557079651 10.737382527258065 1.2558897919124565 -0.6643152070551462 0.15836607077814016
Ni 3.7302001680625323 2.065746593461486 7.0482129190008065 -0.3741353620660976 0.8912525991447812 -0.020610734271816117
Ni 3.0719460145081876 8.303850863351402 12.736952905180233 -1.155208220329978 0.4221172892620149 -0.6721128487226941
Ni 4.192920538270902 3.6006466746212586 11.571326929288716 0.08480218134806039 0.3748313596918577 1.4211831859380493
Ni 6.376595704186493 1.837857091027628 13.271972633499253 1.020332005143662 1.61481759300018 -0.46286516060333827
Ni 4.079535574581445 5.819485827054217 9.747838651112081 -0.30716146714870973 -5.584076111870383 -0.178168450216048
Ni 8.928377818375559 5.471465921224864 12.700233642315707 -0.2907089780196413 -0.4957907076867654 -1.7285781092538037
Ni 7.153860686081389 6.930738707423167 12.04870906782079 -0.47023959869053855 -0.5415537728544931 0.4764963782335277
Ni 7.7002599618547 0.6860336096051436 8.821573157071533 0.02476949363519605 2.192011483655786 1.4679690359433364
Ni 1.2651664610473812 5.5821918941588295 10.742530706552383 0.4848604339275069 -0.31559828506215326 -0.15477064011739797
Ni 0.317723271863355 8.918413600386556 8.116396679985273 -1.0146339263176203 -0.9532005016024874 0.34515440145271525
Ni 2.084788699187659 3.376293163402599 12.485398385022496 -0.236790887844947 0.5247662689835092 0.7202693538232628
Ni 6.229175658826737 4.566457425560855 13.159850923663457 -0.27855691603813965 -0.016083021604791657 -0.01390941099224056
Ni 5.821631679242859 7.173583866632652 9.776364490532842 1.2648662843794538 0.8014370237425295 0.982025910474612
Ni 4.02951855900182 4.467804203636035 0.7251142428563901 0.477704539609016 -0.2974691795616103 -1.0533475408377342
Ni 6.202800336490681 4.690692937491144 5.93189582746666 0.24591624718498292 -0.9860219190078824 0.37654088618379666
Ni -0.17767469526119328 5.91734601664845 2.6880465271055156 1.1351515587894192 1.3807114510762477 1.6335606779356384
Ni 2.954539910413057 8.480818360369556 5.069221263567721 0.10555535473501176 -1.4471973506136238 -1.8108045594548878
Ni 1.9771322278626657 2.9354791451026343 1.3945398895006516 -0.5615484708088652 0.21299507097692996 -3.2352180794047767
Ni 3.5561249066029843 8.294577049979615 7.28977149987632 1.297821913369868 -1.0709981640399622 1.3911938386648106
Ni 2.029080510412069 0.5552327229568197 7.027429874064196 -0.3839832013944548 0.9004856877072749 -0.7996321093233069
P 0.4565281871753163 4.650276278007664 0.7841326418777648 0.9680830751412747 -1.0106803409865108 1.169783289930676
Ni 3.1957523560007486 5.925686850807783 12.135595555918146 0.9644573054632293 -0.49920179025084344 0.004107594410470345
P 3.7737889568683536 2.674235635823569 4.930349173752464 0.7958327901818746 1.3554087106454014 -0.5171828002092964
Ni 5.6015512128172364 -0.06916548093601751 10.926096232561006 0.9464205025661764 0.5790453420420479 0.6779574804289291
P 1.0336849886455775 8.882148698398494 0.780698345396724 2.139856398918786 1.1650565738789678 0.5945645207235696
P 7.725879571028669 7.993159455812308 2.6610908916993132 0.7212417450388611 -0.19448672776009732 0.1111125371078151
P 0.3309697107217678 3.8185066505212433 7.825475101958065 -0.03184516953505483 -1.7540618553472047 0.40329424301824085
Ni 2.3270834006617975 5.459001318946488 2.1217010887491643 -0.10969483082468204 -0.616953429941731 0.16372065022183416
Ni 3.9862749725046065 2.901621329482702 2.527953825103006 1.17126398824126 0.014449599766426728 0.39499009402791974
Ni 8.178439797613422 6.252500139138071 5.233628994427828 0.24102420920000428 0.8940003370932474 0.43745751916351117
Ni 1.2412262144558277 7.592556841569084 6.313651328639114 -0.6805391251131764 0.016916316139364417 0.31265462905279706
Ni 4.670848469642261 7.68803793417156 2.727304426407128 0.4779773336544284 0.912044596189468 1.4585868233974881
Ni 0.7848295773494675 1.797552389049643 8.744830951951183 -0.17159953874927866 0.8944042573998854 -1.06863069224905
Ni 0.5700642934971908 8.291236984399033 4.0538562547378785 -1.944423248085019 -0.02936174099156879 -0.21491568503841052
Ni 3.2921664278156793 0.6410136306874191 9.174038708848228 -1.0316008931892622 -0.35936745972830364 -0.20628911971166408
Ni 6.438834747449256 4.08712069557869 10.834538317546896 -0.09803256399540536 -0.0030814671388011447 0.6395842799673694
Ni 7.831306222035899 3.419452781770691 9.22874021305358 0.6133127478653503 -0.9091731881789438 -0.7659786829349194
Ni 0.9957407240750993 1.066404569626317 2.8854173465208124 -1.2423480486722798 -0.2657474229782971 -2.0653424868706107
Ni 8.149134920550262 1.1950437434393866 4.0481753443132495 0.5349560650323174 -0.6128219242718607 0.3422943062961008
Ni 7.166101373348776 0.33477439995015257 6.755284502687613 0.33123881981288755 -0.25744018866418245 -0.9717816070387845
Ni 2.331748296724064 4.134310784144581 8.266329238364165 1.1003429357506662 0.8497256835455882 -0.861380237065381
Ni 6.362526377662696 2.5729327529353827 1.9809303862365635 0.783665044471089 0.9267991287908233 0.6708018432207543
Ni 7.864725537425978 8.356564188855018 10.338585227790938 0.41012823522093883 -0.582474422328255 -0.23985615703383203
Ni 5.9408850821786485 1.890775671957983 5.394294545666784 -1.0085725506148888 -0.38576369033364527 0.09042029886578622
Ni 0.07251580928793754 3.3974158127725427 11.00476317379665 -0.9685268475469127 0.4953682754373663 0.3168149310780738
Ni 2.1035695707343454 3.0187941887747196 10.147619310669135 1.7309934035635157 -0.6626074803354202 1.4051017069951541
Ni 5.036389725081488 9.378680235266172 0.36251933577009066 -1.666017770023079 0.4013234924451152 -1.4716295155140593
Ni 7.74987579637297 5.2104649865410355 1.2073954552330564 -2.2822741738977856 -0.7627781737197509 -1.0700252586037313
Ni 8.104435886481621 5.146481272150985 7.486378209316617 0.21575386466898971 0.39725806412649 -1.746617483254018
Ni 2.466601112092073 1.1795842778890342 4.327094144772245 -0.3734457921982407 -0.09677709432174945 2.2222360868682824
Ni 0.9793762686886673 5.3104803581160365 6.33005123723562 -0.24609185353089874 -0.8002180637337637 0.43078910600440007
Ni 4.1864176731601015 7.10459938366385 0.6169017159207745 -0.30380977706765744 -1.8327255278976953 -0.27257241631993057
P 9.704196682491151 0.2829082195714453 5.683413607855531 -0.8322817770375279 1.1587578853544496 0.37844067430967077
Ni 0.29008936056969886 8.037466638611718 12.121736149717151 0.8494387484327885 -0.16424309838420745 -0.549627293891247
P 5.166969495656461 5.660011690269564 2.2479285112980416 0.04853959947160027 -0.35421779720656416 -1.8996282032575154
Ni 2.2626798456261414 7.8969786288004915 2.5741213684520483 0.2221811083515722 0.19226966550412047 -1.2776562370552706
P 1.9113665231768284 9.033879107719784 10.684059033349506 -1.055030584967112 0.9119373811876423 1.0330713070872015
P 4.521329221054485 3.8791689589149607 8.545712662470962 0.5424875975226722 0.4949173039428767 -0.5774774833342957
P 4.3247318414063125 2.117414982247153 13.558292758050639 -1.7994032595964815 1.0283865000170223 0.21384173524794142
Ni 6.314879129282703 5.390119463691056 8.608129904763304 -1.7877175957284372 -2.39800441228327 0.9501388319580281
