# total energy = -340863.6974246669 ev
CRYSTAL
PRIMVEC
9.32956691633965 0.00000000000000 0.00000000000000
0.00000000000000 9.32956691633965 0.00000000000000
0.00000000000000 0.00000000000000 13.65476422913899
PRIMCOORD
 96 1
Ni 3.9743301051213917 5.358147414730318 1.7803630783283675 -0.5368098304116046 1.1842753128992636 0.059507154226697515
Ni 2.763492291605255 7.516393396561362 1.6772284503413466 1.2971210306481014 1.2466266214429755 -0.14305232323920525
Ni 5.565972842429093 5.473843371315545 11.557815214656815 0.4258878120480407 -0.16383917807756945 0.10077541684786516
Ni 4.359435959159371 0.22654613622904768 6.782580992946114 -0.5903281140447187 0.3877123294195839 -0.03732521881301959
Ni 5.319103178111565 3.612613474787885 0.9854644038206564 0.5373708451213971 0.8115332316362669 -1.9629570452231486
Ni 7.374947835897817 3.3757824242342225 4.007304525648351 -1.4088763435462381 0.09293483775752381 -1.0835729153811788
Ni 0.07863425288916873 7.5068119315655535 2.1088421943541142 0.8114319301717122 0.2166378099358398 -1.5942798780581446
Ni 7.715850202934684 6.149611875737584 10.2899298996705 0.09100008262865619 1.5403684727516698 0.662865104872181
Ni 2.5011821944074297 2.3836296540498894 3.526370027302239 1.3960565660737505 -1.008774896433682 0.972924462393976
Ni 7.53318661661244 4.444251049984006 13.187675588974091 -0.4891798872384672 0.4412318986042788 -0.1049002376495161
Ni 4.442842285413054 7.078239626295369 3.53741716722584 0.591332129829201 1.8585658859995668 0.0008726324129404325
Ni 2.2135703123326484 6.432297746597382 8.187601608782865 -1.0423203364892952 1.7924216860723259 -0.9086224578817965
Ni 3.169403079373179 8.643395723755845 13.030386558149026 2.54062607574296 -0.43551479361484347 -1.1544592579790955
Ni -0.026314975820037882 4.463488616509184 4.576749556187004 1.8172261467105155 0.7335300754879109 -0.5199485358798915
Ni 7.829857507948108 3.812023633327731 10.565864896069765 0.7731065522289525 1.0107844706645432 1.8614897445145813
Ni 8.302465368018893 0.4022106816166706 9.27494394795672 0.07877500131737401 -0.6483954505010963 -2.715134046388285
Ni 7.700092564786757 1.5481203086753266 12.60958764784915 0.7960353931109839 0.6793211935456752 0.6498956891957066
Ni 6.018475486272062 9.21229404168617 9.83297332068732 -1.0309401196768115 -1.4366802531323837 -0.6019641556217504
Ni 6.840755506073054 8.230198544399093 2.553454823643085 0.45659423999296206 0.3895432119807356 0.2852117023504959
Ni 1.6034539687436256 1.9083721970377114 1.6151261896357938 -1.5217683411519793 -0.23808209585254478 -0.23290620807856016
Ni 1.4362214857349824 9.149935217896502 0.5157897595187919 0.2542383938974331 -0.605130469164874 0.5177165612255793
Ni 4.896249897225442 2.8156818876973246 3.2502027246922673 0.8461593063505685 -0.3378236721192569 0.42329202629640644
Ni 0.20867721713803208 5.0608327832926925 9.082971319986163 0.16844530939101315 2.863763349494636 -0.024739411728209006
Ni 5.78397682739216 0.4742909139025717 12.128174542731584 -0.6320650887721889 -0.9905570878740747 0.3014160800245002
P 4.191848952616316 3.45799456595094 7.374678211420331 -0.7093874168034363 -0.7683217292457993 1.6785686101048964
P 8.219600156633524 2.4444584289015694 1.6348442288457667 -0.26824216437569287 -0.11626554206366428 -0.026245306849774153
P 2.0913903068943673 4.3014713612830695 3.627606088466819 0.19218121955537226 1.7003132008708395 1.3010476193960174
P 0.6058172792559469 7.297531091462352 9.5030462559105 0.20471251925316356 0.36865865522224256 0.25417694453187833
P 4.026976849981518 6.059366977096434 12.901826995004674 -1.0836464489315918 -0.11924776462043979 0.7575488070000115
P 0.25364292973813013 4.997932844634714 0.36667156320524386 -0.03724037240869715 0.8752243420373249 -0.08819783729317068
P 1.444151617425769 6.295470321447884 6.046315846246739 -0.2626821537894121 -0.45576068834807315 -0.07424086089244633
P 5.668551428241089 2.603238324484503 12.28392139618196 -0.3933759554632644 0.8566288384233248 -0.002547706122518193
Ni 6.892348009896641 8.665730706423776 0.18019684888807477 -0.3461944126814554 -1.5600147862276874 -0.6788740787059276
Ni 3.367087268074442 3.6260014029952714 11.511976254614062 0.1727717046805089 0.26458142769465404 0.46592323070337177
Ni 1.5527104554892877 9.081568153155228 7.932174865892642 0.5283511581212901 0.3731028070365252 0.43303959260147357
Ni 4.976484170802811 7.686088885177497 8.02136832236726 0.7139356982957511 1.5041493425186354 1.623088574759721
Ni 2.5774700612727948 1.8932116511582666 6.783891797066768 -0.30148524269953886 -0.8858725657797905 0.5936414946886679
Ni 0.635681222246779 1.9170860123308815 5.0297326727147675 0.153349077179523 0.30635028410132403 0.8860818535771192
Ni 9.166663130980714 7.722866037089356 7.292695577044311 0.9482493282447991 -0.7897027660247367 1.2879316508393497
Ni 1.660317677749912 5.446377126965339 1.952467461065162 -2.172320175874446 -1.3142407210475235 -2.466979911011719
Ni 5.839665010994871 4.396091826704194 6.424989897005156 1.3760958066811073 -1.873026284399271 -0.9031912595638962
Ni 0.5404067542003319 5.364323587882437 11.818485174029652 -3.6231121858178637 -2.1542995709273094 1.19354542534728
Ni 8.06354449452554 8.723937873034151 11.305693937246648 -2.5320216219034006 0.32190160157236175 -0.6242242525715315
Ni 4.455399882184581 7.778600868525542 11.115469670074742 -0.5912398272257108 -0.3349478932333586 -0.35185109674660053
Ni 0.12555264379853925 1.5599781879447259 10.78767347833107 0.9942201385479585 0.41298807326723713 2.1179626841694876
Ni 3.8221928610253277 1.155961302215895 11.239823464552966 -0.5944866162977827 -0.3535904480352104 -0.5150572692258614
Ni 2.829247077671917 1.8924652858226634 13.354823172925808 0.38792136010659645 -1.1579783268759476 -1.1542777380959088
Ni 2.636209013184785 0.33469447335798447 4.437961989074877 0.3059589622001763 -0.6656380396316278 1.3323286888974861
Ni 2.9068410838745877 7.914765894439693 6.211743058099891 0.4241821422108436 -1.1961373544441722 -0.6778044997908327
Ni 8.739247691980715 0.432111942874283 1.0854717610514988 -1.4408606097623187 0.9114424438290947 0.44097016030245995
Ni 0.2806846788037119 3.9544767871943405 6.878341531417374 0.4147099410543503 0.33326767731745827 -0.4824664797740336
Ni 2.1251166904969474 6.568658693412129 3.695224921959151 0.07726936330612498 0.686458833031721 3.3826983565083486
Ni 7.567015625448665 2.509084337398131 6.261610525041565 0.33864899623402966 0.02966950203997471 0.7046768987016444
Ni 6.483087907685196 0.5534131031298912 7.4618228950487175 0.6285581040601949 0.10238852697125593 0.6938818649686694
Ni 6.549747661721278 2.051944898907726 10.131466276398529 -0.6459562449319843 -0.4874621332164121 0.7197875290908379
Ni 4.5533883211826165 2.1298561103780287 5.572385986575266 0.633046993069484 1.1293364947695388 -1.1560625979104735
P 5.238784938433941 7.304304356882953 5.7972257450557905 -2.00310199287315 1.2853281517782316 -2.4465782074269153
P 8.351790787135585 7.31319543394333 3.829724620218236 0.16667484775415164 0.7917930728948622 1.4391379706442569
P 0.38583822502353987 0.26505392276283707 12.45889368772081 -0.3520274744234647 1.3930509464782075 -0.3199858726068876
P 7.1457017230672255 7.613206310155823 8.673110393679556 0.2628647021138634 0.9370416324544377 0.5914786827093942
P 6.420813049995785 1.312940591426686 4.717939486723104 -0.10044194476784636 0.08007160864161049 -0.2862686828601005
P 4.006694371986495 1.9543296425774925 1.4833031440615163 -1.5259021608146948 -0.022497409771567705 0.38836358985033764
P 5.772716040391243 4.821781295865609 2.7606794272466995 1.369150742821842 -0.5627844000984954 -0.5425775861333172
P 7.058097091800772 3.18152218651004 8.384420946651497 0.16702143246029302 -1.3374729521025868 -1.147307991646295
Ni 2.273969927116356 4.243758661707535 8.634494384172104 1.839430964942329 -1.9906223723489007 -0.13870638756568368
Ni 2.1872329455525423 5.798904134104228 10.633934347633469 2.8278931179605875 1.441851255810362 -1.510712854668766
Ni 7.146541384069779 7.234425902337082 6.553235053751885 -0.7912485132453019 -0.16589246106217234 -1.0841591269019524
Ni 6.010666638948312 6.224761535466155 0.7392590046518144 -0.1762684049798577 0.17251973657070288 -0.8423237346545622
Ni 4.329217492634127 4.945360736308148 4.380653259737238 -0.7660185350339195 -0.5000973054819193 0.6260175970265283
Ni 4.7785574133674755 0.2923998157026772 3.383650047828152 0.5879048493152068 0.21483418106819777 -0.49439151334639364
Ni 8.002846333607591 9.366325187821326 5.689735142378853 0.716614787789811 -0.240807722313824 0.11615087086267094
Ni 2.755021045046156 4.12421892364395 0.23155704650095518 -0.6228204302454693 0.3622434957245181 -0.9066514501983546
Ni 6.047686359594241 1.4481913198047225 1.2249665093191102 1.7715618119041814 -1.51674749089862 -0.10652286085460365
Ni 8.334773657483828 1.0953657665315917 3.5955179767758887 -0.40036704206911694 -0.13321322566159638 -1.7293589532838862
Ni 0.22166304102086226 3.101157298998941 13.051988236874726 0.8991582271451031 -0.9809337058516977 0.17019648775416496
Ni 2.170635646402061 1.9347375525179025 9.38841480288518 -2.0194230986306767 0.023328647423611435 0.40461681848440634
Ni 2.0215678297486663 8.909288374564566 10.43157044827797 -0.4418664468644841 -0.46339249386171805 0.47996891016316057
Ni 6.596451472596662 6.176788903520245 4.184392762913638 0.4599559573763433 -0.12789309900026363 1.2367253031688636
Ni 1.873908777666223 6.586104983131859 13.306307560198247 2.083493703858341 -1.137925779100447 0.9785654627298372
Ni 2.710416386677156 4.067065998070118 6.002715982210796 -1.4871823756469937 1.4007871387802004 -1.1442180398670618
Ni 7.620511360878041 5.366590672589332 7.979543874873384 0.49616480319673256 0.49605630264332634 -0.8905020941320019
Ni 5.921625254410821 4.674094255083082 9.248918188704229 -3.0491311456726002 0.5622791783273026 0.9146380679482571
Ni 9.39739264491582 7.480745122219604 12.480399271909553 -0.0600573703032127 -0.14273453488847032 1.4239509784911737
Ni 4.40046739348417 5.851168366729858 6.972381697790066 -3.2856114442556645 -1.1953292567205802 0.7345469467881995
Ni 9.11052712817664 2.7811624909256656 8.919960465907026 -0.20203831485511012 -1.6385730435485653 -2.8020049373399165
Ni 4.262977569099323 2.7401870340010377 9.548694892792676 1.2707065452103148 0.4560825904638661 -1.6349462454292554
Ni 8.015711806080056 5.515024078707465 2.0952686077694964 0.06776939423548974 -0.5706293500642109 0.26475626270962144
Ni 0.8023110152469226 8.200577170142331 5.011448587905822 -1.0961114141678219 -0.12334404617700047 -0.5806620517098644
P 7.717977344141154 5.102993095187591 5.8765457210970435 1.6097957143055563 -0.5736655657873734 -0.9184433006269601
P 7.312980853909344 6.7490831837275636 12.390400673829152 -0.6224450491839215 -0.21136139202824888 0.7713510029904265
P 3.49397870469372 0.3886426927720698 8.848682576356898 1.6648785142123133 -0.5870782396488534 0.29455714812113787
P 0.5233028595783099 1.5062398837812792 7.19313883788484 -1.5450301398933972 0.2509561236017355 -0.011022576362748759
P 3.975673562725478 6.2364421529683485 9.388032290650683 1.5657527171527292 -0.5479769027720175 0.8519370893746102
P 4.935406088644537 8.151988786794547 1.4261035706542087 -0.1546071179563402 0.26945058286149726 -0.04146649467490278
P 0.8838915452983859 3.7125704523585745 10.45803376420846 1.8198139620423497 -1.4418610260023748 2.3493899937096767
P 1.5244045501365278 9.017091517725786 2.7679023777820015 -0.06593542635054452 0.7467517163845074 0.1254783189111839
