# total energy = -340866.8539856042 ev
CRYSTAL
PRIMVEC
9.21355723153713 0.00000000000000 0.00000000000000
0.00000000000000 9.21355723153713 0.00000000000000
0.00000000000000 0.00000000000000 13.48497232899424
PRIMCOORD
 96 1
Ni 3.0775308339101226 3.7635630963422795 2.5902875195508317 0.01986074347966902 -0.09020175509707691 0.19564732372710175
Ni 7.653517771621213 3.6582982042770174 3.078996710875338 0.2770386796214003 0.24042951303879886 -0.5215817006079404
Ni 2.839083971183734 5.913159721109221 5.34671021877466 -0.7642951245849094 -1.1832985508082912 0.1408774270750735
Ni 5.006674673342661 2.173892775346905 3.1336920723857298 0.8550000445706502 0.06264698540725984 -0.7487088401108782
Ni 1.975349829253746 8.151473689044337 10.879459665041013 -0.051012229381808924 -0.4277372065519537 -0.10864144985950323
Ni 4.4736703839793845 8.054500998542203 6.090568609485153 -1.2586485856045162 2.460047188447628 -0.6689668468945447
Ni 0.5801030728861146 3.662527227074212 6.3565059631047705 -0.47581426456483855 -0.725514404272286 0.4807798361002301
Ni 5.6118856112061986 5.091227488614689 3.7718949162017648 1.1293832888470743 -0.9958121656254267 1.3334334919258906
Ni 0.13110984162607386 5.980252845312217 6.245712936664089 1.9935367177822183 2.4136446899236885 -0.11199776792624583
Ni 6.2235368256170975 7.486245638978339 3.728176586849496 -1.3033171321564845 -1.8720148124156213 -0.2142338284800375
Ni 7.287518421739332 6.188322609645681 1.5904313608277239 0.6299326158102184 -1.4790381492733045 0.8605284305880471
Ni 8.443958065290444 7.913938968489891 4.366906446142654 0.576078288993924 -0.49656872350337056 0.3765858804891192
Ni 0.7254626022205592 6.274837912620982 9.780380865124974 -0.09057327950388272 1.0846419800756417 -0.3440567975131623
Ni 0.3347681547279538 7.563786937150877 2.212506793959204 1.0652322080904622 -2.181373801436282 2.4413311000953635
Ni 3.936363363360573 7.559401283879711 13.023975012961213 -0.160055285555105 0.11888806728817589 -0.8890249953658431
Ni 7.855709286402148 0.41264482638593414 13.242337242145977 0.04865375645196137 -0.8150245326189769 -0.9713185513594368
Ni 1.1282645853510604 5.62144007011838 12.32038355304127 -0.4123527536760833 1.784354078572843 -1.8723395427448914
Ni 6.731811927207669 7.751098556904644 6.2066069140923785 1.1602774073227693 -0.1825868909987178 -1.7706051044178666
Ni 7.701179503494614 6.0140573870179015 12.229224617190615 -0.6671580758205801 -1.0942386226251413 -1.717707742198203
Ni 8.922464163269385 4.816939888021003 8.319958325826887 -0.8861985816606415 -0.019352693494998928 -0.23056419020894484
Ni 8.832760969470925 2.588512067060593 0.8008645123898104 1.478201512304622 -1.2512376378524257 -0.2755207003149771
Ni 0.8567539509252926 1.1918657713402516 6.86135638544977 0.6116217333161723 -0.8896353752563324 -0.6558673333981091
Ni 6.518905045295714 2.9681014139487116 4.992190961279064 -0.1538645833633608 -0.9415084099765398 0.8981338996456468
Ni 2.6556881132792216 4.891661837662077 0.33260296876424816 0.40779598754333646 -0.6452131961183727 1.2591831179517476
P 1.8394867134205413 5.872527933449893 2.9742588342871987 0.11221554036400674 0.5284894834713671 0.05493624702656346
P 5.714598347901475 8.476076526011624 7.911916592664218 -0.3800473566751584 0.9814726090743033 0.7569484544118512
P 4.68755390296433 9.164200265949148 3.0117469561983707 1.6309584644261008 -1.0934870891710975 0.20421886744619666
P 2.9131517582570505 0.3293293918582711 4.988523044120974 0.19129213208219958 1.7379757484186198 1.0866458978795477
P 8.763769852465702 5.09080366497924 0.1591780225615326 1.6418686835807013 -0.7051247848723404 0.9723140825034869
P 4.497238663533253 3.1650227739584147 8.706896406011396 -2.23858701742248 1.2809824732150261 3.0935338401576913
P 7.871621099846062 0.9285238768098939 10.425191672231092 -0.05550034706014958 0.19706348734833803 0.29092880733993126
P 1.8802751315538384 5.448354182824024 7.759576872325078 -1.5930179806265856 -0.870269826245527 0.10701239889651248
Ni 7.340570084628767 0.9985100580026934 6.614527028298788 0.31551652398162433 -1.7733577274623396 -0.07950210929138567
Ni 5.123124823960855 0.5581112329849701 0.5872813553725957 -0.30462738787294635 -0.7099594872568225 -0.37445495018904545
Ni 8.10788434949416 1.0692701780080516 2.7117609016048214 0.7500303871357793 1.607233095784703 -0.14278415717948312
Ni 0.925566324919045 0.05131398598409398 0.9783249966865817 -0.5311081520411369 2.958210767241944 -0.7182710924463114
Ni 3.629091227660222 3.0046976635139826 10.785672101294848 1.4208623122635207 -0.5103315816154178 0.7477593317134155
Ni 4.873022811259624 5.609674357456031 0.46601251429049617 0.940091217914039 -0.9922583868358975 -1.1002133521513375
Ni 7.771626362552031 2.4758026207031 12.203171441234998 -0.3174728763770468 -0.01941131464707625 -1.9384654878396874
Ni 4.730166605441515 5.2055124532691766 9.794580799623967 0.59633703924296 -0.6797508248839261 -0.7649085897991923
Ni 2.025959899460703 2.4282698786317924 4.879847293146079 -0.43695152606137005 -0.35452350137244104 0.17193943858720065
Ni 1.9950668418594057 8.045305868364421 6.325746502084212 -0.6736033172252915 0.2827727538917001 1.9098007729151432
Ni 8.696298972413718 9.20434373507198 8.662827040126286 0.7221213194303371 1.1919181741565021 0.8561423857052093
Ni 1.4679408020486566 3.254099445860993 12.415668319847441 -0.016342960134397663 -1.1514608374724038 0.2963515210173993
Ni 9.03638979918947 2.407751286541697 8.602589723904538 0.1980965565985427 -0.07489417820572908 1.8473041970428186
Ni 5.724226515271997 1.286885187696405 9.260373219678305 -0.04942971538603745 -0.8891584356199138 0.774453296064834
Ni 4.36091486983543 2.82013168383334 0.35545166949358253 -0.894479333612195 0.5067271520936112 0.5211235300245992
Ni 0.5068755622378613 4.47719917642236 1.905844595751608 0.7642709562151935 0.9301824434407594 0.06288378400841428
Ni 5.407934306982421 7.577745476448809 1.4913570579072006 -0.9223629473963405 1.2188589644114043 -0.09925383799701616
Ni 7.355155145822579 5.017519030275774 6.155983944905212 -1.3508540013951833 -0.8452414225219895 -0.3478160074452784
Ni 1.0952155553433496 2.283617029141672 2.6749462907317216 -0.7364804163654866 -0.14019994139207467 2.066727025922963
Ni 2.9841053629655487 0.7346752381571943 2.0475988601175503 0.20632742914876726 1.954374702870776 0.571963238384286
Ni 3.91262002621815 1.5156670288231042 6.350302474979822 0.533775671570971 0.30307984088016837 0.3223682567961351
Ni 2.6994064426314903 7.796327909652861 1.6773686447270153 -0.06828952840501788 -1.3173278446132797 -1.0117404068199092
Ni 5.800404206965265 2.6600369123212175 7.3896433334793565 1.8489373617708673 -0.45422471131952097 -2.2445622611693086
Ni 8.075194648220853 7.238198249553307 7.956956146132212 0.9788125457436369 -1.7625809485618096 1.4781498331310803
P 3.4635051760018505 5.547814533795097 11.876498317944115 0.9385408427077837 0.11617761033554831 -0.04305466509762908
P 4.985216298408746 6.114844490239076 5.690321545791825 1.7101250447549385 2.707071581095125 -1.6107511362402904
P 7.799257820871833 5.794249550693966 4.105068204162411 0.06827692999952757 -0.4094386653530819 -0.3738360856581239
P 6.754090308740606 1.7585916803935824 1.0329890321021793 1.129426483380184 0.8439934090475013 0.9025919354170004
P 6.9286687923163255 5.879263043830611 9.742069972547593 1.172085198590975 1.4461491118547674 1.3158263203670888
P 3.948350201397939 3.2115696653994394 4.714440905854907 1.0008237599074052 0.08125303054422135 0.0032164500547686545
P 5.346092910436072 4.133109665781721 1.8780519001791909 -1.0788138034296388 0.06874512788519772 0.8255956232666041
P 5.11207776876731 1.9871708232598495 11.983798484815262 0.1794007799612523 -0.17389270565882953 0.22095932012932912
Ni 8.713712595696286 7.771257820260337 11.227790176103326 0.13995388681953963 1.8138150641464375 -1.5768079465256264
Ni 7.559134090718233 8.458616834942594 1.6957893098216392 -0.9658215328006076 -0.6151708841200115 -0.14554372220249126
Ni 4.219551260298683 7.5939705508406625 10.123452277684805 -1.3741165714675496 0.04587053727986939 -1.1032233426222549
Ni 4.539399901703112 4.37564734794592 6.382342620464019 0.22239091036953312 -2.3236008005607145 1.4009491182793616
Ni 3.574666744734226 6.6709287406197255 7.773291252354762 0.13504667932590936 0.10668586879502916 0.6820925856432253
Ni 9.024531950954197 7.366708946667203 13.465243597787337 0.12063898854101159 0.37653368709494506 0.8126748014398779
Ni 3.282292931175628 0.6099559198691042 12.310310370853527 -1.3231953591376502 1.0474273186985574 0.6760132122183649
Ni 5.907263044442106 3.96846339696717 11.710376958607057 -0.7110074689053626 0.09994135098234401 1.966217461141975
Ni 0.9321816590549625 0.2981820400757042 4.101292488383999 -0.7121071297274445 0.6886614971099946 -0.27569347844741554
Ni 0.5700335761212896 4.720492370284532 4.288801278263823 -0.07774758849412416 -0.43520651834580526 -0.68890420924842
Ni 2.512647636315265 4.760331792016716 10.068905254446822 -2.3833244416735924 1.1986241254217678 -0.9784477062050504
Ni 3.9034064689257857 6.148096218507218 2.6613802489744445 0.18476898625170116 -0.5883393657494642 0.2254600362131601
Ni 6.576130449638589 8.200139698662605 9.935120717138775 1.9238510803606224 -1.2312010309165247 -1.7361417805336743
Ni 2.7072471798872924 3.3110208028132204 7.442882031581826 -0.8920434704771927 0.22500083718855443 0.6173784332942917
Ni 6.910453589549322 3.8722738588348866 9.753154803326039 0.48003010241839916 -2.2912840907058794 -1.8821783832121843
Ni 5.621145236285025 6.359593426153443 11.695651851342399 -1.7968969482348602 0.409660551555901 -1.0802484789936362
Ni 5.327269612887772 9.174252256955118 11.410606501254149 0.031101092280178697 0.8771490698638635 1.5727391757728915
Ni 6.0919119461383815 6.103732940144484 7.825194906005568 -2.2678780530771134 -0.16083638669550365 -0.015791715616617963
Ni 9.144151565280964 4.142470639990763 10.655959956310024 0.030776876171540544 -0.11750532800803634 0.3345581139941077
Ni 2.7434656736035765 1.0295873867498384 9.905143487132339 0.2975152023081973 -0.44035618086754486 -0.09623716265787942
Ni 6.714987971591812 0.3039165581344718 4.278295980239069 -1.6275206423891457 2.005370734302669 0.916581821938189
Ni 0.6047686871135032 0.8761623093616581 11.762725627075083 0.021676970752801377 0.1777413899809584 -0.3092245203253255
Ni 2.483237961438038 7.833679670916106 4.101629704580899 0.4118953544236906 -2.417116964743005 -2.9203561582880155
Ni 7.0797158505673465 3.959867148013394 0.6525004420223258 -2.171239798326073 -0.054500959261357756 -1.5041331445687192
P 8.94013576615614 2.1914814562180287 4.386971731213965 -0.5060470953074511 1.2441611906216186 1.4412660727308533
P 1.8249200793413132 7.944242358424478 13.066398837513905 0.21686946633067167 0.2528371426745323 -0.9084944169443644
P 1.4748325429033453 2.690579854745405 10.201624704531872 -0.8431506014312317 0.19494309857122555 0.3565083930129538
P 2.7046581702881376 8.803517138624962 8.433865534632387 -0.046305567934758964 -1.758727122033358 -0.6874340524607967
P 9.031644817183903 8.4631959729169 6.422636270570716 -0.4490953605127556 0.1452722137086595 -0.08907895434654335
P 7.819251240196263 2.9737677516835155 7.005982515623742 0.6531962143238492 1.7536083127495539 -0.5607611990208793
P 6.439650025466796 7.924350288230263 12.863355990039155 0.28313810765091885 0.26171953276582666 1.5330503418237016
P 1.8595446276460186 2.1986219631196113 0.8621383538069503 1.5631001100212307 0.6186886674652828 -3.4742345141461324
