# total energy = -340887.22904982767 ev
CRYSTAL
PRIMVEC
9.12690570609119 0.00000000000000 0.00000000000000

0.00000000000000 9.12690570609119 0.00000000000000

0.00000000000000 0.00000000000000 13.35814906263388

PRIMCOORD
 96 1
Ni 6.548636897845742 2.099407329789688 11.387034069192325 -0.4247105039104879 -0.5208101125492385 -0.7140331431055638
Ni 4.946709810660507 0.5955743984278168 5.708551786162793 -0.5206702445372646 -0.9910813358086609 0.20878643221222104
Ni 2.9651399588510063 1.8557554583499012 4.946709810660507 0.7727723088179852 0.16099193843676143 -2.1029726385185588
Ni 3.718429111131603 4.4835558599531575 4.892248652357078 -1.3343786294479794 -0.33467895584268814 0.5981391254487054
Ni 3.9673380801871123 2.8141718136050704 2.4718316247884755 -1.3225824081439996 -0.3386945047599844 -0.5123085028361306
Ni 5.229351822750233 4.643139804069305 2.8073485389913313 0.6022356641155822 0.6619551914634019 -1.0428427846516686
Ni 5.310617790059937 4.554919134705468 11.537553170683585 0.5016973029791876 0.8485015813305001 -1.2367618128337539
Ni 5.734617315816856 8.141802155671442 12.131055761544093 0.10433768027782676 -1.065403957781636 0.372418636485307
Ni 2.2415223766202588 6.824278573353421 0.4252782052290773 -1.319401696423173 -0.6047563736549069 -1.6150384507617346
Ni 2.8557813761572874 2.190147025094391 13.235080030396393 0.04869386566127743 -1.0899402523601034 1.6438420052569884
Ni 7.942543552986641 8.53224204960022 7.406572411467632 -0.32148971084592376 0.6042218413076755 -1.1202623003824126
Ni 8.830262897597049 2.610733088163325 0.9959553179174351 -0.05289453400618632 -0.796769443063531 0.4392770888707531
Ni 7.391652658911346 0.7142332979104609 5.222034782544461 0.6593936013838128 0.26111815173640196 -0.754090673248082
Ni 0.5614945329814516 7.271360043329372 2.1910031288380623 -0.06833246582781136 0.9560821940256566 0.3737219286777628
Ni 7.707443592077985 3.837936812833452 3.620031942042888 0.7893384407067825 -0.058422148692634866 -0.03390719427040612
Ni 7.644550085706561 4.010234536426511 12.336504231595185 1.233337617643553 0.47822518799917635 0.24278747174801413
Ni 8.659005641240434 7.41263541484632 9.44415773360132 0.07090202632720047 0.015574200289173178 -0.4682567639325548
Ni 6.821960339335377 0.6148604626149389 13.318996451087356 1.2565791046699972 1.4109751350567958 1.4348881942289675
Ni 1.839117109472364 6.556659447853069 9.668280765165482 0.9650221768277638 0.5240293908174846 -1.6203038129257321
Ni 0.2748549362464373 4.945787993196639 1.3399292228333604 -1.052413201948923 -0.03627518028195043 -0.7195993243394316
Ni 6.506388451902725 2.114932196186117 6.833388137815665 -0.06469846861964985 1.1480440984813711 1.1718771963452268
Ni 3.449386188360325 4.544989061431326 0.6174734956833091 0.5963064431153406 0.07347107260595732 -0.892038071160554
Ni 6.265629809532704 5.810589677888507 4.803122593959422 -0.47002748267973243 0.7201302571422372 -0.9373031136459407
Ni 5.108821907623104 2.9020091529344274 9.256716648265197 1.3345236396662759 0.6430879222452537 -0.3481541075109875
P 0.31283199037667975 5.611066394941804 12.416266084864835 -0.37451305712049043 2.384252095694184 0.5616202045870651
P 4.142191337343369 6.142617376087039 12.565810432839845 -2.0917173773197137 2.0043366366111997 -1.8076019933571903
P 2.5923788810362116 8.757959551569703 1.32291484544581 -0.713895589086435 -0.12472035769923683 0.20976730806825164
P 6.469926464099236 7.954435910961096 5.461078479355467 -0.3149236275926318 -1.0519442327323043 2.033201126251376
P 4.839477796967593 1.2681105154924652 12.61777355708525 -0.09083784601917903 0.01356308339641535 -0.7774247199883322
P 4.185817946029395 6.201787104980662 8.267011435290897 0.29863440351430504 -0.16259219304434577 0.21927576177931915
P 4.79878092497366 1.241998438619929 3.5608686019831737 0.46876532813785715 -0.6230613426116819 1.0144642335089753
P 0.044032755984464 5.6333908059974585 3.5966278180567834 0.14323487156365655 0.42893071263942256 -0.21254281393085978
Ni 0.9375522490927725 8.99693844735107 4.2679555328222625 0.8948727123958716 -0.3828804552485793 0.3604756051908179
Ni 1.8927102990548643 6.662924009554201 4.4952173072163655 -0.22331599328696378 -0.2629063539850763 0.5324854920046377
Ni 6.2251246025560105 5.733403437374338 9.045269975865057 0.0958988054818542 -0.032204352646686474 0.3127657007093646
Ni 8.7368855265789 2.5364857112468333 10.181767774781138 -0.3939760509411086 -0.9396556730385173 -0.12864257557177844
Ni 2.6021537969154447 5.409033212959818 7.135121811003598 -1.3399239847462407 0.11634190382755447 -0.32387852279307444
Ni 0.9106652979362521 0.07129208488876469 8.57288598554177 -0.7074349210627559 0.31333802827306684 0.9739336203847807
Ni 1.5712150498989423 0.9529949733389561 11.266223045373245 -0.22041630314166558 0.6826183762397083 -0.09011202359674804
Ni 4.239137328444411 7.108709458937386 1.4899810267587783 0.579347189553183 -0.7569726227815673 1.1335204509438994
Ni 5.525456020574664 7.891095186216111 7.876552374860396 0.7628856458318926 0.7766870704913591 -0.17842684608375722
Ni 5.5495601782189725 3.193549897967433 4.660524733823518 0.5551261122222891 -1.833347220642094 0.31305006471900276
Ni 0.8364106194952939 7.5884013625608615 6.666343861076096 0.2153869682478742 -0.04504572738572887 -0.545778352458802
Ni 5.24327035376408 4.733861245562842 6.780422879337265 0.01372352023367959 -0.016019515356707894 1.024552985203545
Ni 1.022888816292428 7.6376775258026735 11.792613674101936 -0.017914675496891727 -0.33400815502790865 -0.9590872994005676
Ni 4.5881319441214625 0.3706710164363223 10.303166571319755 0.5046018782204923 0.2026173272870317 0.5754997907826347
Ni 8.327680714771782 7.60654565085957 4.454542339795832 -0.5637112827881389 -1.6366190051459877 -0.39446764586554645
Ni 7.628760539048228 6.117281086189045 6.835017290462203 -0.8752788494243442 1.3957439199293382 -0.12655612535639493
Ni 2.240910873946208 5.502337568733302 2.442417433476064 1.5729340653925168 0.49771235018951054 0.8977875720498215
Ni 2.4313893934603055 5.129494348768262 11.40048530264033 1.7088767741701343 1.2477720479013286 0.7795209403957285
Ni 1.450310931642917 3.781094444863457 3.901301267532953 -1.0026875525890215 -0.43665842030098345 -0.8630015747188878
Ni 1.5437886986224756 1.2535987356157323 2.434923331301985 0.21218594481207328 1.105523194400025 -0.3012507580912296
Ni 1.134091033913883 3.1891598563820813 8.336687145200939 0.18007029522445117 -0.20023854264221 -1.1034344301917964
Ni 3.69395987726398 2.844080683200073 7.152286782333266 0.14271679427665745 0.3276649864187002 -0.6462058990489451
Ni 3.9511104420608034 6.9833696645680945 5.89292075507973 1.526846527005835 0.20322307919183066 -0.5585119979753865
Ni 0.7522851926664826 0.29529646668034837 0.12544475378349373 1.0002928271045999 0.19037630513614953 1.0566562934959929
P 0.3987964886804355 5.977283481453696 8.032709165930184 0.2024142101372901 -0.589886655631926 0.5506279672416194
P 8.519756442762878 1.7724541910952214 7.679131930959983 0.8086296848362268 -0.8956802958988316 0.868718165487691
P 1.7558432229344325 2.9473607467756135 10.451188551443547 0.8328754447574688 1.2899221989068173 -0.5371163059084298
P 4.097004027802674 6.173192509789589 3.7681871749881894 -0.2973092569449783 2.1074908381038866 -1.2427792226724272
P 6.996138205478504 3.947167618849012 10.153275400932595 -0.32415645904480944 0.3899563882587542 -0.032211294625221945
P 6.579440204187864 7.841892038218962 9.999282599176501 -0.6882717178707437 0.5624923227793732 -0.015766518805637363
P 2.5323329692066356 8.640724449357984 5.677119636026013 0.35688454540544984 0.49129796202273446 0.08020067802030705
P 7.115007023789554 4.072260986767565 1.1403146708308292 0.5709803056457263 -0.1357727588586565 1.6569991114642364
Ni 5.4141534069917965 3.19075706485908 0.15875522108922455 -0.3904906634956694 -1.2109739052363724 -0.19478703260933553
Ni 1.6691923813308465 1.2491174249745527 6.6910704736811555 -1.070632296060111 0.08235449113851624 0.8646563367134914
Ni 6.972280474284931 0.7209835572795373 9.07153264667971 -0.6100980975827944 0.69545846542717 0.23147410361772391
Ni 2.995249620368832 1.5346161585117106 8.988123681939152 -1.6897858189769543 -0.21502290004023616 0.6473086451948206
Ni 6.355931413369429 2.1233928376614197 2.2120023132030857 0.7031854017577824 0.11771924379105532 0.386530907516973
Ni 4.495174410760126 7.056001579196423 10.409217563430248 -1.150986983159779 -1.0753921793425996 -0.47201263143056127
Ni 8.381912787745081 7.705837256695404 0.10772030314159736 -0.6496614616977134 -1.336525500587653 -0.05917933857363356
Ni 8.071853551284473 4.264145049741423 8.199178447618033 -0.4999957469070486 -1.14646621247129 -0.4600629152678528
Ni 3.396340613112796 8.769559848565507 12.486209213108454 -0.7487368651353363 -0.3727348821741452 0.2893676335003984
Ni 0.12975082783748276 4.968377084514195 10.265283524317015 -0.05753511810199124 -0.6018106607630216 -0.2409733013574108
Ni 9.039807522873721 2.79601839840078 5.654157254270118 -1.0568275289665348 -0.6314757919276222 1.246989918319665
Ni 3.793835605057117 2.9047746053260313 11.182106745450017 -0.49171345229359836 -1.1539095561232127 0.2529333019327644
Ni 1.1423235027496144 3.7226913760387945 12.495399094339826 -1.1329049288470878 -2.500696072317242 0.9514315826275226
Ni 3.1225608263440185 8.309709837679149 7.766146936096325 -0.13997471275514603 0.2432484705448327 0.9848320124648393
Ni 5.917410980830194 7.85674151360226 3.229359312021748 -0.8519471166769391 0.4933440459184858 1.7276661389624954
Ni 3.3287741310829513 8.497130843822992 3.628728057682228 0.8220963518640939 0.3395601951943894 -0.6642056780604755
Ni 3.0851040058319987 4.409052929680345 9.21550684417751 0.9027341174218195 -0.4421256140631418 0.16571222673056624
Ni 7.597847709839113 6.462296371031974 11.304053156323604 -0.5532625766509892 -0.9515969045607933 1.2768543099792655
Ni 8.137731555781489 0.2452016200077548 2.224893154648304 0.601753582272841 0.11313111019974063 0.43507770607742485
Ni 4.673231211775964 0.27221452246131855 1.5074134164220234 0.4846763429411588 1.4434813352146174 -0.4560820762432339
Ni 5.645520463517067 5.568754060659708 0.3956258016809531 2.785878206981383 0.5302676584177126 0.8065854007126882
Ni 8.101625517295732 9.077337358630404 11.195664763693342 0.30754584707132193 0.17792805207046775 0.3408532029742001
Ni 0.48717049005806384 5.10832905472163 5.937763980279951 -1.2753651270282487 1.0957141787294034 -0.5916257498102198
Ni 7.1775719615599956 6.0145395100428924 2.319696148318493 1.2664631965529285 0.032031060293615805 -0.21299789919040737
P 8.917744287608674 1.5615405299811205 3.9420967101071795 -0.4449224600819886 0.9224195116658886 -2.2036467539018694
P 2.0270674761400116 3.4474786650935094 1.695964333477023 -1.787642776626444 -1.1627472090195008 -0.5114461548358353
P 4.9003542572052075 1.0322895290427645 8.155857590269031 0.6012411614127967 -0.24919028995056436 -1.3641826001832893
P 8.8239014444058 1.7447996671791832 12.32776795757128 -1.3860973979785094 0.3768051955887769 -0.18971476029275067
P 6.617736700013507 7.988661806896787 1.2691418558233274 -0.5124347440013497 -0.6226533085399858 -0.7892427956691828
P 1.9247183569339221 3.633174686082193 5.99974570878365 2.147804193010953 -2.104391887463589 0.802689922313024
P 7.192795640072191 4.106340852213931 5.917525979840537 -0.06511524444209431 0.3663834860348206 0.004592504466688865
P 2.4707172296168096 8.57952854742497 10.057443805003219 0.5513118806825215 -0.1933559565897638 0.3164120392127002
