# total energy = -340874.532944796 ev
CRYSTAL
PRIMVEC
9.16010349779375 0.00000000000000 0.00000000000000

0.00000000000000 9.16010349779375 0.00000000000000

0.00000000000000 0.00000000000000 13.40673738647464

PRIMCOORD
 96 1
Ni 0.8625345831913753 8.527726608754218 7.479498407106419 0.962418934876962 -1.4455348753095363 0.6453466363724434
Ni 6.200932074490709 3.857008146654117 11.408074442523363 0.3474604238780726 1.3466088529655842 0.7532267825858899
Ni 2.536286101651947 5.99903423291622 10.284241494493669 -2.5300282456224554 -0.4175278701191196 2.2004488157898616
Ni 2.7142302725346656 3.3160948739888525 9.687869291107086 1.0238837270506624 0.00940560958461606 -0.8093624492371931
Ni 1.0057335654312836 2.953776139555873 7.971405125966344 -0.6964586245569102 0.17712175411908848 1.3457341636701148
Ni 7.513464986950454 2.6956810629167562 7.697384293356018 -0.18342378507771637 -1.8570957292119437 1.4145973051904153
Ni 2.1979759985318266 5.885045904775349 3.123394692353793 -0.8196106093277626 -2.511296473540907 1.5871370963657763
Ni 4.010137597114655 7.732547182719113 10.58587912319142 0.5999584380456312 -0.4732927836945655 -0.4904813796587101
Ni 8.67522259555302 6.4380047135628615 7.051729817048293 -1.610532335361265 -0.4871685132353933 -0.7722488322143475
Ni 7.704654667515887 4.920019839364802 9.113376910976474 -0.47775184790718367 -0.317399342826634 0.4135087216573975
Ni 8.06922678741356 2.382121559494212 3.0993292683991407 0.3923619123764533 0.6514694614407297 -1.7183644019455955
Ni 5.408015194023814 0.1881805865607502 0.7412841249837994 2.1877269973478195 0.22210011860199166 1.0465004360089136
Ni 4.292571068793172 4.051953469660708 5.466570239733207 2.639006252885771 0.6231798704674171 1.345811039654637
Ni 2.2179175438840186 1.2905028635061297 6.655547095930646 -0.7073454466727431 -0.927464530288964 0.29880435343326606
Ni 0.26643443487918833 6.0880429587716405 0.884507839503198 -0.27827486602134655 -0.22375385215533075 -0.16874252891645777
Ni 3.469636529107566 0.9020851621381639 10.840044515422594 1.5012550516899759 1.1993064962007733 0.19073060315177476
Ni 5.396088739247261 2.106274202242992 2.3650150661799176 0.18336490681532291 -0.20924151747176867 -0.09145131123346185
Ni 4.39433981884501 6.385370758765574 5.851906482278721 -0.07464041032371016 -0.0491234969995283 -0.5632644250587073
Ni 2.660139861278491 7.367617818784354 12.671297601751421 -0.6359911632994725 -0.23113060423537615 -0.24428308245693411
Ni 0.8358502856417794 4.015670299637725 3.0423369363494084 -0.47392527507224186 -0.4861770958564014 0.5485685136094295
Ni 0.8974748820390558 3.7957178940351386 0.6298743659824059 0.5017497534836778 -1.0249980431607637 -0.7449108065210267
Ni 6.270869464827863 4.602695533397585 7.315211950564591 -0.9021957284198463 0.9949505889560801 -0.7930601125327438
Ni 3.8373139240968306 5.3055044755872585 12.345433331277155 1.3174677126252536 -1.2925598936399803 -1.5150109678234875
Ni 0.714060297337169 2.0339826653024784 10.899181227705192 -2.950352961760422 -0.24994645139029859 -1.104892759904878
P 4.492673530078717 8.749465234542232 12.41538995783169 -0.5012319333069949 -0.6307641105725782 -0.9164764067085763
P 6.469561270172095 6.632043186321465 6.453493532596403 1.4462195600813867 0.31434204405754895 0.35606410638668357
P 2.427876276551721 7.055221648508217 1.4820213917877518 -0.573695133473728 1.4446061928476797 -1.4505464695915147
P 8.233046078676123 4.332783923224096 1.6123614207132795 -0.8876862219497615 -0.5369571546227463 0.9433598613629818
P 4.449007316622631 5.93684629015277 3.5495813325348764 0.38828671386581515 -0.1410859435414538 0.8472723369090892
P 7.521223594627672 7.470073576599819 0.6518787666461796 0.4708900877903439 0.12315661275654273 0.13834643312310366
P 1.8737083341002274 8.129802551958367 9.651416659169076 0.3340950583147601 -2.2861881642402113 0.6749863136157472
P 8.874922012283905 0.4045797880098616 3.5104741025982147 0.28205130234464326 -0.3673890444811995 1.27105287280614
Ni 4.293074874486498 2.125684461591313 -0.025341426374294325 -1.166252908179914 0.43718241112525347 -0.7020988535618231
Ni 3.0264157604299573 -0.008081959331299434 0.9904517647371808 0.2968132911451662 0.1153707981635368 0.6085510648106487
Ni 0.7041014327956426 8.314900763686316 0.47105923927009696 -0.9771909509798138 0.3437348953973693 0.138862967748206
Ni 6.846838453645097 5.453238625077452 0.016882070778176196 0.6469576896133052 -0.857553407120123 2.0262542626198976
Ni 7.7022547203949525 0.2976923721138321 1.6504225668285262 -0.05618374628041937 -0.4294323348661895 -0.8462482665199491
Ni 4.5525256464458375 7.083453087541499 0.7149534074298831 0.24683747344767168 -0.8085772343317366 -0.3114935188651603
Ni 8.112929641283706 6.204715197242411 3.078146529020664 -1.0697398661528286 -0.35483794728906637 -2.6302189936114444
Ni 5.423779732173157 7.1989894731764075 8.241429405413067 0.5533330248776083 -0.3401080972780594 0.826381609503009
Ni 1.9031580669010069 0.9161843934684779 12.471108119482484 -0.7136685606772936 -0.7294906153112146 1.607381705547425
Ni 8.372930019453946 5.981346073028722 11.63529172622371 -0.05092249788148004 -0.1484567820842282 0.8813507666500369
Ni 5.8750339116334365 6.633453842262778 11.832626004227016 -0.8420643103455884 1.1902333302549115 -0.6391981002725443
Ni 7.587689305732636 8.686416242048372 7.546142740229925 -0.6558591058679931 0.34041405855425244 0.16258473684517807
Ni 8.060039203587998 1.4647921530863566 5.45371311843953 -0.04845783839107139 -1.2829308551906486 0.12788512858046364
Ni 3.545372264969726 3.9556807817178794 3.1883902068445953 -0.5728335568043812 -1.1880545774360378 -0.3596353686777096
Ni 2.930161392694159 6.634498094063489 8.148440614580373 -0.24174848896053847 -0.43672784008633814 -0.5899617318442355
Ni 3.032763712165864 7.8173331008541105 3.6606961362030863 2.5497622337162733 1.043925476192886 0.4739083057913774
Ni 0.8903190091731247 7.794890847242319 2.9869677746425367 -2.2084135791628934 0.6308083335469523 -1.0135748889254865
Ni 2.090088299331957 3.2278922372427545 11.956208624789516 2.2677821509291975 2.4021120066937405 1.88925560177394
Ni 2.9495441717319353 5.0270098484201995 0.974392271254653 -0.06923980813342914 -0.8684777673421108 0.2964181125892766
Ni 7.0508889195456135 2.5871063559532606 0.39325148799284015 0.8085510090794913 -1.420391286164373 1.0458304065250827
Ni 0.8535466896224407 1.2221043705594983 1.592130416090013 -0.39470315891512026 0.8117150086297698 0.31905230504902476
Ni 5.722087663243198 2.6400792345806035 9.412588944263446 -0.3584814575789246 -0.2846527445232323 -0.641564800732508
Ni 6.135739617774333 7.456745625985469 2.589886447370068 -0.3928547928524718 -0.8026205025276694 -0.5162415193419496
Ni 7.647687983755997 8.731685473619585 12.148260271095712 -0.3306124990827984 -0.057553372934436374 0.5117138066749252
P 4.295868706058578 3.078573389844464 11.160411807777498 -1.2160415495672667 -0.2762940881458919 0.29745863803864897
P 9.114412918684023 1.233352977675939 7.31623055407546 0.3367204117527491 -0.42623979607082074 0.15411063793589588
P 4.631668940815583 9.090560009130918 2.7818712249206046 -0.10856328832340012 0.7729895670351139 0.26004548749751344
P 4.2914443760608245 4.052686277941908 7.9151236179493765 -0.12325765711078127 1.5812991495277606 0.31514448535418627
P 6.672631604996505 2.884342554912045 4.52815244301308 -1.69380008234267 1.826190554992655 0.561532015748633
P 5.565349131997744 0.6657334232126427 8.043653610420336 1.633440093197374 0.2052388240702788 -0.9680043993845393
P 5.441788495683681 3.8735238132916927 0.4178115575373036 -1.9135566404131497 1.6376739287730633 0.6596391417357155
P 2.601899923130013 2.449539921364736 1.2673268856027853 0.0029709097028658513 1.1854829600541197 0.09649992940096283
Ni 1.7359586974414027 6.435879569547377 6.0729571842927585 -0.7384087437364508 -0.6019240464124342 -1.148579916380183
Ni 1.3207586854162305 8.853304167988464 5.082654729242872 -0.4485520864147759 -0.5074383192280228 0.1317546388381989
Ni 6.871048607235287 5.283978232326969 4.836882739862507 -0.6364591040748265 -0.35221773605739987 0.454680567910017
Ni 8.04479679133901 7.855823855824211 5.226362097227864 0.3652020641322098 -0.09830432959955328 -1.273936365001522
Ni 5.778312378618372 8.605889772047858 5.938125956613818 0.5240944397274652 -2.964280884695424 1.4443773646663254
Ni 0.19575599216766923 6.776195735337287 9.345233787107174 -0.4964429965587837 0.4778462073932028 -0.11486634772329249
Ni 4.560476616296872 5.255820074121806 9.811600305346529 1.5803907787808784 -0.7935676482967817 -0.6906605298178945
Ni 0.5876572809023959 4.485638570579184 10.210892881607524 0.5638974306570159 -0.6820015685913158 -0.18388812630864457
Ni 0.6714264275472257 8.012415825413425 11.52016846125733 0.3887970778433304 0.17234053068036126 -1.1575736352383612
Ni 3.714083051509308 8.911040300443617 8.511736732058404 -0.5123781797318014 -0.26223066807429035 -0.8155654927241115
Ni 2.926588952323303 1.4451895315642205 3.188068687211218 -0.24468391743977858 -0.30200383420717025 -0.7561946069649622
Ni 8.642823309420406 0.37232889555418996 9.579100389949074 -0.6561136450809604 -0.007300647426471298 0.2870783232455894
Ni 6.0814843246548875 9.01888219912591 9.89650530482722 0.6504950133426023 -1.1763632571410387 0.274652695887727
Ni 3.9773535866344094 0.29520906805091096 5.020313812750722 -1.1864556083800342 1.4364018026600167 -0.35206372697803884
Ni 5.744758919442865 1.5783957568795965 6.0146375532437 -0.5792062930999443 3.3752562984080066 0.6753172145926046
Ni 3.9321576358913157 2.03201324304675 7.809826396023554 -0.05374608337320422 0.10219775111668851 0.3111189091345609
Ni 1.8248117015370668 0.9263887487842069 9.34513943804097 -0.42929349529548005 2.1332211529904557 -2.57997552407486
Ni 8.448445912831748 3.8339063655892445 6.078533855312701 1.166744760214668 1.3771854402008605 -1.5129219465049428
Ni 8.379571094502333 3.4833675242765767 12.07263262445503 1.003862032513097 0.1325755920775975 -0.06057416203863116
Ni 5.797915000140509 1.2704605570152727 11.727677782245117 0.5474673101254507 0.6205275204462345 0.3211932626514275
Ni 6.483576228550071 0.32618487409729224 3.8805395365738438 0.47761275122615815 0.8940630720103829 -0.24073470298404345
Ni 1.0195012010143538 2.0525135547133577 4.7745949519707445 -0.8541091573252646 0.670651176575503 -1.6158761161716815
Ni 5.920202382065984 4.461364296264389 2.780222406287902 1.0088779976704496 0.05892402802971788 -1.178675707324299
Ni 1.9311696634499287 4.0005744490449775 6.09857707781391 -0.07069119586797502 0.6091737859963122 -0.33797948097083086
P 3.102545380743263 8.021795771412803 6.374943812934431 -0.1767332604314182 1.4949339945679545 0.5619189667744064
P 7.845601180301452 2.59734735168305 9.8860609547994 0.672386671209371 0.4934566602369502 1.2915247675072465
P 7.208690022798811 6.898996083059603 10.21364091266203 -0.8893062740516878 1.449535768938813 -2.4016656631849416
P 0.2773963307556091 5.90953086147099 4.50186202991463 1.433001775839532 -0.286893460928293 1.922118928160864
P 3.0828877986000367 2.4977953466818454 5.042099286940487 0.3039758703318765 -1.2899047154053205 -0.738091212496032
P 1.1664659018092856 5.446570069718519 12.266279960793542 1.8317616213225292 -0.7777710475841573 -0.024345261613583878
P 8.857261332706951 1.3495397306604136 12.976005697147405 0.05461768734488013 -0.13695263809937058 -0.23315097709951463
P 0.9028262145125288 5.107252355211747 7.850448707081599 0.9856197984734574 -0.011260146294851576 1.0615624725483588
