# total energy = -381170.1168426419 ev
CRYSTAL
PRIMVEC
9.20966590433054 0.00000000000000 0.00000000000000

0.00000000000000 9.20966590433054 0.00000000000000

0.00000000000000 0.00000000000000 13.47927697828013

PRIMCOORD
 96 1
Ni 7.5807889853792 1.021563751011642 10.909628186819916 1.1398746752967015 -0.050445558245061514 -1.4095857109084369
Ni 1.4721650658493817 7.437698409038243 0.6414320353879137 -0.39201532767031194 1.4540192586314635 1.0449441472653875
Ni 1.6193999917657662 1.731196123979377 3.305576506790551 -1.0535123485503728 -0.5051397530018333 -0.8869202903180144
Ni 1.5889988852135686 5.383427211489918 5.958702534121984 0.7027092334523124 0.7141462716446605 0.10064043393189763
Ni 6.088749460899208 3.8982765169708613 7.48010891969346 -0.7730286478031655 1.2856670231748888 0.9924283367548586
Ni 5.798331861984636 2.2015521717933253 1.4739185862030741 1.0768183702661647 -0.969539347971827 -0.997238099438676
Ni 0.22318888106854606 0.9438157529766061 9.055256467659376 0.4189028960897753 -0.6815498257658779 1.5071269370897207
Ni 5.449571030713755 5.46899421572393 3.0355058223581874 0.749258027746129 -0.5338880287791192 -0.5330647615468754
Ni 2.915642022971076 0.5516249010549535 11.90058361380059 -0.02635535006507719 -1.4134058559854754 0.36980665278375663
Ni 0.247390040655903 4.481920662845574 8.04258556987003 -0.03423372437188942 0.6800094778619514 -0.056745789431476464
Ni 3.8128200287255285 2.003673294065206 2.737088707796466 0.976513465296815 0.7796474386712637 -0.6032394227897481
Ni 1.548881581323422 2.611907247420794 7.439603888876368 -0.07411976193354977 -0.9414734429735464 1.3661934599657308
Ni 3.933199569393137 1.8141567928137292 0.029776691216166537 0.3581400150791058 -1.169821856478095 0.5800868959326849
Ni 5.973932558328396 1.780596770918483 7.615898994015656 0.775091186759149 -2.1651745659686 -0.013272805849506174
Ni 7.541933405693127 9.077203101077698 4.766757204331903 1.1712966412514088 -0.7536898382652374 2.495300098112651
Ni 3.4488724586771338 6.777761392312756 2.357525228547857 -0.0974178132295419 0.7885126023713774 0.05262559661551582
Ni 0.9872024881984793 6.111736786544251 9.740165492993249 -1.1247031097625857 -0.26951023245483907 0.30502719441452625
Ni 7.777783735197894 7.716309216495706 6.9663596898916325 0.38951235874280016 0.09802639334781828 -0.48386130323903115
Ni 4.911146343539826 6.419818524315871 13.074897959530226 1.274283721038612 0.47302487474515953 -0.7859412420997755
Ni 1.1612375413693006 5.835796782146508 2.2124748353410095 1.6538124862061387 0.5039850705720997 0.8716358533551182
Ni 2.249258240239367 4.34043256834045 9.28315056694589 1.9975859481509275 -0.5655696761531164 0.5752740479250739
Ni 0.41706892193966283 4.949090166319304 0.2053635730613426 0.5471227823018384 0.9620127005774788 -1.450670653874205
Ni 7.201903337527816 2.3383249174481837 5.467491198277907 -0.30811534642154675 0.058324960993138254 0.8199775057488782
Ni 8.216550629581356 5.430672796649802 2.6072692597626035 -2.7916439058205667 -0.2582667983305359 -2.4011987508508517
P 8.599175401716346 7.1058557337008335 0.17368416490676827 -0.6533952177085328 0.21870420554656528 0.3314100552834292
Ni 6.030139148236928 5.499321644950342 11.005249383123916 0.6167084038104604 2.612017125891437 1.1255991392142937
P 5.669589944840384 7.204776753233446 9.657389938439932 0.7896991664803109 0.43679623143042845 -1.3002109824273351
Ni 0.024754660497319697 9.041349872417383 12.7511800512938 -0.4414486426007752 0.7440610569262218 -0.04564787974610203
P 8.139649920792852 2.5964257993401385 8.353849247149007 -0.3555727685725618 -1.5448445062451523 -2.3314745468818368
P 6.135414837118532 2.751304747806757 11.402942089348592 0.15855941773586887 -0.47550418952358753 -0.06737627256212912
P 3.098030242952816 7.636056189383967 12.832271157986346 0.8221128069243261 1.2546626043735747 -1.3873346128197206
Ni 0.7161592630657484 3.914660512292388 3.6236746770026955 -1.4050780528460705 0.010439707276085246 1.0921781405516866
Ni 2.756121402979977 0.24306610259887274 1.766162461830552 0.1304343773648786 -1.2523465546458883 -1.3959238971506283
Ni 3.3863848767453977 5.856564578352265 10.911474724797413 -0.012554696736559023 0.22771592212687236 0.391733534763835
Ni 2.244966536012368 1.343054762076204 5.528822046194812 -2.3078787618397674 0.7886522132730354 -0.42314933007095507
Ni 0.9675766905423954 1.6421386564362832 11.432354077802122 -0.7224113398669301 -0.17642781337585745 0.9761095449901769
Ni 2.984060629628537 4.500441300614877 3.3120066953984715 0.8067080423334817 -0.3436047975774082 0.3479535614644072
Ni 7.366940547287097 5.989008781117232 8.714823937101961 1.1133501466436115 0.32150153792046565 1.7117039592062844
Ni 2.3280929788297375 7.931686459097856 10.08953508316843 0.615765580281217 2.0457385965967543 -0.7372900567509755
Ni 5.336025062012741 7.798146306111832 3.558137774750016 0.034962632118113984 0.5762855199087237 -0.6831295115481719
Ni 4.975881083908018 1.3980180471121069 9.792855832528673 1.1450076256478925 -1.4946439741313613 0.5050196824842011
Ni 5.296755047369127 8.105104464665224 6.0127816912484615 0.21202319398196387 1.5722511803928794 0.35028683758327417
Ni 3.3890280508079487 0.009503454059743366 4.074273228940719 0.8362703293716307 -0.28475250332589025 -0.7350452265808567
Ni 7.08385384228817 3.0572590527963244 3.277674903515623 -0.72260725792782 0.8595310996717841 -0.4051269253516055
Ni 0.6454262674120542 8.325970668038387 5.598307132143017 -0.19600444995620436 -0.18632476077459523 -1.1372279817024737
Ni 2.9534845394275986 5.630402817188278 0.11689736605767669 -2.432532270856811 -0.8419959190014984 0.17460387279324124
Ni 4.459200417506503 4.108164798801999 12.389693303926636 1.860049669633945 -0.37948531352410125 -1.9652939208864413
Ni 7.886651193711535 4.974656198366835 6.5443101807288775 -1.3075833636320062 1.8260208621840102 -0.7211540704210613
Ni 7.533442093896361 0.3050545206484131 1.0209540711407679 -0.9398186809789428 -1.3888518207951952 -0.005031391776320367
Ni 2.377300222788657 3.2561049454253768 12.776615306088061 -2.135096001415665 0.5521315483703394 0.8837773738136586
Ni 0.48087532800295774 3.1683828794121434 9.867625424668834 0.9266826578176169 -0.956860724062894 0.9951205388750409
Ni 7.254039255186705 5.426141641114 13.18704590097446 -0.6722411467704422 -0.7321257389412165 1.0269991327511927
Ni 7.597172980700726 3.784122710332118 9.905515831387117 -3.0193770543386194 1.0034416571462266 1.28582900267405
Ni 5.476850060585797 4.142793141921134 5.093401023368581 1.7745869718837501 -0.5166341267946779 -0.11564307798831697
Ni 6.852497829656314 6.808936110785701 5.028996909999852 0.4240970386962051 -2.172889161004038 -0.7924487042009901
Ni 4.940506757865307 4.021630779667055 10.011234505190005 -0.4850851483438033 -1.3828742630555215 -2.0348034377414894
P 0.30083096794776537 6.701947424079587 7.761745102340986 -0.38461569277213115 0.5051844901968396 -0.38615089846973494
Ni 2.524424632716363 6.313981045825154 7.957086717162371 -0.056813923665250544 1.5557223294999207 -0.41076998256999575
P 2.599483408360232 0.8808649248589941 9.04343586170368 0.3767303764867835 -0.14589313512211002 0.35577717127388403
Ni 8.85521331848631 0.9505940669488624 6.846892827097189 -1.082461170374239 -0.11393406571701023 0.5398740711592251
P 0.8083001266929607 4.318513563919296 11.668389521587924 0.05213991522834891 0.2732018223738134 -0.9744434701416638
P 1.4360723858802624 3.656357017754524 1.7096040626913953 1.2092103855780465 -0.9139672671334776 -1.403812812980402
P 6.1723455966684595 4.328340277245923 1.418087750656048 1.4260996494030602 0.21180644998546752 -0.7466337027494044
Ni 3.3485884086174913 3.7814519072723978 6.011083428889108 -0.35517373336193026 -0.1615696653171024 0.5826536282185965
Ni 0.9803320775689915 7.1637108537738134 11.785227945784973 0.5400666467860054 -0.8160971968578655 0.9297119315622439
Ni 7.106675393950196 7.7317077775848535 12.152983712609899 -0.45424168060038544 0.28983660271701694 -0.23370453561013943
Ni 0.6374110953331757 8.444038582609478 2.724781831490588 2.470154709195275 0.08850405567967982 0.25743118980311797
Ni 1.6828269596012664 8.59807945149529 7.613217139357068 -0.3294891841116325 0.6845515887066792 1.0978345675065158
Ni 6.165576492361926 0.7769366100726913 3.441906267524125 -2.727208203944 1.0867615975218057 -1.4007434300264585
Ni 4.347524010947295 6.037709493461376 4.943443720264427 -1.415246251628324 1.0669021395937175 0.6102274240718071
Ni 3.000159125312645 7.769448987718421 5.855222730056399 -0.0586085536718281 0.45922730674043494 1.174032552125333
Ni 6.309136761654765 7.0472914693671695 1.2838872646376718 1.0728133628718297 -0.5700613933758828 0.7703613853836474
Ni 8.351785361060443 3.4083223004979986 1.3099690379657007 -0.5407716432728299 -1.0978121989090126 0.16281510768842924
Ni 3.67952853671403 2.728492405810455 8.294283892151233 1.1660230515572951 -0.3593165518857102 -0.5529442740796219
Ni 4.119188768672639 8.295523513157573 8.25404870453983 0.6811929566470915 -0.4426676026095409 0.9450282502043401
Ni 0.9375715996162941 1.6295766723898737 0.7791128540830773 0.24780086580220548 0.06729245459907121 0.36196401681088625
Ni 8.319118676740345 5.740725402886182 11.129030053343092 0.9872462783332867 -0.26230548717628377 0.2614107432761562
Ni 8.645702632949822 7.9463021986005336 10.062050677750763 0.10219415157226272 0.38298741314008883 -0.02680940688336028
Ni 8.050767436898496 1.9247556684833274 13.070073015657853 -0.3928378235716073 0.783015069591916 -1.4011208679705354
Ni 3.3099999092373915 2.5924472237477274 10.740382159825144 -1.8979006790434474 -0.40370407686214993 0.2588473534243542
Ni 5.83510605721727 0.7687059318158905 12.321434024486186 -0.5734475362392962 0.6464090161986867 0.7364832445789639
Ni 3.881579393014747 0.8619860310930596 6.7934611094710515 1.5210119226019287 -0.21522113209397126 0.2941668546612547
Ni 5.568532282859994 6.216625669465481 7.384096312596225 -1.1367111899670552 0.7918658351143265 -0.7716027139899163
Ni 4.652511301035928 8.2047254187928 11.23846851113157 -0.08550254984919468 -0.32999774831693485 -0.18554494518577724
Ni 4.113662969238734 3.8864605158480288 1.0279009219957582 -0.37047848203980066 0.13271880252368112 2.7700116722627715
Ni 0.2659125203583508 3.540886228917367 5.845854658082787 -0.35007832111689385 -1.5751256737271968 -0.6366349675310585
Ni 0.14317898913189867 6.302386076679678 4.335743927520782 -1.1928010909820876 0.8431020075814835 1.0280591985845906
Ni 8.438798282812991 1.106992610259805 2.9573940425270857 0.6757129073691266 0.7825759251719684 -0.6325937075821493
P 9.207814580363754 1.5216117611171036 4.892006816233927 1.0233638499914504 -0.11259117853587063 -0.7792216639877547
Ni 7.8421316696057115 7.715775055883762 2.8851718439259546 -1.5412799288223455 0.5956068459451549 0.10614619424147526
P 2.1312824223255067 6.834373207513107 4.206734009103987 1.203508964317895 0.09176807114293228 -1.2143227671039474
Ni 6.971385404476768 8.997806572878215 8.699187766637156 -0.9408000710556055 0.03746817214878709 0.6504248222262992
P 4.385099447097844 2.340912833516396 4.7064781002405836 -0.010902248734800578 -1.1419420993486913 0.8066869592875591
P 7.8088939860107764 4.651295625160469 4.47084696078003 -0.6012781852983193 -0.37069342626408414 1.2036580883012495
P 3.991183624786242 4.92177429778437 8.16861708239195 1.8299361380780161 -1.299673107645994 -0.7457214753477802
Ni 5.049318958384608 8.815298627242074 0.7361829182810735 -1.100668437410885 0.516378044919814 0.22482780194579988
