# total energy = -340868.7064891339 ev
CRYSTAL
PRIMVEC
9.28130650776812 0.00000000000000 0.00000000000000

0.00000000000000 9.28130650776812 0.00000000000000

0.00000000000000 0.00000000000000 13.58413024295398

PRIMCOORD
 96 1
Ni 4.633822089999677 7.743393815069244 7.332292276117104 0.7191966895843742 0.6124869095299452 0.9750175974775789
Ni 3.8329845791124066 2.9197040428510936 2.671264821199854 0.9325018356025553 -0.5274047350476208 1.8825005424382935
Ni 6.6610914104557475 7.602438616855823 12.768620655870109 0.7529460181206774 0.8438676821029144 -1.388363311194551
Ni 0.3589173944894435 4.598720189713698 4.334003413138729 2.813703970944399 -0.052098263357136076 -1.1965153066088814
Ni 6.269763694496542 2.9063668057514236 12.49261781087955 -0.2203296569651302 0.23334612382945621 0.10770891074290481
Ni 3.3836301363980628 7.815101187255777 9.642395482973166 -0.18383439025257373 1.3559473567576907 -0.479745995519077
Ni 3.7821137394859003 2.443257467155583 7.6521307305869515 -1.0032436822028077 0.37183988116370154 -0.8512560041471856
Ni 2.0786320693145064 8.797796613056708 12.25983986541619 0.2686725670448921 -0.25651536285706794 -0.41426642575902844
Ni 9.03996445606616 7.542871193261055 12.896229335677594 0.5018579969267679 0.006261664638995667 -1.471505588341685
Ni 0.9953551275434147 8.990569344135443 9.768320533824578 -0.6546738273106403 0.920460331056989 -0.39234108644084686
Ni 7.227585219513121 0.16798700270387842 8.045241385479244 -0.04392781173120177 0.2718571354204608 -0.5781986777710365
Ni 2.199762397350547 4.349053051243889 1.6940908444946743 -0.5910148556990983 0.14678196548496655 0.39191608308828635
Ni 1.1700014674908652 9.028724794181889 4.478958854351424 -0.15840180911208204 -0.050005128273533234 -3.3078396595262456
Ni 5.219880892659071 6.610879543573901 10.805523215045788 -0.25077820326297456 1.619174070196663 1.77683437315703
Ni 5.0460884328878 0.492650808299765 9.038336514947662 -0.9603764505256364 1.0098089941251511 -0.55405216243182
Ni 0.43498233996637026 4.625719509632237 9.506011328094182 0.4440485421174675 -1.2632202641355987 -0.8507852351583541
Ni 3.4894927156317674 0.428355487294718 3.4959441516150522 -1.9593320468760513 0.8435136411976052 -1.1505434678644573
Ni 6.378197195565048 7.913501596254176 9.383414553668619 0.7101849730040672 -1.21789557205687 -0.1759508737394389
Ni 7.711902342919501 1.4775561131218726 1.5888408314743159 -0.20062215123387386 -1.4349853819284644 1.1236294170824326
Ni 5.836271004185355 0.8014008861774234 0.13021394247546084 0.2820698142874045 -0.35572652054160675 0.8332030033002168
Ni 3.810941476738214 3.0081177663107 9.974405442476074 0.7309823693653927 1.2387569888869117 -0.17763057543470698
Ni 1.5291973011681932 8.465386629253873 6.487698974984403 1.0320567497797581 -1.367057350627923 2.470762260872287
Ni 2.711663562970023 6.816868854770889 2.6227291582290726 0.4079425404235297 -0.7430714393194429 1.3991555167140484
Ni 5.178959613346306 6.256231549965354 5.174344947872433 0.5386365992076982 1.0679879164587283 -0.6010308451742036
P 2.3948925802200374 4.340783407363718 8.460291192115585 0.44165715906715547 -0.9526721399028432 1.9895723338178313
P 8.106005169451288 8.21429016961959 10.81006084567768 0.43201526510201727 -0.28459772291558083 -0.26306370549854696
P 5.4799987819808145 8.59220639802902 5.46287105940341 2.049723292276115 -0.4995573738180493 -0.5853224333000113
P 4.861650314833076 5.615069632023609 2.657884890091376 -0.1152548414109628 -1.175244570155563 0.2252348075762315
P 4.339066365705096 8.552111154973646 13.277251089162565 0.14054935431169344 -0.7764415301394564 -1.0041854772907866
P 1.8031443368215359 6.3093206217886735 4.623915223694745 -1.2300075248290558 2.556660246387687 1.5423217398232987
P 2.6665935397577782 0.4850624122992848 7.831074315334088 0.3623815639642792 0.49711534003546 1.179485347709788
P 4.052097657365019 2.976459230648227 5.3499871719818834 0.6063054633095816 -0.06125858970016546 0.3523231512870126
Ni 0.6350492496370536 9.467953331763498 0.49274826201552463 -0.1381327744504008 -0.5105861208283852 0.06172961579931304
Ni 1.6331015247804432 6.476848199832543 8.323594257215547 0.3676633811885087 0.36760501714674754 -0.6700374542509041
Ni 5.716931968258038 4.016114032984073 4.226104515310962 -0.3226114831551928 0.4230467430548198 -0.2897319588183527
Ni 8.612736647482375 6.636458823634228 8.86538308526255 -0.41166266958759423 0.7352534859369209 1.4778366727660357
Ni 1.9956664726311741 3.611690393888032 11.540125611919082 -0.4794490331039485 -0.6230693130314818 -0.5646448503460016
Ni 9.210796179139594 7.790264411696476 2.3850339767076716 0.017138973673131774 -0.3005447331631404 -0.2392550331147234
Ni 6.165525343858831 3.745545392810396 1.7084620191120221 -1.0816538439815953 0.5807414987975482 0.5557799437562042
Ni 3.4789120264921545 8.223487944126042 5.086672800783226 -1.0015038166935655 -1.6651672490973257 0.7613319281915275
Ni 2.538483669412098 1.3814760306891785 5.605219381686879 0.4037992076791175 0.2691415362615107 0.5454988735451702
Ni 5.624620096168048 -0.16303449768203862 11.433395230549804 -1.118291806919603 0.1686314572598902 -0.6594123704368902
Ni 7.902428997882634 5.664984497105045 0.37829397757432914 -0.5016831619118006 -0.9227730383505656 -0.8226640514421057
Ni 0.46743349918368793 2.375104835267709 13.490168895484747 -0.42544506808366733 0.20518843044831755 -1.38090325537208
Ni 1.5258189056885274 2.3356407210382057 9.27088335588508 -0.6049088400723711 0.1988807430627349 -0.3529551284440567
Ni 6.1169841121042925 2.7652816692503244 8.334963857387498 -0.005401116410913279 -1.240870949906121 1.2726040193433437
Ni 0.799192863417499 4.6650165603490095 -0.21843925541793202 -0.9910461116953512 0.9594369694305025 -0.004981255264675292
Ni 3.2893042208490413 5.547900818599593 10.08580896154868 -0.5520099351908105 -0.9043713959149264 -0.08362795853430113
Ni 8.579806572861896 5.67949117879383 11.127820287544656 -1.880948110349509 1.055218532608202 1.7343399514382452
Ni 3.0541994519055926 0.9776556765002203 10.397904022203459 0.27998027874822745 -2.173623982287534 -0.15401422156734768
Ni 7.205820556326811 8.39276040774732 3.5427005881752516 -0.3024548057016598 0.36877744018829395 0.10262969644778454
Ni 1.9814196675177485 1.727260376816734 1.6954486996009246 0.5161949823747304 -0.11517873675738875 0.1896805646207056
Ni 0.2507549075638125 2.4190796643409413 5.458945994984864 0.4794462048904711 -0.818793512743106 0.7331040436940858
Ni 7.814729935005264 2.7770225216727895 3.9566087941412666 -0.635242458058906 -0.5820005680156299 -1.1292825016031518
Ni 1.831888542317484 6.966826920059243 0.36317751406407706 -1.5638120484865905 0.721023458380468 0.2198691723889439
Ni 4.336142754232308 4.195967185744965 12.181378486662203 -1.2372701199287404 0.8414914685612539 1.1765972275287155
P 7.693172666881134 3.244540480743469 0.41210020750601817 1.8231504826147504 0.21448245415573383 -1.3781570600855104
P 5.197522225871943 5.909509791905254 8.54972864365598 0.1778743160143969 0.47476062648934364 0.2719013583948349
P 8.95261808282678 8.004569773304947 7.378274651734985 -0.11587113483872302 1.3559874659670066 -0.8223920287276417
P 5.59653486341676 1.849903557773614 10.766007125501213 -0.38714797227568165 0.6415131215589662 -1.5169336387674972
P 5.00824854725429 0.5223417070345205 2.1715314480909327 1.7746232244383244 0.19168242554208278 -0.7063064638852674
P 0.23363182563953916 5.611932550506776 1.8317790229035826 0.938461652730416 -0.39049014927503717 -0.0014393035496878437
P 8.647940642137245 0.6613654654146484 3.8977625280431205 -0.6811484765624011 0.8171557200293669 -0.49404338597835556
P 2.343409174380185 5.660083967398276 12.227102841965978 0.6636225518634958 0.5402191132034696 -0.3749941105219671
Ni -0.20066462579400882 3.2825381485834466 2.0960308060347854 1.0479045154452922 1.8213010881108376 -0.168828917982677
Ni 3.7535087535838945 1.4110277098299917 12.637139815089773 0.05562967354916226 1.0635579057118327 0.3626458733692593
Ni 3.153806430718158 6.212043250848076 6.472008926747109 0.5636644887106035 0.8088454003914587 -0.3673291377775416
Ni 5.059741234400406 7.642997925224338 3.165781172058446 -0.7154148539444389 1.4080564187481042 -0.10936521539940522
Ni 8.977965330230536 4.876918063635412 6.81434248320615 -1.130764742575633 0.20989663455726432 -0.07102569638925832
Ni 7.235511455061568 4.812542923396505 8.451230780941822 0.13260310288142324 0.7528213196173551 0.7455232432940451
Ni 3.772108491334582 5.991918510212817 0.6260983578771917 1.0385158751415404 -1.5201873698181043 -0.6586891191176204
Ni 7.2886005268848875 6.841287971548363 6.76994999535109 -1.8869688626222922 -0.13306153057508052 -0.00926317046948082
Ni 5.884988580758888 6.7563918631623645 0.9819900465249564 -0.4931998070311377 -0.026832032591179594 1.8476168431872309
Ni 8.235813518843065 1.5277679800037192 9.59769021509705 0.16814346187987816 0.023017286830779714 0.6442652303828066
Ni 5.6009249212790735 4.526780784870595 10.279328837781572 1.941849830930888 -1.8548136180459864 -0.6996462782562725
Ni -0.45968453658486097 7.009845774587405 4.951700332586817 1.4934047024076216 0.6530686876070494 -0.3395396263690991
Ni 5.811963263083034 1.1905224356379562 4.138798979819136 0.1876581348740381 0.367046059319484 -1.2186782158591658
Ni 8.089298818178216 3.4693151558164006 10.95496245531405 -0.09791660724283135 -0.5474223158201281 0.4350720496504701
Ni 7.711698154181719 0.2039901178279766 5.79803295051317 0.00985400997594432 -0.3425444746336939 -0.3432926656536281
Ni 3.168767896413821 4.857390195258443 4.308410211119007 1.5780911841134242 -1.8211051700499474 -0.93386297761614
Ni 5.559066230033762 4.613106214421067 6.754042764547245 -1.8291429527527596 0.2689157934039498 0.32835558472782156
Ni 7.203852919399094 3.1980225737542236 6.09039038526944 0.16422870020650426 -0.43615525541231986 0.3984122323355913
Ni 5.583355408523559 1.2688009726585652 6.423704368302272 -0.47051033585342195 0.26441790553359623 1.327277499626824
Ni 8.042985099926753 0.8255582701182868 12.063305420909137 0.3829755860655469 -0.1367081261887323 0.10224428808390777
Ni 1.8574306971527597 4.510352872785406 6.541736596307784 -0.06963292980678976 -2.3315858756487198 -2.095988493891242
Ni 0.23352601874814302 0.9893872476164226 7.615941989337598 0.4643204049926261 0.16133209538499957 -0.6374862597877602
Ni 7.464369904890139 5.940797075317215 2.709137191405284 -0.17398706514484877 -0.1887778503007781 1.1860740566708994
Ni 1.1548172504448946 6.8986835694776305 10.609531726955108 1.124204315749296 -0.6426384934126609 1.4136614236397074
P 7.793355086681993 5.1633948627435595 4.8012160172333616 -4.036998602529654 -0.5464974900130136 1.5250336421668123
P 3.9312457685168636 3.169974466227987 0.5984790467002973 0.1863669268664403 0.1566848264209753 -0.9560099460268244
P 7.881824497979178 8.749348194364796 0.7393302942835741 -1.0447896239653942 -0.34698631245513145 0.009605384300247972
P 1.3492049288133594 2.7396745452712086 3.549302381319994 1.4204560779640376 -0.3801373452858034 0.19057530852083307
P 1.2339589489479457 1.5223291345337078 11.52761533920743 -0.48048364501605 -0.5649736944403302 -0.05485937104204101
P 1.8947229857167633 8.647411607680265 2.0426725763298434 0.43994814679584876 2.1128616154974966 0.36476034860910084
P 8.333285797215181 2.9792343412208098 7.911628628650339 1.0684432588285924 -0.7118232799384386 0.5146345798661459
P 6.537603630628952 5.493011173361286 12.242574779506096 -0.6383483506777394 -1.000455063714077 -0.9960890734358974
