# total energy = -381174.2644400026 ev
CRYSTAL
PRIMVEC
9.19511835339661 0.00000000000000 0.00000000000000

0.00000000000000 9.19511835339661 0.00000000000000

0.00000000000000 0.00000000000000 13.45798516699844

PRIMCOORD
 96 1
Ni 3.4648492364583703 2.0138963787721242 11.86878536465774 0.23704902660234015 -0.30236584553227924 -1.2093309703163106
Ni 7.188016926052306 2.933821970341115 4.4375281401508095 -0.26967915393253555 0.9290370169824064 -1.1429494575672832
Ni 7.0846821887035905 6.87979656691999 0.5284480354866877 -0.08082159943375757 -0.7693329441191331 0.51526655702319
Ni 8.850687378279769 3.204452686629371 12.747698890421184 -0.9615596722004602 -0.16932436956185676 -0.9689382240527183
Ni 4.151090096315288 8.366031092804048 1.3660258272870218 0.6187750565315021 -1.3189041879614642 -0.37002751054531113
Ni 6.9305168384287565 6.9907172767115515 6.65189188645346 -0.6410210124138961 -0.004981769485307549 -0.22023606881005942
Ni 2.6282590003433226 4.330054680139639 12.893651161197896 -0.8165065164811423 -0.808202367490821 -1.2832728119110997
Ni 6.88635268613423 6.575079547788551 9.18931415398663 -1.9349507898182097 1.4024807244325395 -0.2680454749838545
Ni 3.819642868830698 9.074073577705798 4.118506275771694 0.15376611011228355 1.6362310256789498 -0.05410706625704875
Ni 6.995802177027785 4.496844927582989 6.479481582819726 1.6611504146284488 0.1455699474547364 0.8791756133755891
Ni 1.9391308733990678 5.341876282125348 8.393408637472323 -1.1322775796757338 1.820580407894729 0.35191974520100683
Ni 5.752723354511715 3.59408662153011 2.170988535142179 0.2962332502719801 -0.36956059821122156 0.5265251606561449
Ni 4.941162229898999 7.721324581461471 10.297242210972785 -0.09439882389756 -0.6802475620146865 -1.827852001855478
Ni 3.7700903773222234 4.017291932659729 8.017971045425533 -0.45228712797717585 -0.6991091748058799 -2.5221143900920175
Ni 8.490873211417995 8.768409461408767 5.472608793402187 0.49654018425828034 0.33153269690422255 0.13616690897328163
Ni 2.810653363223652 7.40718256626468 9.763956623847092 -1.7636006480755757 -0.5575563189303365 -0.27865410373763616
Ni 7.565117914965654 2.2147453437043194 1.082119199467882 0.21737314543996758 0.24345055925330975 -0.30443172692237247
Ni 2.834772158032842 5.094840238913869 6.211371248406118 0.05473055877366058 -0.34401874518637526 -1.2383587250072285
Ni 4.1504096575749605 7.368544679955789 5.889402348671932 1.317382866220931 -0.2779254531017278 -0.34350735276759553
Ni 7.546175971653822 2.133800718959636 6.5517910721449235 -0.38380502394537774 -1.5877598175514398 -1.1552879245279781
Ni 7.848217211414513 5.684789821896275 11.20704305798806 -0.7677738271621293 -0.8717906337654276 -0.831204484812949
Ni 4.719789761339617 3.217675266475202 13.35359096918711 0.48710834942141923 -0.9940000521173525 0.2919870734011165
Ni 4.695680161648538 6.579281716765982 13.214853188081495 0.13646232872651337 0.0652877654642166 -0.4021542158765267
Ni 5.315403537079347 2.9154960999428248 6.271232386830559 -1.062682445085415 -0.06668490292205934 -0.4843629254657981
P 6.784645484691433 8.689975103908807 9.77655301614946 -0.3156041985994242 0.22774240448943356 0.5635976400284101
Ni 5.5007679231100255 5.210560800360175 11.331905405861852 -1.388965463554924 0.1041499897470529 -0.7925093822355964
P 8.463756808104115 3.582886967669037 10.385876712994987 0.12361684022241291 0.15132459055032646 1.9005203760544818
Ni 8.764896926289776 5.520896036658375 13.172190598574746 1.4497787381875549 0.5342585247446605 1.157794750110232
P 8.971823864294361 1.0231224021460188 12.792958181282913 0.26769503362297126 1.5382007756763896 -1.3947576447566687
P 5.435813608763049 1.5426373803863747 4.468441207733355 -0.12299411903674948 -0.3486493019798512 -0.34679219416645435
P 4.542406737830621 1.0342209097078539 0.03167718189769777 -0.49583158822702994 -0.7192437407722257 0.3178024918023236
Ni 1.8980654759084674 0.19100926903996687 5.842757353510643 0.20865196351688584 -1.0450238514633874 -1.003150351158053
Ni 6.49048446115319 3.104124752903455 11.539521977724878 1.032566342426325 0.23378732513193282 -0.41249622123248314
Ni 1.8322836009313614 8.730691086911131 0.2958694764835534 2.069498418020513 -1.3844143538491318 -1.1119319261398461
Ni 1.1166459484686557 3.1682331163840782 8.683064972647234 0.6017756937600282 -0.767535228788762 1.8012194868696139
Ni 2.5905590160819116 7.6099625060005085 7.419440578220506 -0.9252096728165162 0.2526142280304488 0.6084520773389391
Ni 0.49248868708398047 2.0374818567307877 5.058547107723675 -0.18477489978897207 0.3024938864697113 -0.5558020552433911
Ni 3.6380484812261598 0.4207207902156115 9.860719610280777 -0.03992563255034415 0.9705222807103866 0.4135465168738684
Ni 6.401356181288347 7.3828890642113505 11.779114572824255 1.79603691422741 -0.211135649170688 -0.030689972884689082
Ni 8.98055003138316 7.52910983243695 10.121467413621675 -0.43894978743832147 0.7213247916709706 0.32069549707940254
Ni 8.200592527723243 1.0774379648367882 10.290015767648143 0.8511511031382051 -0.4922495273027265 1.1583218262582955
Ni 5.771757249004671 5.95784804936624 2.112930559379606 -2.329476542615201 0.8127987286122519 0.7201248578255984
Ni 5.5868250335252805 1.6494202870272934 8.35666862354186 0.23300519555026966 -0.6057189946784922 0.18458875192009502
Ni 6.163358939181493 4.045134750304498 8.711232377961375 -0.9454216289880171 0.6748806412758184 0.9601285961808883
Ni 3.2015470293058086 3.3863045375410596 2.265638483433602 0.8720564858323046 0.20545993894214942 -1.4243086189409084
Ni 1.1086737810650842 9.019095966510925 3.515104234990642 -0.26895513128231746 0.715247218018323 0.8899752750942543
Ni 3.906941320191146 6.979085452299189 3.6428345402037365 0.1322655170363464 -1.9632051566782127 -1.4658224219139788
Ni 2.8257425520463286 1.5391064550311597 8.094573735397477 -0.7970561210660144 0.3023000252913503 -0.17956095968820043
Ni 1.5168634643169272 0.1937972288516888 11.174958532357977 -0.42367023557143163 1.1890781336045457 1.1504174838095542
Ni 8.039328546265528 0.955961259452032 3.2731972286623368 -0.26354784422381705 -0.25759368352291123 0.048089656418375246
Ni 0.13641417475857626 7.532502831020477 7.860795213480656 0.923123736821765 -1.10978788321365 -1.4603637127922526
Ni 6.730431068299902 5.497430095235174 4.345287312804873 -0.18137975806449405 0.8776306374859725 0.7960104534103194
Ni 1.3300738349788046 2.646943480348003 11.123993670707415 -1.3224140008869356 -0.7712435308782847 -0.2451837398943326
Ni 4.84284802703973 8.528996171112581 7.889124452873577 0.7348616498151409 -0.5936934309725259 1.3201252048527587
Ni 5.70085369323888 0.9511981882697367 11.167893003600302 -0.1152422430054725 -1.0031094706177885 -0.01686566540708708
Ni 5.6029348804584505 1.2106660311693698 2.0145391175281913 -0.3350502231391778 -0.7224244524930525 1.0196691747486826
P 7.346402835540795 8.278686665853039 2.1803418092862543 0.924597493153814 0.563225858511288 -1.0660408200346867
Ni 4.0427899951858 0.7773635608403707 6.305899821138453 0.38353428678249435 0.4011581705118446 -0.5718148857318797
P 4.198913905618605 2.8408501311052308 9.50821464280666 2.8007360979298217 -4.37965980524687 2.2876860889419763
Ni 0.8728971599824086 5.030989338740395 11.1509224936118 0.361453652833371 -0.2698185077238773 -0.4541262380684437
P 3.1664952390608083 5.979548528111833 11.434200175352043 0.38850011542820184 0.7117680012204709 0.29800088369536426
P 8.632165396335273 3.341551897687331 2.6551262159563516 0.742717912634766 -2.6764710826004485 0.7092323792828109
P 1.8918127955919408 7.3714595323974645 2.613029126213524 1.543982415355173 -1.4574807348175027 -0.15526274926246808
Ni 2.9891765813786018 0.8699924221706574 2.1305741520139465 0.07175049037042482 0.6152562447449662 -0.7093856170312235
Ni 0.15559151309408814 0.36383335298876485 1.2585008746144213 -2.2446383658228823 0.3275318032749456 2.7987730606661803
Ni 6.204442726908319 9.2271171235709 6.009246001079902 0.0421591498665532 0.8151404893715509 -0.750909704416939
Ni 1.6705230830955708 6.733272359796676 4.940399035095659 -0.6161944402885194 1.7599195996795625 0.7526382570722715
Ni 8.004083658540166 2.6769011751586556 8.59265397380569 0.05926392786763987 -0.417582634616455 -0.27255956080412413
Ni 2.4731925284934606 5.125349640811273 3.5830000676218208 -0.30208328129485396 -0.680594403831144 -0.6953005996930671
Ni 6.5554295803820555 4.504807899868449 0.16763527879789208 1.1769594959641407 0.9510214916732975 -0.7166595249848174
Ni 6.257636485189359 8.89823533403971 13.3867789089907 -0.6609624885328295 1.9078963568035787 1.2633804438625469
Ni 3.2119283176548654 2.2667161512763916 4.349566720774448 0.225929776760727 -0.13195132823003727 0.49529551321790183
Ni 0.8783866454955945 4.0945125345688345 1.1308284986454362 0.12800134244335376 0.2678973794417644 1.0704181231667758
Ni 8.463646466686766 8.23208580725869 12.744859437948032 1.234684618589751 -0.8131851654173932 -1.03519992339443
Ni 1.3737414508952535 7.230047810944723 11.791482926197432 0.7000517412248072 -0.9707853045637862 1.380228083681926
Ni 6.195403925803692 7.938044320255909 3.835243306220432 -0.5099063211525412 -0.07847109692371002 0.925669128951438
Ni 2.367430279963034 6.401540083650597 0.5977387675355387 -0.6214690584238974 0.20946340367458768 0.6224185668213603
Ni 4.763751621035667 4.314680442655474 4.2191854630095085 -1.2524848799959654 -0.06372144941836123 0.026363063374561044
Ni 0.03147396978741065 6.943399198904424 1.5853238772002156 0.7008441552191156 0.8648532832156459 -0.5670501173533846
Ni 1.323260252457413 2.133975426203775 2.8211836124861316 -2.1970986683707063 1.0853150948832662 -0.2065896816712184
Ni 8.642896099172606 6.960281435759046 3.8699107405283275 -0.6039284784369727 1.7010531643606577 0.43749171483555627
Ni 0.340100753140301 1.0193340134836526 7.163765721542295 0.38708189492443656 0.6088518838805193 1.912241521146152
Ni 0.08938206512474917 4.844098563103034 4.384544030562736 0.3632068880790519 -1.5061766573613093 0.45094398368572014
Ni 1.6998003391658958 1.892566795277169 0.035557521741189334 0.24200894171077672 0.7997328965672291 0.579493228212744
Ni 7.899185751112318 5.182386958463355 2.4649242782866656 0.1352693368596767 0.6299601266140441 -2.118070413391946
Ni 7.658669046642628 9.09012825393029 7.891681615220675 -1.2849100904042066 0.6928498241597293 0.33165173898059014
Ni 8.450736520856761 5.148328240974509 8.86508417470857 2.144907588189448 -0.8528200062001957 -1.296372325407535
Ni 0.33081828140569264 3.8234404526111767 6.748734870414723 -0.27485761280968146 0.7535936790070054 -1.2584917483116778
P 4.028647903528715 4.96234778203029 0.9250564674757875 0.7100654167070675 -0.36854038447682336 2.101552361132265
Ni 2.8841683325334033 4.092839023072352 10.289921057931583 -0.07696803001562229 1.861274800290298 0.8264685127898606
P 2.3741335210670753 2.679898783663343 6.323705247851575 -0.7638238413754459 0.6658956641683887 -0.08429156026022903
Ni 3.7164000826631067 8.544729018203137 12.038719422983768 -0.3854939816120264 0.33788512148481165 1.3587112926560727
P 8.780868846451257 5.913049433921949 6.254961625330421 0.6349336685692355 0.48315450697999374 0.14296696261425057
P 5.07844534331921 5.374886756149364 6.1325479374099965 -0.29969189824454195 0.2712339000141651 0.3460532591179008
P 1.0605189475097159 0.2900158642931109 9.161307663239457 0.0016308507352036429 -0.46656240694926737 -1.3399854341117956
Ni 4.531786376410638 6.035730699779449 8.428695822741004 0.27341779503936137 1.2766977297967432 -0.5066183944298889
