# total energy = -381162.748711877 ev
CRYSTAL
PRIMVEC
9.30761572658016 0.00000000000000 0.00000000000000

0.00000000000000 9.30761572658016 0.00000000000000

0.00000000000000 0.00000000000000 13.62263644406420

PRIMCOORD
 96 1
Ni 4.439295324093442 6.254950572014214 12.478444194587208 0.5387039621105238 -0.02632243994461273 -0.22564155609634687
Ni 7.715957731477775 4.802329574472286 13.760088941941099 0.30702648423274215 1.0069861799643753 -0.9628192556391741
Ni 5.18994523843052 0.5385693708323799 3.516929204104655 -1.8713434973802094 0.7012493610773343 0.563883546699945
Ni 3.969809870720474 2.4220371158812704 1.9156013581656972 -0.16598116412123673 -0.2579762636733105 0.26874970013973076
Ni 5.752702310689919 8.778459316385643 10.653964396036137 -2.170830735813113 0.776482924900353 0.9633309051682698
Ni 4.062141420401484 2.7514243347987377 11.907887340207578 -1.3267774200619535 -1.6313140479933066 0.5313439222010268
Ni 3.6031363425265823 7.760969361947267 4.41324423796419 1.375362785169825 -1.1712223363700474 0.9954766366628792
Ni 5.446705130517249 2.7402738109562126 7.474577743896378 -1.7591942914777638 0.06372993405879346 0.4890006813481255
Ni 5.829024761031078 7.76300772982833 2.9893921503929306 -0.448894300245543 -1.017282933904693 -0.00946011697163532
Ni 0.41737676578333754 5.537268233178159 7.007960897742331 1.3626571646776984 0.009319477628712982 -0.9117936565209266
Ni 9.04251637933426 4.156948795910635 8.59317260675864 -2.670741122095207 -0.6332683650516707 1.3413172655493415
Ni 7.64611338179972 3.383141533226143 3.6190030353432374 -0.2487765994519135 -0.14643460944787684 1.6271774001171138
Ni 0.6037487434237285 2.909346653693668 3.5791301396095196 0.7705830144761503 0.17570661893911674 -0.6228924211339854
Ni 7.094776754243808 1.1097470431922247 9.519389287443298 0.3800951791939583 0.2531058229548867 0.9911612971169769
Ni 6.6776373326658 7.670136338425394 8.57816035308117 0.5011231756432725 1.0258156539660526 -0.7850069032109641
Ni 2.434369706942494 0.6838165784011403 12.337231838509043 -0.5586662641650637 -0.908147832238223 1.4309145542932
Ni 8.654137490872614 8.167907636504067 4.235087162112959 0.25325546115887354 -0.20342928166536578 0.9592983869701092
Ni 7.2436241476408565 6.104874573318991 2.0506018113953624 -0.20685090575240506 -0.712432117167031 0.6211934361650076
Ni 0.9829121613874738 7.796003228177037 12.043528157410837 1.5149034957113459 1.0587519996827572 2.4919324671919987
Ni 1.9795158257568797 0.46637764042553986 1.1975085534686607 2.5152937676257587 1.1221502614337449 0.5151320883278547
Ni 8.294807671620084 7.230984405255089 6.674151630513023 0.35917282721899435 1.390377256300786 0.3532826869868045
Ni 0.9728227057570086 1.2147462581066881 8.09066093990451 -1.3761120046310236 -0.18200505035331882 0.3228814489871278
Ni 0.6207667883266278 7.0776786638442095 10.132203648749012 -0.6601507912648114 -0.9504067409074342 -2.661315972126565
Ni 8.40274809315745 0.5444629532172605 6.294380425231317 0.8415642307807184 -1.1597210205986672 0.8207112985911091
P 4.5051746294001145 2.1883228807512127 9.883604674279251 2.566621728475773 -1.4982574025142328 -1.4683359323644518
Ni 2.082346366167747 5.207713477174576 12.63111329507085 -0.12018955970841881 -0.4597027037149567 -1.5895706455079335
P 2.49275638145348 2.0728898284181594 4.579385181694637 1.556818904998209 1.3624771874564083 -0.46226377957391357
Ni 3.9853256664178773 6.239993233270526 2.695824360486794 -0.7293450908722858 0.14822049770370602 1.427647196395838
P 7.270774463207339 0.6768982275061912 3.1974778651553812 1.182998503069369 -0.035169091701965235 0.6110478630905734
P 0.3311994117322752 6.501453471384364 0.43559642389831515 0.4915458163674825 0.07226985320900457 0.4754615092111102
P 3.453134804758522 3.6021125047781033 0.17559003538731824 -1.668351303252262 1.4696222552760432 0.797363367893788
Ni 5.532204890131135 3.2793430007621684 13.601616542946761 1.7152289416404076 -0.5103909740984436 -0.4282087468717335
Ni 7.629545825506152 3.9223968753500036 11.59979780798165 0.4821679746970083 -0.9877957230788535 -0.6133528570746662
Ni 7.313086885067205 9.120514200536565 12.922392342228342 -0.5474595968159668 -0.8840211143933485 -0.029964407572574205
Ni 7.668274815246342 8.434645292830519 1.6541150587273534 0.3108479148613614 0.3603820170357471 0.7054271466041077
Ni 5.996636308072976 7.536441743705834 0.45941926678224115 1.027799774275617 -2.993322780453729 1.078566463305523
Ni 5.015585669864556 4.441547767140095 10.844177626756503 0.3983998910404171 1.335481375593855 1.7282276678929205
Ni 0.4053811104175224 3.7197980001578106 1.0385698429179684 0.8558076280736101 0.6224633040163667 -0.15373705664656104
Ni 5.968518000453386 1.0929374888853793 1.2570093496023096 -0.0345294012354373 -0.6143884974280321 -0.8548234097834697
Ni 2.1889837214797767 7.728923240419876 2.366933237496544 -0.475725047285142 -0.013277690945512616 1.767612597448446
Ni 0.06502672769066643 6.5742762581489025 2.725889821351673 0.5434381343613995 0.4829416196382392 -1.8447390074188037
Ni 0.7530913019864048 4.742202375788886 10.37935901199342 1.4273301793760513 1.2100416232300903 0.5710533249755069
Ni 1.0324845236456452 2.921037019258118 11.574991150097595 -0.29978342951708375 -0.6553407714706778 2.3492480688151733
Ni 1.0887211388848252 5.4713796202555915 4.367893810276111 -0.23908122654102051 -2.0664984548519247 0.04857070981985183
Ni 5.383013114945963 6.411011367730091 5.067552881692578 -0.5646211961969179 -1.924606213359092 0.4555220899747058
Ni 5.154622836107996 5.208327779823664 1.2134552917820152 -0.2283242451348326 0.47064403321780884 -2.2457395693068616
Ni 2.3189645774571264 9.154384614779426 6.560335311060977 -1.4654938349299664 1.291041657223241 0.43761744178014306
Ni 3.115743036171128 5.667984390811235 5.749365530391468 0.36207226025397643 -0.6545028489504148 -0.7967861552340795
Ni 4.843953232755903 2.809085015269893 4.376026805045391 -2.1115459820098668 -1.8735111944554892 -0.4728580101499921
Ni 2.2694852913579076 5.338606479509663 1.2145917516828268 -0.3497613040971073 -1.9426805543622991 2.7109423769044407
Ni 3.013871180197473 5.929221246143585 10.442350164087792 -0.23210428100255512 1.3329274988237496 0.7651201915893662
Ni 1.4393855677388643 7.332660801294943 5.467948833036597 -0.6870653562674683 0.9880410063204402 0.39462268338617196
Ni 2.8375477046776076 3.961498169726004 3.4499599769766474 0.19106227545958063 0.5377243718060739 0.1307817334019683
Ni 0.7990523092772143 2.103865574117595 5.797902885762086 -1.0017349588677653 0.22526257549037335 0.8394690388145866
Ni 2.1376522198174004 8.916100340244794 9.46216048034968 -0.2721903503901635 -0.7169341188024426 -0.05192471389374929
Ni 0.1120869644187064 0.6018202054102302 10.967857226772761 -0.07852714697262604 0.3580896214571446 -0.2285312189393161
P 4.7307167777741315 5.089860444708755 7.431216353725116 1.6073667931490898 -0.3455827472393855 -1.1414744156836534
Ni 2.470985867874459 1.665514095914282 10.36519188983924 -0.21286985825297533 0.11738345771819139 -1.3554727311141173
P 5.8685076676587835 1.4177174379346915 12.493647254390531 -0.9227365286856755 -0.9858779372308504 -0.15484365944717848
Ni 0.13563802491849075 8.889834248188363 0.36688481107471405 -0.022164451912181183 -0.6402267986473748 -1.3262629423193804
P 6.568663765764058 5.740555871946601 11.934588097926317 -1.140085505755927 1.0236708397089083 0.6741936425111227
P 4.11131355517616 9.051256230659911 1.6557224839924654 -0.20992645935393522 -0.04408696301688536 0.11770998781967469
P 3.5190234176810895 8.472024678265894 11.077029045893068 0.1486717263085117 -0.9022607773298268 0.34818701763145193
Ni 8.20427249180686 2.14736006319616 1.7726047321204113 0.7646468514973735 -2.315257827912658 -0.247907823693715
Ni 3.2463288871816696 3.735015952146566 9.572395229205231 -2.2316671503741956 1.5266884041614157 -1.1651221370095806
Ni 7.707208572536227 2.8652378619660155 7.29234765532938 1.0630909933777433 -1.0706194405443046 -0.9996999307156074
Ni 6.214555519028772 0.4602308908883081 7.549624120098295 0.11611667519062582 -0.4455732062921101 -1.3742039889750333
Ni 7.800387115263706 5.735827603071807 4.522225250958647 -0.5485142633327263 0.7757455325136963 0.26825759099466057
Ni 6.20135731968929 3.9040050263409634 5.6467732649475195 1.3756340365533406 1.7132872445330043 0.47835142916439544
Ni 6.433740565746324 3.371972394151827 9.558636711388854 1.122352350142222 0.16176892581210206 -1.2924483077627806
Ni 2.8525050434212957 5.591103483516361 8.121311849809201 -1.6514226458177237 0.18634404404830487 0.27524173562197757
Ni 7.681156555645385 5.830150982554404 10.094387736128148 0.2794187498178026 0.04007064276864067 -1.5397498653310644
Ni 3.684047447504105 7.552795224833812 7.091603787985113 1.3425819911943782 -1.1545309917572952 -0.7150497572955363
Ni 3.222957463668664 3.266591566985658 6.246878076748252 0.9625883705752907 0.27727959198761276 -0.40763117983069797
Ni 8.604620974309814 8.892161152162178 8.703339410018154 0.8020926550486573 -0.34040428836223957 -0.5244572223835225
Ni 6.586850847223403 1.3869371521690563 5.288280200363975 0.24703313439824554 0.7759273095071991 -0.4562977917984658
Ni 5.438858810317542 6.127417619017319 9.402166380573584 -1.9085715284937323 -0.722466875695214 -0.6523734613122377
Ni 4.570495477753072 8.657115927959099 13.109294853974763 -1.9104024110548838 2.693367601245471 -1.8032627425518881
Ni 1.5066330925821403 3.3954834319032616 7.681273831605666 1.1222243092047899 0.45466874083547504 0.26078596520796377
Ni 4.389983575080338 8.8137165653969 8.756957792905997 0.4643653992979487 0.5029196054220629 0.6535705669441324
Ni 7.779696285128536 8.195458179554047 10.902645277525778 2.0997430758376674 -1.5478858641746374 -0.3315496661850871
Ni 2.3550781271307475 9.412791954879618 4.093425248187053 -1.8602031644926738 1.1983076226226137 -0.6220812380865995
Ni 8.862432626992707 5.9538026597229745 12.114351668281072 0.5057565606502257 0.6260888165840959 0.047150946654189764
Ni 3.248050796122294 1.6417610601495707 8.066207971424475 0.9642001951471008 -0.1022553438275013 -0.13739949582880207
Ni 7.849280021561524 2.0265099784120633 12.98216864379249 1.297531892933275 1.0560173743604135 0.22152007772880558
Ni 0.21657519122052 0.14218965574716647 2.6758669704841704 0.4958328737786106 1.1959689471871082 0.4227778056641493
Ni 6.716878241280229 8.114109616629445 5.311616254936578 -1.0275712032045787 1.8460530982445367 0.3805847172358671
Ni 5.631796380210451 4.527568753244118 3.307971365732819 -0.0544906748487126 1.3731387809353126 0.17786660270491306
P 8.691293493526505 2.566621621198288 10.226812772039594 -0.4236182992875736 -0.15952872362767365 -1.0289688548830538
Ni 4.328637078714658 0.9361879295932528 5.893506993191871 -0.4360614101469329 -0.31191569400424346 0.0020825935606415746
P 1.0066838123839759 7.709377247039823 8.08075763659195 0.15778423013274118 -0.6753364978663143 -2.2315555644969955
Ni 7.1437720443164725 5.300380101027816 7.508306682377633 -0.7740342062495443 0.16980285186017208 0.26581144344701313
P 6.8761036264004955 3.7373707789680672 1.601463737131029 -1.2669211100259536 -0.00036458242827033983 1.90608784283993
P 8.740084016049474 4.0889752770275285 5.504539863405645 0.43403280975267833 -0.8358334989445283 0.29225549657115474
P 0.7678150195711216 1.8225521912991618 0.005080096755634624 -0.35603608136222553 -0.043039495588977496 -0.29320243386545636
Ni 2.741977104665046 7.2389331092296425 0.30712898626553514 0.32250118282957363 1.9076063363669857 -2.1527448248456795
