# total energy = -340891.56740647246 ev
CRYSTAL
PRIMVEC
9.05170944511326 0.00000000000000 0.00000000000000

0.00000000000000 9.05170944511326 0.00000000000000

0.00000000000000 0.00000000000000 13.24809173373783

PRIMCOORD
 96 1
Ni 6.35208240125589 2.1246082024928663 11.255817058246855 0.3920065859195636 -1.108008422715724 1.1529016836839887
Ni 4.680838120857348 0.5595133194189287 6.2647705165749485 -0.3140471385249495 -0.46217739050769435 -1.0672065582080135
Ni 2.6235474819274636 1.753451906091563 4.635824874677121 1.3883872224539509 -1.3762703845857587 1.54249631772795
Ni 3.4423017614706075 4.459188910293045 4.861121924170547 -0.28901642080856677 -0.47632077188761196 0.8014707051939423
Ni 4.916879549529106 4.555770650674517 2.859614255385826 2.0953799137729656 0.1054730794338506 -1.0059662233402933
Ni 7.2791403849850065 6.064410021587325 2.51353390981665 -0.4013934264511023 0.21577880436965416 0.11558728504971705
Ni 5.224710086257609 4.347101591535427 11.568128191178621 -0.33062329771607574 0.23393593489465517 -0.3368088577014973
Ni 5.5417552632586835 7.647671685630862 12.411342000136836 0.29914399616087195 0.5148760064529907 0.21886515660446176
Ni 1.9662123379253507 6.425337886251884 0.30429674933909984 0.7194648556440965 -0.6145900719158771 0.5964113441243212
Ni 2.4684283361995067 1.593852164160342 0.3477187049889558 1.696620839620917 -0.6726599794754158 -0.2085321501095699
Ni 0.6590214774822506 0.19922541061612922 4.88887718101513 -0.9181597079482704 -0.8620039866923089 -0.6403725801966197
Ni 8.38893428013129 2.2984010249225078 1.4966902091998204 2.5508050731584913 1.0777354827637955 -1.0433143249714485
Ni 7.061428668053873 0.5290706100233366 4.796498149355225 -1.037377390661723 0.562877988253566 1.0091451352889071
Ni 0.7771698209221015 7.160237128972726 2.2119943111917206 0.2902502932156679 0.9159192486535257 1.3056830612854997
Ni 7.484406001351515 3.827841224269864 3.8850163473363652 1.314019606175653 -0.08696087956227604 0.9431492880140725
Ni 7.721253032168911 3.899223005399038 12.86287747691185 -0.15996478272382772 -0.29034285292947415 -0.36973260501271166
Ni 7.757686162912625 8.802552145804334 7.063246251321783 0.5996370501504705 0.5705100508775272 0.3879211029962803
Ni 6.874329832656962 0.6309086781123556 0.45204237250709883 -1.2640661570756617 -0.8600820870792478 -0.291592151955543
Ni 1.6742494479530543 6.667887494055252 9.25287831418994 0.32093332412182146 -0.883774288489865 0.21561862464270606
Ni 0.08203654838344188 4.985084180623239 1.5376265654205525 0.3603444789295923 -1.1299052227888153 -0.5515335097750244
Ni 6.598868209105981 1.8522875221389201 7.217852165121003 -0.5363514027179472 0.5905677408593507 -0.8032622498767263
Ni 3.289979593978628 4.014532732739205 0.3500965890750113 0.5828382334255768 0.7791249905088904 0.15109421970707526
Ni 5.963302426455081 5.747772171513821 4.674761708268962 0.12332681978581987 0.6300316032819279 0.9432271924398595
Ni 5.521678571584259 3.1484832710504946 8.9457076470841 -0.786152329669317 0.3911226406527135 0.0001774061181287267
P 0.38414912021981923 5.432283888547012 12.466136523604433 -1.1829789626853433 -1.1819543780755708 0.4361308299322875
P 3.9635263496980055 5.982836015559413 12.538987397185709 0.5104444530441983 -0.3660284166882471 1.531229486564879
P 2.2627825480339325 8.643649385504732 1.316541276358195 0.11321595660406307 -0.4359120290532621 0.6981915480876169
P 6.293173875819842 7.881522600603246 5.903323083785001 -1.2218208752532054 -0.9181717921331284 -0.6356368652838471
P 4.655384713739007 1.2850893013531803 12.468587726537452 -0.4880627429148884 -0.9371115664604249 0.6985566447365196
P 3.9597155799978556 6.272535978156323 8.473148669820802 0.3769705175220475 -0.22679700985702878 -1.5495575954501057
P 4.634656298980472 1.1890054049942929 3.8526112273208386 0.7374435516097042 -0.598832037750672 -1.2403803834229477
P 0.39782625327665194 5.470282965034493 3.750269884183534 -0.6664769905931553 0.2788127408026876 -0.2321688156919034
Ni 1.4041916949744941 1.3543167756209877 2.554721903561525 -0.40106201125361246 -1.416436415281683 0.13958390507463056
Ni 1.8749258476022812 6.707126654744446 4.741624876014965 0.5773137040629218 0.09257873996968571 0.39592031915167303
Ni 6.133103444994542 5.604981454126968 9.126875802415599 -0.7677982526421616 0.6413994787992372 0.8359959926643216
Ni 8.560174520481494 2.277355800331418 10.146700230971287 0.9780455856706252 0.1427972698056057 0.32918990770365886
Ni 2.4212327228584574 5.4562528153071 7.045587271255221 -0.9844648589334077 0.05183498239342041 -0.2082670693736413
Ni 0.5487055782740854 8.86679212813679 9.344409200669551 0.36861700335102965 1.0951811890440686 -0.8869056350299952
Ni 1.5162428068941052 1.2162238954654352 11.292183206340258 -0.7207660909540232 0.6009606540579004 1.2990444729230595
Ni 4.340005051286217 6.904906507353178 1.5030354575604028 -1.2126978299060147 -0.04864167226710332 0.12790364052322487
Ni 5.506879026549235 8.05486283755781 8.21527451783132 -0.20367842156169438 -0.724042961933082 -0.20122481781487928
Ni 5.320078897565875 2.889323776311793 4.995365112275093 -0.6922587275429497 -0.5969805863642299 -0.06619845020394406
Ni 0.4653329975682156 7.468963784941882 6.74139733208824 1.5084289437305958 -1.1098845566925144 0.6126938833344288
Ni 4.805570677788622 4.717425130662588 6.911767703155348 0.7296680214293434 -0.4861439286256208 0.6774406886935107
Ni 8.07484901213722 7.232379253700031 8.935719085649147 0.0687502700915203 -0.14161970455773676 0.30589031374576997
Ni 4.990297965296128 0.1702807591430425 10.394267201351362 -1.7005728822901292 0.05961925432452958 0.8843255330076448
Ni 8.280413334917279 7.163278503365245 4.565769168989923 -0.34409433561931707 -0.012625402073494387 0.3309140894836172
Ni 7.026552431344425 6.148916781493739 6.956454182622569 0.2432988641667939 0.07874311963817406 -0.498464912084819
Ni 2.64885606169378 5.2326755906189675 2.777740637773412 -2.5327392167957155 0.042425516154062426 -1.7414302826261234
Ni 2.319192801647554 5.090554699735229 11.376640181844412 -0.4580571976917337 -0.5779770486785336 -0.1597971467977119
Ni 1.1001809796556432 3.315116191264415 3.9188652150173886 -1.180062817479813 1.5595969819639786 0.1362340147657912
Ni 3.449434508557824 2.8684505342012336 2.660799792381067 0.03501251151944293 -1.074155478722021 -0.6692946625476086
Ni 1.2374863610845614 3.5775795599711797 8.135255595495773 -1.1961183282807788 -0.8168482160912771 -0.6834136184474939
Ni 3.5199744807033553 2.5624122359540364 7.427741394700901 0.15454901102489513 0.6672285240471993 -0.801816004348503
Ni 4.116807998397149 6.992780503194165 6.252158769726448 1.1660485054785918 0.1488146796442792 -1.8447685751051581
Ni 0.7534905488660628 7.218892206542731 11.454008763637908 0.45418511633083714 0.39899021632624837 -0.4593273226534089
P 0.06502567071719056 5.632344771950135 8.057330333567931 1.1707261134599192 0.3622422101729374 -1.2078970660832618
P 8.645233434667501 1.5837776114851236 8.05064021507534 0.2285492166614451 -0.26059056136770603 0.15775826199081217
P 1.762358788241082 3.1449983628924003 10.172587214974753 0.2555432287517857 -0.5229335866501446 1.5157190496341058
P 4.030427534623916 6.358319029102454 3.8814128617838004 0.46816420421874855 0.6487492342960892 -0.11081506047205432
P 6.9983473045376146 3.8582911750330573 10.280373161377238 0.6032916161839222 2.143022455351593 0.10563583026396
P 6.580592807622364 7.69099316730525 10.33462458227474 -0.9909558659743901 -0.7037376747168267 1.2379964565718033
P 2.6027738086214205 8.671890719149548 5.6010946500670045 0.10123924385816115 -0.32159949695091067 0.9833145473790484
P 6.961986587469913 3.9211734009402823 1.8646557780018296 -1.3566466968175603 0.9234474387097709 -2.0715277897457165
Ni 5.460362291420801 2.7892842829007307 0.5907037000193485 -0.2390508875237173 0.5572457296684532 0.123401124667181
Ni 1.5269057206869239 0.9787704001114359 6.971251917315693 -0.4272052453078837 0.7814608377309187 0.4977231488227879
Ni 7.063410992434712 0.5216645013091733 9.372229629822547 0.317559265443266 0.9328432781023741 -0.8859808092228806
Ni 2.5855665088589856 1.2109648522450382 9.1737871920783 0.7949041077200181 0.17253182075556095 -0.873986612975482
Ni 6.625145321788962 1.7552803514108748 2.6583087619262424 -3.231932209564653 -0.030937055898488657 1.543277933088981
Ni 3.982308646913709 6.774489476854934 10.551164102825421 0.28685232327771243 1.1397618038679211 -0.26895384573073683
Ni 8.282567641778646 7.24873569276932 0.28401277351709026 -1.0282319767170292 -0.647091386977692 0.2365944555634248
Ni 7.708399604676719 3.9622229035297836 7.9720261180544325 -0.07491166170722582 -0.9796823499430999 0.3932623127035356
Ni 2.885350075840616 8.30211028259248 12.45522016194557 1.4826814024528463 0.3955467378623381 1.0223096976953232
Ni 0.06398110344071241 4.700516537313704 10.000362148630778 0.02078891172089323 0.3731562859822799 1.3380928450747729
Ni 8.576748200578821 2.397517243964413 5.9854085113997515 0.6420363410522878 0.221368896862922 -0.91743517107742
Ni 3.8894652625563744 2.47213953709514 10.779588517951632 -0.6329729452984388 0.19372053901803413 0.48525921202782235
Ni 1.131155929569926 3.196086211319114 12.646548861192553 -1.6937574020301929 1.2484040250583726 -0.810711764176236
Ni 2.8598152033367605 8.103678706899636 7.824269632835032 -0.09145773899136506 1.1581955850930763 0.3588599239642658
Ni 5.855243118425651 7.93736259651827 3.570029529075942 -1.331196632175572 0.24097124447488177 0.12126916592584278
Ni 3.2021599083946497 8.391885137428792 3.4291360500006123 0.00691009685627197 0.557049297386931 -0.06367028446545163
Ni 3.2929847615331402 4.354288648879653 9.181325455751187 0.8771544691805023 0.15321512270482002 0.07845592741505843
Ni 7.4307746225548685 5.948747277576598 11.516009353039683 -0.23224414901452906 0.031440220787152307 -0.7019355885110815
Ni 0.3122694950680596 0.2674870674801217 0.28939401481575805 1.6071978716713933 -0.8777352813846366 0.9419043598633778
Ni 4.491087134576485 0.5074487915369988 1.534645837481694 0.09632535149631152 -0.05705715002430818 -0.12919510564113876
Ni 5.948828742962113 5.456207556759593 0.3201481030182034 0.11383996334130717 0.08214160379676176 1.1677112378929955
Ni 8.302146489430486 8.897214923771479 11.37891849712595 -1.5683369329401378 0.40583886381696554 0.2085385778674731
Ni 9.068274129931655 4.819075828364926 6.02597374753092 0.5572079344519824 0.23167567810556874 -1.0884670102486866
Ni 8.027390899220626 8.79848792823814 2.6054359163858245 0.6473101878567175 -0.32207180860163886 -0.5147669916789522
P 8.525062939325007 1.624093925605 3.772738942679216 0.8153410354181313 0.9807632417121044 -0.581870727305985
P 1.538826822100457 3.3254532435151782 1.5873331229773304 1.1053229054637608 -0.3158003737706303 -0.20583557711401326
P 4.879948574762808 1.1905351439000538 8.386346396384797 -0.312752588083242 -1.1113997077854603 0.8509125047648378
P 8.279571525933635 1.7271838451180828 12.5204666943746 0.5803028685982328 1.3708990929715164 -1.365659956059764
P 6.281424756886839 7.76902795491806 1.4517394198151539 1.231251424538486 0.11296296005299256 -1.3616143252354806
P 1.9456196988093384 3.2944511384723905 6.080053185947894 -0.3806199413491767 0.44985794971039295 -0.33248400507389836
P 6.751090807793444 4.129208840414264 5.932389933336359 0.9267865303853329 -0.22336612979860887 1.641360376485715
P 2.4568059411995247 8.572367173180075 10.468748287813865 -0.1093022233719537 -1.448187739551351 -2.142569684084891
