# total energy = -340888.24295374576 ev
CRYSTAL
PRIMVEC
9.09336859277317 0.00000000000000 0.00000000000000

0.00000000000000 9.09336859277317 0.00000000000000

0.00000000000000 0.00000000000000 13.30906410731214

PRIMCOORD
 96 1
Ni 6.416526297923405 1.9002684847036007 11.329753292071075 1.2052837968301306 1.3737609879003436 -0.10000408589947939
Ni 4.724905152261327 0.5608780565416088 6.154842796745218 -0.9126917428551636 -1.1679891741447304 -1.3774394651931956
Ni 2.8345029723239086 1.8598939287940621 4.444961257902521 -0.31444797350779397 -0.4351520109587861 1.9366914266584
Ni 3.4869794385800157 4.205291892400325 4.840732842205773 -0.3327246603297947 1.4033006492306734 -0.5729286876213487
Ni 3.670001665334808 2.80882329982649 2.5410326923985624 -0.4793587873829873 -0.26550702483271693 -1.3748616771636901
Ni 4.824704870979161 4.735908128083521 2.4954358149892832 -0.08933246511824615 1.006031786470906 0.056566583541134835
Ni 4.984138899979598 4.8788922535613555 11.405388293474944 1.8787292483213194 -1.648751526743464 -1.2794745212109317
Ni 5.782018327720732 7.905374420561429 12.340191116623256 0.2560124550787204 0.47459890410049876 -0.4532947433060839
Ni 1.9039967657673196 6.8044675826560015 0.14608132677125496 -0.8756033226432984 -0.3669642982389551 -1.0109197106908268
Ni 2.6506623424087867 1.7217838488044068 0.2481462035695097 0.7866914900022387 -0.4739910953131708 0.14349995229958512
Ni 8.153805246563364 0.005978889754621973 6.445446846935724 1.0015521534329976 -1.1230169803094143 0.6825656686249019
Ni 8.81177410736212 2.7338939438141936 1.2995578370119598 -1.1143395071400746 -0.8051314418749812 1.0157464426555087
Ni 6.820926579547052 0.8564416298837061 4.7702210445855595 -0.47211933221175467 0.6289334851217426 -1.1562052941359249
Ni 0.6577133371453646 7.504684233264604 2.1367833606911533 0.04340356379661557 0.05618708871452904 0.883182420542137
Ni 7.404648086967119 3.52408038184824 3.722891424239459 0.3467448858682867 1.0181087722400983 -0.05239445444131622
Ni 7.728244696561001 3.910839528682585 12.814246600559306 -0.8204359334425355 0.2662004513553157 -0.656355071667805
Ni 8.666416612719333 7.6478502261114 8.701851650887868 -0.34479059035539333 -0.4446504373675246 0.46091729284834815
Ni 6.913597097401581 0.5222748888057591 0.2678306182490993 0.6620022426512534 0.14318936303770177 -0.10118422225050962
Ni 2.094975689914195 6.807859409087142 9.018035346522863 0.4271252839995677 -0.07095036306663265 0.621396296204433
Ni 0.22249199250374618 5.115601727633696 1.1940011067296368 -0.7590991822062668 0.11949613318582 -0.9392836344110791
Ni 6.791364038722298 2.0802808065020746 6.946106798940362 0.33700246176954224 -0.3861275014309673 0.26728494266874614
Ni 3.4403213650728435 4.514075404792262 13.59773759140502 -0.17484247116660853 -0.30762323727647667 0.5254075021119339
Ni 5.914290465166711 5.862549198697055 4.52264590455459 0.19653229743521639 -1.0408010716312914 0.4650161455080702
Ni 5.582282489758342 3.1949550042379165 8.683285720527394 0.6280698515698667 0.9620674650748141 2.0249525130893384
P 0.28689759321106334 5.758066395228452 12.073437153198412 0.4649973764549928 -0.16643187850541014 1.050959500221532
P 4.12018705709461 6.3256289869162545 12.58487820283511 -0.18378939594725122 1.567657647484926 0.7965079618720283
P 2.477324553051214 8.666380239245541 1.3416865036951358 -0.5348298238670983 0.7142743125820924 -0.3858495651792323
P 6.405641535891036 7.950304754063462 5.5181778795466565 0.6967069931222905 -0.5177826385768244 -0.19908463154342487
P 4.7604875029987195 1.20925432296447 12.404593079983194 -0.1472913010212173 -1.4604573009473234 1.3979725521495407
P 4.195107319738459 6.045789666294603 8.389980939907803 1.3885322326722473 1.3598757452778192 -0.11387030235861034
P 4.849293339262808 1.244172857805152 3.5585906244456025 0.11104260310182812 -0.3874601041994617 -0.1560893589288215
P 0.297492276789938 5.5021608203621835 3.3219820867630347 -0.5380179917870928 0.5382059394281828 0.8314014313151037
Ni 0.7949095336059867 0.11295327617800278 4.5231123943559775 0.3164848014321646 -0.2980091112254803 0.14889052718753712
Ni 1.9335138397498335 6.676205620695632 4.542902292109565 0.7731680015945072 -0.41085662874653106 0.3006133816175468
Ni 6.8924732024966575 6.081744845138367 8.805981631660684 -1.7661059309959324 -0.3101390617197949 1.9711789189123083
Ni 8.6078916933874 2.837267356332129 10.547273483796786 0.21000153556624476 -1.9709894286093217 0.24319987669508442
Ni 2.6313116543512423 5.233006207667041 7.202346100428676 -1.0817641443072143 -0.08652404913517357 -1.5597982993415072
Ni 1.089603780924446 0.31697936537420396 8.910963661057087 -0.44975356292204477 -0.2744336378983855 0.6003875551632499
Ni 1.506871178902147 1.0155655750200625 11.392439336804856 0.5943945708046086 1.4930930847044737 -0.04457521550721356
Ni 3.8852871633434396 6.982733977712442 1.4536158665858832 2.4020495288869212 0.9271469990485451 -0.23327644693378533
Ni 6.104423706047914 8.1832132001245 7.632162346864748 -0.5789751509257448 0.31866663957483177 1.4778873234983128
Ni 5.212218767394697 2.641496227013108 5.213732813241306 0.25132841933948974 0.9663077284084068 -1.3308613603233401
Ni 0.9905406250509072 7.467837904312925 6.713251094416324 -0.7284847997545196 0.5302447755995772 -0.2696269605383615
Ni 5.113546626364427 4.592714855131381 6.822398795898799 0.6719652674012362 1.3554549905023043 0.21877722487634582
Ni 1.0510388053360784 7.631654936905344 11.116235544888752 -0.30896715289888077 -0.185008613066333 0.18859607330727518
Ni 4.747965934645694 0.5443863235241451 10.270218552593942 0.7480537230253828 -1.4066459115538226 -0.1614097427004704
Ni 8.679665650548207 7.136848386170743 4.551300927208225 -1.8427785412583233 0.4102092249705193 0.10660102239070672
Ni 7.283569886080744 6.2755063400303595 6.681163325173533 0.7548635468583644 -0.21089345125289485 -2.109498869672851
Ni 2.287755101013793 5.535979057620646 2.2008270453342362 -0.17706853228364988 -1.2007182889466355 2.0786268626843425
Ni 2.582480265784976 5.367451660172115 11.506790263713333 -1.984522172988434 -0.3483965625390968 -1.6390468978611903
Ni 0.8613956970142278 3.3728031043457443 3.912439052192605 1.566079761474845 1.2644950170829643 -1.8336051022891713
Ni 1.4591491812865485 1.369588595441268 2.323895784573899 0.8394001332498641 -0.4625409444947001 0.4681459493863034
Ni 1.260650041433099 3.333828927177212 8.2904822116856 0.231292326624221 -0.3394488664275057 -1.5427955941359237
Ni 3.7654274738291096 2.773613777195469 7.085639081755301 -1.675469145243966 -0.07606737257822384 -0.7341815930289807
Ni 4.535581221172004 6.900311686098915 6.119680559630126 -1.4833455183994069 0.649860465082397 0.5024465224403863
Ni 0.6078107497759129 0.03926152761149176 0.2838822322336753 -0.19403832736876905 -0.733758389448633 -0.20242578010151588
P 0.5047128663219547 5.787337948262867 7.851628975685813 -1.1450713890062925 -1.288231955688588 0.5239394022068397
P 8.939808735111287 1.6567571710320845 7.799151146371861 -0.714793418310356 1.22222171023605 -0.5145299359674816
P 1.7511099620495105 3.1978830688782027 10.355942646290972 1.1287484834765529 -0.5210003741831737 1.713671110234984
P 3.8695192624544448 6.424974037211684 3.606369910282424 0.7432637578359071 -0.4339230236476914 0.9371064242541023
P 7.016797735919003 4.215212757377196 10.13602316772119 -0.6709296270478703 -0.23708630759817878 -0.14368815705099125
P 6.751489618077405 8.0152586848882 10.269606568897386 -0.20037918198513233 0.14776412689257779 -1.068591097260366
P 2.5347491748009294 8.534653703906448 5.793688756787016 2.2212798936026004 -0.15256000561932434 -1.1816543303366487
P 6.540978138504022 3.971928777916882 1.5567610355557715 2.368498689514669 0.2502300440689884 0.09363366359676131
Ni 5.187366591426056 2.9206444516327053 0.33295004837959186 0.14545964712911724 -0.29651350051656034 0.16964344346417234
Ni 1.7941034080721003 1.1253225321885603 6.764890515159362 -0.21842781195672703 1.5126432389222595 -0.0946263665273338
Ni 7.44921468573123 0.696040975817237 8.934268145715864 -1.5726250187925304 0.31830205714656146 0.03594890729078325
Ni 3.154716848855099 1.8605304645854288 9.153269194072386 -0.9369966381491154 -0.4676103885978075 0.8717646656234986
Ni 6.751698765551711 1.7557021131157982 2.338496096954159 -1.5742337580405468 0.5501823950637686 -0.6150143039374892
Ni 4.389823618317502 7.084825225279197 10.46499668607843 -0.18635689956411133 0.08089230477069294 -1.3326035398254275
Ni 8.14819463823089 6.995191892486331 0.2321136856586747 0.46466184749244493 1.1695446915573084 -0.40272602921959666
Ni 8.042547883600932 4.062134992921977 7.9361545634213835 -0.2579037585641623 -0.13175900971357307 -0.2837546581889952
Ni 3.4241897294459243 8.516430593536468 12.53900124967763 -0.6089346734023126 0.4568716620240648 -0.6402879909026135
Ni 0.36303454855326694 4.870289927009458 9.946515550589217 -0.03927565767117107 2.3360919910491895 0.4082965813288387
Ni 8.868989581637528 2.2729510971802958 5.603501865031969 -0.30072856703917245 0.3186267874758319 0.8394271298330575
Ni 3.7209972755917207 2.8991568219898585 11.66948062795503 -1.1626420509002042 0.3020699115584152 -1.519064569067571
Ni 1.078018829521574 3.4268722731381125 12.666555747572737 0.19183874861428898 0.4868165292126132 -1.569963155689651
Ni 3.4176788776370888 8.648739104456238 7.940360246328627 0.24453016547073372 -0.43767554871158815 0.36224940926178906
Ni 5.520947719575946 8.076748042334215 3.495958230585664 -0.428041882276566 0.07372329782607949 -0.40724988523187927
Ni 3.1116688426218215 8.753085507398119 3.4597839015623 0.03146696026002968 -0.467057344307815 0.21088419528151425
Ni 3.4866338905789878 4.26910915216905 9.333527036818959 -0.14114250781100207 -0.03559100973073225 0.6873273516796033
Ni 7.3125049844825805 6.121773853046877 11.177830385408763 0.5550608062019924 -0.2680997252605576 1.0490797667003158
Ni 7.801191698251613 8.847865686732607 2.8708318886108897 0.7148759507218333 -1.906453196599149 -0.8406843992789262
Ni 4.6593510591190155 0.38229157491579613 1.3224776721853815 0.050666930227248226 -0.015070264069561141 0.3293714275868457
Ni 6.135577586351085 5.7903296664822905 13.424054254046421 -0.8454921050802149 -0.9951295377361055 1.3937016926883286
Ni 8.357478513063779 0.30000841183952565 10.984742709118775 -0.16297683007727418 -0.8622623825600182 0.9384739940255901
Ni 0.04727005720372837 5.001643634242179 5.6311184250088315 0.00380600400965151 -0.5035233004443328 0.4445825602440666
Ni 7.274885719212814 6.034832157314649 2.5887856074668845 0.3153524875999343 -0.31730009824460836 -0.5501438285163492
P 8.763597441324118 1.5859016440845342 3.4116990785456225 -1.8640312799895122 0.5648163429268596 0.27701476836200034
P 1.7296223324066637 3.4859246078400368 1.4422236945941107 1.6860782882183802 -0.5187923107882614 0.3048410465456492
P 5.0669158329626 1.2492742375045331 8.120751761591386 0.5336640856937712 -1.1005997889564787 0.5435003550579027
P 8.633398591884303 1.6238300838815354 12.699069995795744 -0.6135351482888015 1.3912452607280361 -1.185820031678564
P 6.305378055382349 7.709321396820517 1.399754026594131 0.49271901073997726 0.49337207094294383 -0.3910439648959781
P 1.7330505323115954 3.547886820445351 6.011172121949552 0.93693390323198 -1.2747292932164627 -0.463984361809446
P 6.903758072740743 3.976366341719552 5.770105105716884 0.9619594787420401 1.1851188918464817 0.5193911207145249
P 2.721426935671856 8.774991431989578 10.125549425942674 0.42912971602410604 -0.7937144582872911 0.6765027502602736
