# total energy = -340897.3610230284 ev
CRYSTAL
PRIMVEC
9.02492022240934 0.00000000000000 0.00000000000000

0.00000000000000 9.02492022240934 0.00000000000000

0.00000000000000 0.00000000000000 13.20888299841809

PRIMCOORD
 96 1
Ni 6.256914162829184 1.958497983501292 11.203629184128538 0.5415126352039126 0.15141946425697794 1.8210020688131798
Ni 4.778460722161942 0.29989269108777394 5.950139969910066 -1.112382897634336 -0.49263467855628706 -0.234791340916415
Ni 2.811605662338258 1.7153666269945649 4.5210438190993685 0.0871637396017015 -0.33855797918212016 1.3812729800066728
Ni 3.374291401591466 4.326673205208462 4.857513610216323 0.3377624798640183 0.4327732263139643 -0.8064254780960562
Ni 5.052926602417419 4.645947815421471 2.5651125229696623 -0.15915102857328073 -0.32927089745323934 0.0652553695643844
Ni 7.185352852533323 5.966474173404555 2.698019818733122 -0.22040781850123334 0.6948331731383453 -1.2024527551392388
Ni 5.094044139917221 4.614486942786637 11.391037071904188 0.05802517036453233 0.28615015500436525 0.140752471461435
Ni 5.700618067243636 7.733923616226898 12.368468444679317 -0.5831141127947829 0.18344152568952923 0.0069491776243235165
Ni 1.8336382092893182 6.512653333182974 0.439721198332489 0.6350599097344547 0.06704948535032969 -0.8676226184306671
Ni 2.8315326866577406 1.4734626596669365 0.2810242899352641 -1.3100289969590213 1.118179706821771 0.8042148435979827
Ni 0.8010059106762767 0.17596158118851543 4.768816692185584 -0.1775012489456943 -0.4458897090912643 0.4928817615700867
Ni 8.61625398743093 2.2559774108648676 1.2477412771704963 -0.2736839042165545 0.6503278916371187 1.2258392523839792
Ni 6.978230928560443 0.6333752335408926 4.867354383458154 -0.38269327893843774 0.24179425459680942 -1.1116200513263823
Ni 0.6497690015102493 7.280150616777816 2.2634085303506746 -0.22370962918095663 0.31214992150223664 1.4483936849145702
Ni 7.4645838907782425 3.6878081125672337 3.786986573190657 0.7210941637174033 0.1696401010300627 0.6732533900850405
Ni 7.533326709728196 3.83656587608989 12.66050313754473 0.4397851388554232 -0.5385661509810789 -0.47047768284327357
Ni 7.888908574849393 8.747900501809685 7.026082861688504 0.18599925911437645 0.6677566286365274 0.2431849642967489
Ni 6.656889611567923 0.7138775238170619 0.3492761532135779 0.38588350374096125 0.006271949051640811 -0.09028685861171548
Ni 1.7298606492124493 6.534502665555015 9.341863907812904 0.9309044092084485 0.6194911087619202 -0.8905874547569564
Ni 0.06723746222147055 4.827890211381962 1.3730766646893706 -0.07907273506345092 -0.3387572396771198 0.032953057887252925
Ni 6.26944977731277 1.9489315678406707 6.925972126784193 0.8275059529154395 -0.008944096567165242 1.2691410004954078
Ni 3.4738543238254005 4.498751363133991 0.5461818672545492 -0.19804024943931053 -0.85103720326816 -0.0646853559935273
Ni 5.872768424532642 5.620224076012681 4.705783940394569 0.3679929966137856 -0.34741851489654363 0.7719539266817479
Ni 5.29937912964406 2.8984614966003495 9.259017845699884 -0.2988231224863434 -0.4318615131329724 -0.6818267335763484
P 0.24139405932307637 5.520354306483971 12.432267412215225 -0.7731248070613975 -0.29896838981495605 -0.053099708038456934
P 3.936525894822946 6.180752859282031 12.594327005966361 0.5370003491558558 0.6013992842572159 -0.7053291875736627
P 2.385421844657592 8.526537253391087 1.2900789839130486 0.24950139343308 -0.44668417996810167 1.060687011921941
P 6.453305456405385 7.711081542607055 5.747383399951378 -0.7699862614324159 0.08870048796120207 -0.6835971952132097
P 4.649124587414432 0.9858462085883005 12.580008067204908 1.4036883715873953 0.12044795557612804 -0.7645416933780769
P 4.014871229115259 6.1585064304108705 8.027038592068324 -0.17805377901505465 -0.8380117375427696 1.7327774920471317
P 4.758678096569413 1.184123710535323 3.7342043260292024 -0.1389647834333929 -1.0606561586840055 0.8444382098944038
P 0.011295590415880453 5.450221649787098 3.6828877259463177 0.81341116538527 0.5558239096202621 -0.07567347957391483
Ni 1.4406660988077886 1.0794346334945648 2.5263441722589737 0.046254660092165494 0.8993091509006704 -0.021917111788065477
Ni 1.6029522180618332 6.591693586348747 4.8225763382301 0.5077499369311708 -0.5635842702919713 -0.428743536329281
Ni 5.926556950322549 5.370333054100478 9.086681575049926 0.35868431761835007 1.3656018491283193 0.0736461647312409
Ni 8.585352659863037 2.201060770020642 10.145795697694062 0.4500584957569733 0.8242013140222386 0.9588551287851035
Ni 2.3850879226015134 5.274479374165142 6.901958618491947 -0.9643326069599071 0.3361812514198274 0.9589852266050645
Ni 0.7169089945910267 0.04032334450156109 9.16536714884262 0.1796056968832068 0.1817080879381903 0.06136374781946206
Ni 1.552268264901411 1.191840017506862 11.409225896547978 -0.5467404592617552 -0.4719990045838065 -0.23215261774198728
Ni 4.174206199387205 6.8872868053415015 1.6277310396069287 -0.13639085205862964 0.24792864962932137 -0.4829935559220972
Ni 5.618897412708803 7.710368573892727 7.933479949399495 0.22677027038415137 0.5207715460018193 0.30940938264262197
Ni 5.230157989911076 2.915247848608609 5.030946408699077 0.12150879274047459 -0.3055200748905448 -1.200841701898377
Ni 0.8389647260239861 7.494339053450948 7.022767105920852 0.6262801066592956 1.300812877677392 -0.4417376345961037
Ni 4.916072708947932 4.250575076104352 7.159135458670962 0.22323731753022846 1.3521356963210842 -0.4374827159744917
Ni 8.189871621500703 7.284202806052929 9.140072101848668 -0.13756636042396955 -0.6238378157663901 -0.1545091589258952
Ni 4.65836610593941 0.1354757881191325 10.529447772842833 0.07975536295277233 0.47829743599800856 -0.7188850718812265
Ni 8.24849750464353 7.432166376577346 4.386617629226774 -0.4134099912960042 -0.21814447638835333 0.6461087113494486
Ni 7.305492593358028 6.1111797476521 6.851157341365876 0.41845089615402126 -0.7020723711992618 0.6676967219328694
Ni 2.2009163712936894 5.309848037348137 2.5685203329257478 0.23495949106316308 -0.11363324664713978 0.4643576859884648
Ni 2.203533598219708 5.364078784239336 11.423979836474377 0.5205638008663874 -0.8367745227015588 0.1441553264953969
Ni 1.1709292768600137 3.513085652954382 3.9092480728095236 -0.6365174681165876 -0.6411199998856055 -0.667845845916224
Ni 3.692510096113633 2.7311665465051305 2.4872987564909446 0.0872159329958756 -0.18830682420163053 0.184282790643902
Ni 1.2152777358753835 3.40216035589335 8.457582348810924 -0.25878873227227683 -0.021287962844498822 -1.1176734566093138
Ni 3.675913267434499 2.373048678741826 6.999836588080751 -0.1131961591097212 -0.00945985986131919 -0.17173246478271714
Ni 4.232543285076125 6.815159641228592 6.033078086211519 -0.19398793374680784 0.37904874020731494 -1.2809475062120326
Ni 0.6242059143793917 7.425217187842743 11.448866054572642 0.8830194126017115 0.08472993334922826 -0.3220365844883292
P 0.2472792099384452 5.747502528901113 7.87608687038803 -0.2706003801952243 -2.2450253168486562 1.0785669775261553
P 8.535345575735207 1.6028890436187913 8.054949061004208 0.2444993122327983 -0.09008348435165775 -0.6715873152365273
P 1.8511014303301687 3.2445671952652706 10.543436399516384 -0.6173483513873046 0.30752322136350263 -0.5428822618579295
P 3.8830442163278134 6.134057920953679 3.7452598535615236 -0.13929054220392786 0.44219554806912875 0.2844118321570198
P 6.954964683680178 3.927139977571015 10.366014586201558 0.4310894108536382 -0.016551219490461816 0.2861113313466298
P 6.315648345017222 7.610155857387505 10.070743556868317 -0.22332396370676375 -0.35860461342035016 1.080813864578803
P 2.566524923017669 8.298973884633956 5.9094691659717755 -0.5667950639197851 1.4603331166646334 -0.6539801436777254
P 6.9007249118685445 4.022244589110284 1.5899400877793017 0.044353586414710704 -0.8375970186028543 -0.14124586615808576
Ni 5.200845048339664 2.8332925461424776 0.44049734148986014 0.46689613613960235 0.3135339463339568 -0.10972954071735942
Ni 1.6246571517069217 1.199745847807526 7.034945333555231 -0.9109791310394312 -0.22062661938025876 -0.2726788599908078
Ni 6.859327601835272 0.6683847048905918 9.253297851128467 -0.7394042748805008 -0.4035786070278791 -1.1207253560617603
Ni 2.9467177461638783 1.6248827747177854 9.335034750520082 -0.25765950376384017 -0.19552416788567617 -0.27135911273811975
Ni 6.371512602507076 1.8867047414444613 2.572007562181657 0.5633862953485522 0.7388059791748696 -0.24414244311401176
Ni 4.164883456578317 6.769204746375873 10.244294581808765 -0.16095414322029056 0.09181023723477737 0.20309606669566313
Ni 8.150938114746063 7.162989099696513 0.31269544321622395 -0.9335477603685663 0.04314825325269988 0.14815596301435777
Ni 7.632131538645629 3.7078073362501924 8.217273084924079 0.5621382818740641 0.13215290271788208 -0.5623395992515928
Ni 3.0852051502320195 8.305895998607255 12.367041604758613 0.46456723089610963 -0.5822990730926553 0.26487067680029863
Ni 9.114447645258856 4.939221629862548 10.126009462133359 -0.47066151671930556 -0.7488759618163618 0.0104060258246724
Ni 8.529569626657096 2.24633879584077 5.845709908085779 0.2951438738625433 0.29185157626451674 0.6597581838120831
Ni 3.731840699367394 2.7980321820046976 11.449235173818417 -0.07168004214380559 -0.7405674419506666 0.47531572766186525
Ni 1.0413043446585988 3.2286743103800313 12.670212146948218 0.0979016948444959 0.7789370428678004 -0.2796583766324345
Ni 3.1840912034333635 8.380342567271843 8.056005879187095 -0.005436854744855154 -0.35762193779210666 0.28966922390121724
Ni 5.40484434984219 7.871734151262448 3.6978925586607976 0.5685066472942533 0.5536420714775949 -0.03188579296500314
Ni 2.933676736135957 8.257711948407202 3.5181856354919447 0.2248936221867288 0.24528118470414534 0.16630383756797812
Ni 3.429830761945675 4.408556308311117 9.335510363826982 -0.15242168026924718 0.13507881811542544 -0.08092830021495094
Ni 7.226398190669648 5.969407272545784 11.389571424825618 0.4624854086664164 0.44409353642279004 -0.4266367743989233
Ni 0.5492801224397296 0.10168377853605388 0.32127272759721853 -0.24829066095443045 -0.4111577049267177 -0.3493121323748307
Ni 4.547242260628819 0.4043065080552787 1.6231075728683095 -0.13526702286683157 -0.7821203256917886 0.4204193327343017
Ni 5.986004101224917 5.592815392652959 0.302916941925391 -0.25823697353386493 0.25009300427049186 0.8447462280531258
Ni 7.817629753257331 8.809874630433727 11.31903535418532 -0.1420555065435747 0.203007877857231 0.2985256458505826
Ni 9.084214161803121 4.626083965545031 5.84754647939421 -0.06978333934172498 0.6750984137135793 0.583138538274815
Ni 7.988778344378102 -0.013379444544217618 2.4368016191835173 0.06837488902997256 -0.1118725552022912 0.030993363057720817
P 8.632715442303546 1.726810226105572 3.71244885282968 -0.41813593601676374 -0.32960514086420656 -0.8339105708902025
P 1.8787537865416244 3.2558032212062833 1.5555569459077603 -1.1737026795897398 -0.19258745385485543 -0.08979809190075502
P 4.774110710512489 0.920207962267832 8.28211533326222 0.8824134035865964 0.2556321889211662 -0.2923285159009352
P 8.370667852566006 1.5904797780212878 12.417036956489882 0.08947156179927171 0.38500932866612403 -0.8846919152081281
P 6.284719942688026 7.838035098359845 1.5455582365583245 0.3184714928448902 -0.5610933855493174 -0.3808531404059054
P 1.8905944821517515 3.3320006244351728 6.0634848481396 -0.5326307593332504 -1.688373769120776 0.18171425858577736
P 6.803282845936727 4.042126488827593 6.100800186660326 0.6612386250123515 -0.1431932196924437 -0.6427997015808736
P 2.532230225366386 8.51084291675541 10.281438446841234 -1.1543597562867538 -0.20564711525229096 -0.524837745651393
