# total energy = -340868.87339546304 ev
CRYSTAL
PRIMVEC
9.22189168795848 0.00000000000000 0.00000000000000
0.00000000000000 9.22189168795848 0.00000000000000
0.00000000000000 0.00000000000000 13.49717064842505
PRIMCOORD
 96 1
Ni 8.387255291122582 8.645182383810832 2.4847078036444943 -0.27156788631481615 1.0762231598843273 0.2961185790709868
Ni 2.6528985112803354 8.259928630578884 10.132217975081021 -0.6063154906119106 -0.2784525292497914 -0.00017920589034162686
Ni 2.914680354754945 2.0786881943821056 7.065566376046813 0.21932461273938358 0.3158667082321915 -0.45031457763183735
Ni 2.1788010521254515 7.347081223666523 7.968703130858607 -1.520071927286163 1.6750881077554634 2.3706627870455237
Ni 3.638608085568358 8.05062857352813 12.46224790919315 0.4047384316639352 1.013325749029158 1.1725086592816385
Ni 9.267816854726224 4.7227060238268805 9.472165678051628 -0.03959241758064149 1.7312052624640055 -0.2551264529293413
Ni 3.3959893333235445 6.254388482219275 6.7202950570477356 1.4430835855555664 -1.7261129355427627 -2.9912293882598098
Ni 2.496255456598272 3.8878573780413825 11.053912865018344 0.34047525080949104 -0.5671169660355782 -0.31773384334791727
Ni 6.7339360794476955 4.909126567238979 11.614140027329595 -0.6817264605530582 -0.5625928529129794 0.3399350620353049
Ni 2.316465453414386 0.5915871276798977 0.5897787146913689 0.5802385910192007 1.1865306845923438 0.6273471144712292
Ni 7.261769502315777 3.718036239929397 7.774249397470438 1.1346283392960974 1.049212178513122 0.24018243002499928
Ni 8.220744812178784 6.334222399820983 2.342676836572447 -0.468565039201593 -0.7146856890878983 -0.12053691574550855
Ni 1.5117170625730916 8.082056780896345 1.9972303016285362 -0.23854026643588597 -0.5409909583724877 -0.9629200428830964
Ni 2.0628449842123313 3.4797978863054464 -0.02722855782728477 -1.2557398965981534 -1.8877412220119425 -0.08025852784143596
Ni 4.831939332593455 0.9188573138201852 3.671824417763067 -1.5256903019142047 0.5470644182600771 0.4817221454088414
Ni 0.8205067596062012 5.359542208165703 0.9958914650612746 -0.053755853565217095 0.12786533108612172 0.49632395448241623
Ni 7.782612731174145 1.7833202208502679 3.7659135357608386 -0.4598525990292596 -1.1473871816236627 -0.22740944663004706
Ni 4.301864990009858 6.709913051221699 1.6748910610515657 0.14766411097960377 -0.3625494570007111 0.3208381933048539
Ni 0.6136754029992476 7.16822263155781 6.092380130868542 0.4476102913267969 -0.17629668711463187 -0.5652534304642781
Ni 5.270864496295767 7.538638360829823 5.272008010883108 0.04386841924817607 0.6749294922358827 0.1092600572801086
Ni 7.756782212148803 1.7048050337807352 6.14858202845799 -0.7940397028371938 0.5665860332327727 1.081103370794764
Ni 1.1726004341836236 5.671196042675318 12.199903530316703 -0.016180466414604393 0.31088493874688394 -0.8556088817992425
Ni 1.3538198306016866 4.936368035714831 7.474098950833801 1.5806538026342778 0.22230657818584296 0.19014876250637575
Ni 1.0628138119070454 2.679300787599348 4.786933733878934 -0.10093276836133586 0.10833934523805212 0.8633432743290227
P 4.665631735269994 3.4070002721726196 11.991952636041177 -0.1772348826581851 0.18830373887783697 0.6839810609151897
P 7.191507908437134 -0.024888041679968886 5.0361719600817585 -2.0902950430508906 -1.478651455357847 -1.149759024289949
P 5.694840973336144 6.97131679713114 11.117875906774776 0.039013148038403785 -0.3391459904751062 -2.168738629170775
P 8.71184743987445 3.5202635476703876 3.206401070066675 0.5799678538563173 1.3508043791041704 -0.08424142374858395
P 4.33643786249326 8.329489360678188 7.232013223936959 -0.5698335936357928 -1.8055566807923873 1.3634845456750002
P 5.818810865252486 3.1499400373167084 6.250729235539784 -0.662131569140266 -0.8789660684679443 -0.5652889116879039
P 1.1869773635518879 7.188354021430112 3.8568838099405554 -2.01836894633455 2.0120399187927283 1.4579121659279666
P 2.092438035105699 7.233605844656585 0.011902695789364105 -1.1384256015550005 -0.6334979645639734 0.48305063441227775
Ni 7.414723800264483 1.104422987859328 10.327846577488765 -2.846299388381918 0.4449445715691756 -0.04416203922919491
Ni 8.811711306538294 7.646137953931719 0.09674410065660649 0.5150349006283582 -1.6256275391314907 0.30196038256374447
Ni 2.4678612516432463 1.3135662727489137 10.705456304580013 0.6174725356699946 -0.6776188661425878 -1.9146444741606898
Ni 5.529732221951024 3.1438628105985007 3.140049558325391 0.12847391120439808 0.7978228240287099 -0.5560373111826489
Ni 4.830399276657278 0.7374820674301378 6.100896547976682 0.6903321999441981 1.077424893501912 -0.7795199119544639
Ni 5.923553112696196 1.7551565631910768 8.11206942786813 1.1509355610965533 0.26698309515761115 -0.7485008378651303
Ni 4.512031904892951 6.275644942895252 8.776805523759707 -1.022874826170174 2.3096047433919384 1.1297509565991382
Ni 4.518275125664161 0.09361972370345195 1.069229482055539 -0.11552994944922038 -0.22995535298035233 1.5409793668627911
Ni 3.964943171876739 2.829599180700035 4.906626512362946 -1.2374565249079335 -0.0342280679449346 0.961961278514253
Ni 9.002705908299758 7.6169875538463545 8.969302371700831 0.2658723785919357 0.326188916093806 -1.1277925473211867
Ni 5.414827449706911 1.970340187231537 10.405103898512223 -1.4184842989496473 1.3234645536386367 0.9931947826072378
Ni 6.508082726555997 1.2342764467653755 1.9570357638834968 0.19838914813829703 0.03631014728494392 -1.9968246445048707
Ni 8.634355882798426 3.745969350292753 12.551626484842423 1.611344289739599 0.5212292023645282 -0.7226928756630908
Ni 7.673932735917574 7.918229872476065 6.7052458517648175 0.2064863233241347 0.8175686391970692 0.8889874572596883
Ni 4.864160622659341 8.97221833389855 10.787694369382688 0.30654825904474303 -0.6040138390619275 -1.7875957254385924
Ni 8.431575703273882 6.585426733362687 10.958771529162382 -0.2778830298995666 -1.1869968255954848 1.0846561211430288
Ni 5.528828476551351 6.463891420890363 13.103984606852238 0.8822246846145582 0.51195523326177 1.336383318582834
Ni 9.304243327468138 0.15391521907774444 4.7752044096560375 -0.5921852218581155 -1.3502245953413003 -0.8521643748940679
Ni 6.110914289075302 8.52903265616921 8.557354930367936 -0.17290205961078609 -0.18611984385264077 0.20882936963501453
Ni 8.926560747431408 4.772126142162049 5.878099330038571 -1.152860288923092 -0.5303838722806027 1.8850364214862696
Ni 6.694890589425097 5.717978699946135 9.29430028369337 0.9032282834494186 0.39098122997884277 0.29529993982443337
Ni 7.117649776743466 3.974948924515973 4.617935188518486 -0.1543212112848052 0.42725743870205773 0.7027372584767704
Ni 0.8398469111591991 2.595372350023612 9.612995954806966 -0.6409919589481735 0.5055835254074711 -0.2206803554363296
Ni 4.722964236798216 4.350353697269854 9.980563963880826 0.02592057652050375 -0.8118970427335888 0.49943987440357857
P 8.250457747665987 8.535580199370921 11.581611648265657 -0.8052767092035938 0.8574197097557362 0.10272302749253923
P 8.286736670138566 1.2621357819940648 8.318602917368866 0.12615169082912467 -0.5893513519537463 0.0728627495979971
P 2.791033229052773 4.711150993359636 1.7672658293575092 0.5478015535364179 0.4952440911546761 0.9896258343090569
P 0.9892876683193798 2.182139376969141 11.914128168669963 -0.6828364057877853 0.8453470948619184 0.5718871337307119
P 8.285436383390056 5.877240771908882 7.646350057443887 -0.42806065132964344 0.45679967113554876 -0.2914990780211044
P 6.654305043466322 8.233028372100868 0.9097267187159399 -0.43896187162317946 0.44719120151150726 0.6512756002623687
P 2.3779939157268033 4.576419153673721 5.445662689430236 0.36186168690506715 -0.31975318777079126 -0.11762951229072645
P 1.4716571644488199 0.7684021485583309 6.079422450653438 1.5222223979702623 0.8231882993766919 1.4656992660725532
Ni 4.826360088034251 5.039754665059032 5.129437563138808 0.7966367741404087 -0.010895563866581236 -0.5456541681761119
Ni 1.0806120631454996 9.135925357724995 12.34651040011648 0.7635371633729624 -0.3734015692238666 -0.0027971031291629243
Ni 3.988975421994569 0.8084094818991524 8.849258239137965 -0.8012521614252329 -1.0082102821794638 -0.4591645718232995
Ni 6.667934999596081 2.5990611067569698 12.979135868644175 0.13430465895356225 -0.26434462909349954 -1.2559203880400758
Ni 7.425301310197386 6.592813468721238 4.720068562762529 0.4707718170449247 -0.1698445037313849 -0.4499381681290251
Ni 1.5150922749841145 0.43755017962995246 8.421586550039947 -0.31731526775325997 0.23548579588027832 -1.2179143411099476
Ni 0.4786862725311816 2.655093321536684 7.223294847397667 0.14470914211633787 -0.2891819998521536 0.11906778739914978
Ni 5.827580884386045 0.26246703003783106 12.76731177979862 1.7910250628351154 -0.2239076041243757 -0.5419638638087183
Ni 2.2331548825914873 0.40816831005956977 3.770421196489002 -0.8283004237922768 2.909233566012293 -0.3851144867854206
Ni 2.9712658830446625 6.087924112734645 3.7789108701108263 0.9600797452208238 -1.619557421678011 -1.0217731084655628
Ni 6.046222717864029 8.426973979249016 3.260430289940175 1.5075835650111649 -2.3780241125066013 -1.4377878843742657
Ni 3.4310601879659495 5.238569431095215 13.271511338276076 0.997571828629011 0.2558684733016884 0.41713089179101714
Ni 3.49107626001769 6.183232364832791 11.185064766294532 -0.1677714232524401 -0.4853628274852221 -1.7839445018392501
Ni 3.8017525739929647 1.333743772080384 12.32930142776618 1.2413954549510233 1.0605594852051412 2.1538884515318193
Ni 1.5244524951950114 2.9701223684573215 2.4858817504748854 -0.8076752913427575 -0.02823482647597718 -1.5107701902692627
Ni 0.6237171210166325 5.236964821916205 4.008983238516304 0.53141411331733 -1.4349648131031738 -1.79833213801949
Ni 5.001659029895274 2.9900139891419566 0.8153627883415329 -2.893220221303172 -0.5158687093835632 0.5141113603728243
Ni 3.015374191683795 7.9806989677554885 5.083736633780048 -0.7380413330947031 0.8859784952300355 1.9975319549845405
Ni 8.426927869789852 2.7556672738716994 1.1699417627680557 0.2991110860404074 -0.06212196614172527 1.0327519760745698
Ni 5.961482753806954 6.243276102560032 6.992196082431131 1.1927782081639522 -0.7247893531808034 0.5157704932428021
Ni 4.424165719504355 4.260772240000247 7.57361330779716 -0.1383842283395746 -1.1009170630865814 -0.2363617707273284
Ni 6.490229143966542 4.719856459250361 1.312809155429392 -0.30286104000114294 -0.5787445229721775 -0.015888131985166188
Ni 0.1743158881915829 0.5996682714935027 10.373385201551258 3.170468445832217 -1.7051895551265341 -0.9369393025486186
Ni 8.147449215886954 0.6392209655669377 13.409952222857381 -0.5237619960887109 0.9296859634203151 -0.09191256714059655
P 3.4583662096846344 2.301276997564783 2.7314902400520857 1.7562789176031817 -0.08266945127577376 -0.2989917868537238
P 6.1401845737544996 5.5654854965891 3.2589732310304984 -0.4136105373425844 0.2210397956582774 0.3043563935997468
P 7.88158207433015 5.653665226300031 13.540091560410264 0.4016281681697277 -0.33361091958948996 -0.7764798395765595
P 0.43001497181288467 0.8968953784189528 1.5241546280887928 -0.11653216546148963 0.5934759156450811 0.2066254200051603
P 3.6137274214018555 8.30350206949168 2.96836559806306 1.9215211466758648 -0.6682862758877524 -0.5305484228829249
P 2.6087348712902023 3.395906336297044 8.742198530276523 0.7181276248899116 0.7169716569085975 0.48722044951925125
P 1.3881252682219196 6.353081168620277 10.028519645792851 0.7861371601606655 0.612324672920468 0.10359565990547964
P 7.668288938115536 3.517838190118205 10.061587505529044 -1.882135702899707 -0.9556659324238446 1.1392756082601219
