# total energy = -381173.1934966702 ev
CRYSTAL
PRIMVEC
9.19012333919139 0.00000000000000 0.00000000000000
0.00000000000000 9.19012333919139 0.00000000000000
0.00000000000000 0.00000000000000 13.45067445880592
PRIMCOORD
 96 1
Ni 8.52764398723504 6.76552976316638 4.677202925675684 -1.0232700047260634 -1.4930385773174544 -2.0154499729155417
Ni 7.042979582842154 6.956123728395126 0.41570787125465 -0.0714481286386576 -2.0000066417772784 -0.19783687517925283
Ni 5.809554766733345 4.073751865411678 0.24549668029085492 -0.520915013558219 -1.6621490310962923 -0.8347783182071364
Ni 0.7024130640140761 0.8601982893871586 0.9188312754597467 0.6865987010436949 -0.3549143090529565 -1.2596325467843403
Ni 7.391505815415325 4.671679661627154 6.052601360176714 -2.002487756327919 0.44883619331409796 -0.12354510644421303
Ni 0.4163713981503303 2.5807612093915564 11.439986680027253 -0.4938618660951688 0.9717605239928618 -0.7839434949434563
Ni 0.5971640969768178 5.4650170476328235 0.23971149773087147 0.4165755335081794 1.4108373239273508 0.18237580342917625
Ni 5.3125253332280495 8.158724871261386 10.596723949689398 1.9488185489392371 0.11328177684499202 0.17658336511711523
Ni 1.9072906003991732 4.230599698217456 12.412941348100995 0.9811185681689942 -1.177697659681746 -1.0168509885735972
Ni 7.7278091841207 8.727997863311606 5.616288313675458 1.3041686815235023 -0.10236795814596564 0.6233462208419523
Ni 4.591550977369019 2.5950886114741842 5.275986322361905 -0.24540125522177736 -0.028350269007918916 -0.3050935288760875
Ni 0.22191298611225369 3.449227852629735 6.379991228381807 -0.7789804945112262 0.9914765143645505 -0.5293844844818109
Ni 6.286025894620399 3.3672060029905735 2.804479135702032 0.5374497779884486 -0.6321028839886598 0.7022531197515002
Ni 2.4277640382102947 5.439523645851418 7.133712750271003 -0.04673442794206145 -0.1896779935175443 0.9592114836832578
Ni 5.298106029913333 3.577301409668542 10.29374764378867 0.3919839602117443 0.19151427539533467 -0.27818847695512733
Ni 8.858515993123973 8.886398826939683 3.1867202542792623 1.5378413354544418 -1.5068166049381533 -0.9154009142562105
Ni 7.396689044905127 6.921899709565296 9.699415942784826 -0.08776743462397144 -0.6772182882700596 -1.0989013182081333
Ni 4.4119392093748715 2.264694491992113 12.724082159460487 -0.7100543609634739 0.37310075015399613 -0.6860052904340701
Ni 6.773157565429742 5.442740188974524 11.760368160273261 -0.5178916533508628 -0.2573067484101117 0.07437352981556869
Ni 6.61552857215121 8.60422528393455 2.9535659094579194 -1.4867044075693108 -1.8117918630688215 -0.7438653959756479
Ni 3.2807177534719014 7.27349544329023 10.327898141632831 0.3643456296691855 -1.1426563518068966 -0.05416388763691317
Ni 2.253896097221691 0.20641751936977865 10.031930223691184 -0.7307712817958512 0.5768527052661033 1.4991503466421472
Ni 6.985458601677839 6.762873817559017 6.94743446690114 0.2609065499462281 0.565666863852613 0.007169521165245716
Ni 1.567926920665245 3.3571520082000705 4.57996774607656 0.23902131983736252 0.03389613852681259 -1.6741725379197299
P 8.947614237633964 8.20250661822844 8.418938614858925 0.7885959061138031 0.13859531590911614 0.5004976262441315
Ni 1.2437177541027429 8.22658474103568 5.216104398545231 1.1595024768299578 1.9163370313717643 0.8338645481436157
P 8.336268861533538 3.982549082686856 12.559419045877886 -0.7952954296211657 -0.3967916660130328 0.2101285480624123
Ni 0.11404575297278836 5.416088831668802 11.272485656397755 -0.03448877780548899 0.3799396274527005 -0.38615218402131557
P 7.553104941920089 1.2248780015245602 3.213917504903591 -1.5425955623099756 3.5013771359991956 0.30972151456640207
P 5.060761907921067 5.699163006748403 10.177694767907065 -0.5323456239926638 1.0261979770061358 0.8504365935696836
P 7.830793704799292 3.751748328419305 7.865832887557749 0.607826013719166 -0.8958957543437475 1.5246022110563484
Ni 1.7159338549440901 3.187860748569483 1.3397784359557732 1.4076733243770723 -0.3466261009022353 -2.2797992299947314
Ni 5.911804077555228 5.066854959608547 8.253925357582068 2.278649175550689 -2.188125261227502 -0.23481525217581492
Ni 4.22000348615763 1.3613789015459004 3.279543255725808 -1.0291226068520984 1.2733822922702651 0.18722413266041305
Ni 0.23071804315867167 1.1082461478807957 4.708784784082964 1.1402829664787135 2.278853835362327 2.205719063049866
Ni 3.1495103644188704 8.986800922996583 12.367316981430562 0.7450928406248458 0.7586744359640225 -1.3047872889441077
Ni 1.8690596878502757 0.40986754795541325 2.8676842080710325 0.8612429401565684 0.6438003749312461 1.2332975084342372
Ni 4.891240895210258 4.898004825891985 4.2126569016644595 1.1170227103991925 -0.33931516906311887 0.6842186308472926
Ni 7.272741853187102 0.5725235386291966 10.688793361032818 -0.9423746146315769 -1.8425417426571689 -0.08168986097132383
Ni 5.856957422244695 0.48315142844758135 4.92083492996746 -1.8572682502340658 0.7758334642418122 -1.4524002349708018
Ni 5.014370165962693 1.3163932484384837 10.609327284658043 -1.4310377101346259 -1.2226032619451848 0.09556276229867414
Ni 0.6199510074732101 7.620716678367741 10.431388119087911 -1.3160572054309723 0.3427319080541517 0.21860856050896543
Ni 0.3237064668229771 6.853754945971528 6.720279434510547 -0.8809501887775085 0.4069837760546862 2.988214512692886
Ni 6.579962795332885 2.0682096577864804 9.122381891684716 0.924875429405549 0.18442471553840495 -1.779515005312987
Ni 3.2851749632282035 0.9845470894894107 0.868277326700076 -0.07437815780125902 0.21470511168950124 1.2117935729241904
Ni 4.869892238996052 6.971048488486331 8.38652229326428 -0.9976911278156947 1.510809013926998 -0.35709023365835274
Ni 7.779145212365445 9.03755797347917 0.6871105898589874 -0.04173183252114749 0.23643967515311543 0.5121928031938727
Ni 1.4429596252710362 0.5363456996051604 7.148266229384569 1.1115822561099116 -0.25107953655347726 0.2037370427137717
Ni 5.82374431696784 9.470421966740139 12.801719401316696 -0.21622360521655665 -0.7796528379879024 -0.47643544308860536
Ni 2.9578779152675208 4.266202235528617 2.9623360440361437 1.5593650684588305 0.4509642954006943 0.19925998077902457
Ni 1.9390424760858178 7.576714368443674 8.605956703147102 -0.5312418494055238 -0.973324268935556 -1.9468112887012212
Ni 9.09771652000443 1.1694431783286585 9.58100947634943 0.6646800465937327 -1.0963494983205568 -1.0345833728563538
Ni 2.045941989251389 6.930860079693944 12.136449139263586 -0.8829391941830794 -1.2280537435367946 2.075680635571825
Ni 7.321578167919036 2.2007863751976333 5.406337191931869 -0.6092421773404024 0.9393846787653176 -1.169405594876283
Ni 2.583463105614964 7.99991954221212 1.0624839293622295 -0.5387810952053624 -1.112163325424362 0.17562537207922013
Ni 5.094508040344036 7.844845403185653 1.0769905388474301 -0.85163292787063 1.181160935639998 1.302594395057847
P 3.678879841496178 6.571912247401915 2.3010873798992364 -0.07891255533650281 0.5567693042526669 1.9013840096063575
Ni 3.9144594598323414 3.8130280699760477 8.281902849666828 0.05904512698861444 -0.9745517135847538 -0.3453300077986311
P 1.2267711669055872 5.64804754146067 5.312330502616021 -0.26645267657543786 -1.916948182593202 -1.6699798399946206
Ni 6.6995354884034874 2.3503372501755684 11.930412090994656 0.8478528920029076 1.4921926843773916 0.12504328825629432
P 1.9727426578927425 1.7686575917933751 12.618440774162208 0.5247734680723607 -0.36499457610709396 0.3217213672407556
P 2.762027199563301 1.6335535904997829 8.591752448715472 0.16227774712772053 1.5615654185442591 -1.0594022316722465
P 5.050680342760936 4.358921388582902 6.336236132772058 -0.42653495871373637 0.626136896213212 0.3428571207781063
Ni 2.435152897270226 2.882188060519271 6.655514798233002 1.2259963467871338 -0.7055479884526881 0.7160496593149603
Ni 2.924821042085217 2.6538778296413232 10.498035811610952 -0.27069782500503703 -0.219275504669003 0.8319894426080897
Ni 1.5145231146985036 7.239822831852932 3.3598980170148804 1.9523700137359215 -1.8865402597253056 -1.5995555246347872
Ni 8.581295926528421 1.3859808613760443 7.065477923469787 -1.6178090715283362 -0.17900714406725945 1.6874507430858743
Ni 4.584777856564083 6.945233432392616 12.475688752334197 0.26563198044635544 -0.3916461172563513 0.1065783966828874
Ni 7.838513408294743 3.7850349546818305 10.071528626573562 0.3733388343067312 0.395548537634551 0.1756513402211491
Ni 3.207996308520116 7.961063701285019 6.728269327628339 0.8083016120728467 0.14373263713568152 -0.7661080094239322
Ni 6.933313842590712 8.785996730882783 8.138437674277807 -0.6786354803325603 1.320322151354913 1.0460173257249084
Ni -0.1299226098284315 0.42590615097953255 12.078786630201854 1.283907617281621 -0.6943696032383655 0.5860161169329263
Ni 4.207927664261175 9.242598812392261 8.652805194228955 0.3440084607737301 -0.1185139717782088 -0.029910157295871067
Ni 0.9139044504074717 3.0188084321423263 8.482640872893526 0.4568269248290584 0.26912688097349136 1.5712960155684614
Ni 5.728580591139995 7.203383993329764 4.760839479962644 0.39066189896621106 -1.0147249433695298 -0.24578692069597027
Ni 8.490672121565757 4.111330279212746 4.151227361099412 -0.42094332355857184 -0.7191609512504324 0.180791746771508
Ni 7.735767830819581 7.682253743374333 11.781405271310685 0.108385110874323 0.28224130686826226 1.0872328807312694
Ni 3.222286950109909 6.253042542423766 5.055220263626118 0.39295532298607805 0.49513764748379885 -1.0076994039813163
Ni 8.903795730174073 6.956436192584229 2.0928980047747876 -2.2950165611651183 -0.9760491240658867 -1.0533362279838245
Ni 5.5673766399332125 5.46008195146966 1.9331176036530593 -1.208939391304847 1.935912896621163 0.0510893624766475
Ni 7.7557655389220805 2.220848414162596 0.602105626226227 0.7193890081008384 0.74589682458338 0.1670952231210219
Ni 0.2500182209096187 5.383859069575295 8.881089692761918 -0.5436448510555669 0.39447561628534644 -0.7618793160545654
Ni 5.472626469649766 1.36000038306457 7.1757731871610355 0.27858236995943636 0.5554914659815079 -0.49748660733194966
Ni 3.7977908456957414 8.411940336035372 3.891925277724193 -0.18395163255672833 -1.1113845382768084 -0.13230974001072052
Ni 3.1950382347956103 5.154694157238922 0.7710789075937874 0.24609108219995038 0.10775313371727895 -0.9922367895693428
Ni 2.354941501903212 4.807445351791784 9.75726684937234 -0.002346645855305636 1.2099220669330906 0.7419468387966963
Ni 0.18562946067131558 2.3628909584788844 2.605691256620257 -1.7865009497125168 0.09414865555996689 1.4519955433332155
Ni 4.226482523019883 4.582893881306264 12.01235306754958 -0.6895976357710187 1.0201666832103915 -0.11396286207241664
P 5.429598312785839 8.425394676413157 6.545730505392166 -0.7102129980285252 -0.7954250132204946 1.1239538903013868
Ni 5.809527196363717 1.3441749908988965 1.6700218374172193 0.2192729335658417 -0.8369714692037135 -1.5935517416428686
P 4.083566916998751 2.8717113200611593 1.3905575427340615 0.699999290720317 1.7220063695735568 1.0249743890116798
Ni 0.6326425676246589 4.914905462473097 2.599571553575471 1.3137990055244149 -0.34891823937052163 0.23676363415143742
P 0.5349460438404496 7.716836177009309 13.760712434211523 -0.4345627141142194 0.8528601154095119 -1.4811698509043265
P 2.638870358441239 1.3503231833256304 5.07033893531703 -0.49426064419548427 -0.7119294664989997 -0.8699204133259082
P 7.141966399924888 5.532812586544654 3.2690922476126816 0.6234405803279714 0.4741690156519317 1.0393463414626356
Ni 7.871184296302274 4.6945538782940295 1.1399217455448065 -0.401420937254928 -0.41881830679576904 0.9756362048981843
