# total energy = -340870.17732620164 ev
CRYSTAL
PRIMVEC
9.24772910605331 0.00000000000000 0.00000000000000
0.00000000000000 9.24772910605331 0.00000000000000
0.00000000000000 0.00000000000000 13.53498632149317
PRIMCOORD
 96 1
Ni 3.4539620140044005 0.3319416806084171 4.549528435994861 0.6601045114079084 0.004630813903792025 0.07505641481520622
Ni 1.8463830588313317 8.172384497412109 0.4977719554331847 0.09688816597831701 -0.6398835563753431 -1.1907570639688654
Ni 6.5995585074850505 1.9040611440467048 9.39782787376873 0.6679589744553206 1.1336130106577058 0.4566376916363878
Ni 0.3053507608988958 7.839567981648749 7.412354348257613 -1.7652458969884826 1.5216513559581406 0.35518993131184634
Ni 4.875365690749395 6.845714555627236 10.756145393431435 -0.010132203337995454 -0.21265697091122088 1.6186997016634057
Ni 2.3467776701835605 3.68710650756938 1.908297528660648 0.12111361418458495 0.046455463249061926 -0.44917146516632966
Ni 6.757130560392659 8.023921457481435 12.826321642353355 0.060537138153108655 0.863087706674791 0.012928020915577734
Ni 2.4565297168944875 5.819956464864174 13.087938968461161 3.5401979655211355 0.8914611156111615 -0.9524494823690758
Ni 3.7653422941530033 0.4133753318493238 7.521350855516544 0.1834188999817099 -0.18007980830614792 -0.4023992420077973
Ni 0.9608297860817825 4.5198829914261704 12.300040788234591 -2.6410631354148 -1.28269765613392 -0.7977783439440196
Ni 2.3392870097659797 7.7113574680322765 8.48881866141035 1.0999876092937766 -0.17362299693721067 1.367773145748025
Ni 7.199366204626163 2.616894583933094 7.021017279175125 -0.08376756943595895 -0.22942621994975973 -1.0277205842982495
Ni 3.2307033426448455 6.65031004374639 4.657524338985666 -0.04795518772303999 0.06995714591542791 -0.6169230909244278
Ni 0.8242907678084297 1.059549292202371 1.1976678225736532 0.893975397392583 -1.8427803410305357 0.6146268386910834
Ni 6.485275073607933 3.243326492607806 2.093523990102495 -1.435664667383676 -0.7152562168793876 1.46184621087505
Ni 8.595486590529594 5.640883442239438 10.786097862599958 2.0547816806356294 -1.4308466771697421 -1.0774035533456736
Ni 6.060804316611679 5.519275807065129 1.4224597673865844 -0.550055382567601 -0.2392889716764524 -1.526024802435488
Ni 8.137122907076014 4.010000210211672 8.655136291548706 0.5742466351018239 0.5147682772305328 0.40623455659348745
Ni 5.364367100083772 4.748311143246747 6.655951158381852 0.7612709930466051 0.39414008732279865 -0.05683063583579891
Ni 7.844099368814939 5.991159670185997 6.137087907622276 1.508839291795137 -2.4042809893206014 -0.6230433448895528
Ni 2.531575037003956 8.178062602963212 6.251458270151153 -0.7366796768604861 2.172629993805381 -0.4397853959657394
Ni 1.0493490472139861 2.173715671350709 5.82349557071826 -1.0648429430718436 0.49555982262288206 0.4669606708289506
Ni 7.140310207803111 7.940590172268075 6.843533016377227 -1.637958807003334 2.2209379368821494 1.010945935943072
Ni 7.273560733675857 5.22291383866733 12.66888183196917 -1.1801862304315547 1.3999595006725825 0.8892311978393782
P 2.1230751078362973 5.585998171155063 3.029237869235996 -0.7910567089494698 0.049691196577540224 1.0326121080625958
P 3.3729334132897777 6.353078788830995 6.946452840969007 1.714782598131608 -0.8599031382992223 0.37100427263628366
P 7.41502324282121 8.859185580415176 1.450111401602151 0.21641618084333697 0.04980201112379165 -0.4012664139549348
P 7.011406114518344 5.474637019613692 3.269741705468026 1.5068207187032114 -0.9796466116091579 0.30087871946379147
P 6.046636795920649 0.5470928680320545 7.842481941028477 -0.17873923511785347 -0.5420456248892471 -1.0955712253936358
P 4.935512919583896 7.625020670922972 3.3142038612972695 -1.105335246758935 0.4336628280077693 -0.34566733653339177
P 0.3546124880327378 4.2656444282161265 6.8775729817242315 -0.1524738736634213 -0.20655651444043785 -1.1420184611125814
P 4.648121248229375 6.430288077505542 13.107239903470463 0.7696198792319326 0.26980359532554177 -1.1020257227697279
Ni 1.6022152724049241 1.6044439750723773 10.704049237386496 -0.2315358100935948 -0.8864706043751055 0.33205488795627974
Ni 1.5567164461648029 8.30463626856251 11.468654238033062 0.09037710433267662 -1.491853812980734 -1.2374225863462043
Ni 2.3033873261350544 3.6948653521253676 4.571631432864071 -0.541315431591442 0.7201042890003082 -3.1987675498872266
Ni 7.71000729961133 7.659875361187001 9.162102339064804 0.5645767161122276 -1.0630799376341498 -0.21550781009645462
Ni 6.605504797174563 8.607850804083059 4.346436287070637 -0.014476596349620232 -0.6176082899169105 0.129111544788397
Ni 7.876688365495872 3.229279192392614 11.849569116633312 2.284422844809672 -1.1761714528452065 -1.4242741661585472
Ni 3.7990040273875643 6.367098345859455 1.4874953457232263 -2.10090315758404 -1.160814510773162 0.48691217425021305
Ni 5.1273940467498065 8.059460479684848 0.9924172537216975 1.1696609054201987 1.4797616577028903 1.3186491345278644
Ni 6.5794262016466885 3.698545948231784 4.702202891671417 0.8152857567001636 0.8914472316540905 -0.5871900826363694
Ni 4.951964629315843 1.661040076005211 11.396823428492917 0.5760232673862725 0.9649465863948221 0.8359103749290506
Ni 6.03808264667835 0.9929656440460958 2.700392328266845 -1.145990301276136 -0.627502666212487 -0.6622616669602273
Ni 6.277756036854209 5.097089239109791 9.751578473467 -0.0741408449794723 -0.3889248616704463 1.437342055086099
Ni 8.926878956040722 9.451641333072365 10.04115908225466 -0.2816599804434956 -0.3932929088311549 0.893151615939707
Ni 6.128497692237226 9.041800483212672 10.341419893161165 -0.1905169444790719 -0.7876055171760759 0.47661901985432115
Ni 1.411721304575603 4.549318512548591 8.727467403222915 -0.8880238077948384 0.9961186411222522 -0.6673712202726507
Ni 5.7143196575184625 1.1431765047408704 13.659236842143805 -0.562963605988837 -2.8401894188294374 1.129356549374197
Ni 4.8654613730861485 8.027787008166063 6.074908027973225 -0.1769770010111081 0.1539633137247542 0.28723978852411824
Ni -0.15592225806995738 4.870418155782228 3.858121059221426 0.09128007576292022 -0.19779136665329808 -0.3128942558674289
Ni 4.3231283111243775 8.784880078618555 12.24282786378342 -0.5049908861287948 -0.44569919034701305 0.5178006362989533
Ni 0.9676268668310689 5.630396517654823 1.2154660016349819 -0.27695331899644565 -0.842539450209794 2.136147582608631
Ni 2.320329165499263 2.403752928001729 8.099443960402692 -1.1248663748133272 0.3010900641436492 -0.9747026373403215
Ni 2.825449366324805 8.116065828346592 2.6285078818990177 0.23639082419305096 0.11330851631786938 0.6323263128533755
Ni 1.3713642156097718 6.257725456033862 6.248629389877403 -1.6326327668047302 -3.3124470763912695 -0.961815496965008
Ni 8.10590257427385 6.642033326371409 0.9240090286513624 -0.765825959407139 0.700417094984026 0.007111414233800656
P 4.591802579163858 3.4450564510634982 1.1525037641200955 -1.3291883434962914 -0.10816759554687824 -0.1843180147572116
P 4.908361587502394 3.414548193387449 9.949581597171724 -0.7877117037366369 -0.8776216386249079 -0.23627795276427047
P 6.560505348295614 6.103981962895241 7.978441126699136 0.2939629661805647 0.015463642853237883 -1.6832061088769077
P 7.239612320845067 1.061981444905857 11.805499064509876 -0.29914065372676224 -0.037000488483749185 -0.2548307760657934
P 2.1920724132382374 0.9870563452722263 2.913771650831213 -0.3116896940363664 0.09375707654850304 0.7003978117103163
P 0.665731982226062 6.925735153890604 9.61113968791205 -1.0505548085839456 0.9404360028479675 -0.4779032858833834
P 4.5323951686422035 3.263514284819632 4.936710500477818 -1.2474306054015096 -0.2774505703478383 1.5254799856756114
P 8.235731440449676 2.325295195924251 4.609772765982924 -0.021694968474930378 2.6152109502383865 0.5951731008418459
Ni 4.360008254019825 4.788594250381293 11.641089240845778 0.7203860819067852 -0.855395737347172 0.8369892098155263
Ni 9.047765268360004 1.802410107861458 8.462899126819739 0.968633548328106 0.2059967852822259 -0.6558516496688254
Ni 3.8723847562931257 4.935540662770629 8.613326384371021 0.4732552455884108 0.34123886844839296 1.0258249099374332
Ni 6.004874052160408 3.11878732736884 12.994831909016412 -1.023489062715405 2.9804176423562865 0.462682612278887
Ni 1.2594759435204979 8.726425184174692 4.377606682136685 -1.656771825944779 0.27026485123267646 0.0919328788555707
Ni 8.1479335021725 0.6685738093202874 5.758229723931743 0.4512041793256423 -0.6805717781233247 1.7696082877222363
Ni 5.794617687649148 6.306701428344367 4.81978129135938 0.321894145373194 -0.5125558429602464 -0.252634539745423
Ni 4.261529188850912 5.060274030316717 3.2891637857260547 1.2152679046260362 -2.5211592252676 0.4949805530806443
Ni 4.816809071287515 2.5159556228739635 7.499708395547081 -0.07102261106546479 0.9150751554856756 0.42561630355420893
Ni 0.35081999440650324 7.78382267177569 2.3016108374113293 -0.4231457305265293 0.6864205235946179 0.7613936346673984
Ni 8.366494327245471 4.022401414680778 1.383546248903697 1.3642407071147344 1.4698893928945007 -0.6851941073866844
Ni 4.878056779862378 7.581907758741785 8.616846069994393 0.3084611597967397 0.3235638197661331 -1.920685538148447
Ni 3.3792033734911597 0.7619952915479968 1.0693426371186898 0.6977552318811466 0.6118299926722366 -0.325557196047078
Ni -0.05096330925339122 0.3708931147798381 12.51266179702829 -0.5626674149046567 0.19163357458201835 0.13720563465044114
Ni 5.3864969153668225 1.1809257341539143 5.493593939107519 0.9825735554479658 0.9028475030712322 0.20157423073449798
Ni 3.0518245223272302 4.159064352521533 6.515850839705029 -0.07843895813419394 0.25122428966145766 1.495828738468082
Ni 2.5885595425510353 3.7901169599044837 10.544850508963517 1.0178933137951824 -2.157270223519859 0.24995287914820177
Ni 7.90172196765685 1.7745836915694817 0.6238046288912119 -0.1979407477469688 -0.6105259291488324 0.053119505532798844
Ni 3.9511199202379212 2.308815743005573 3.078708595043217 0.7642177343797548 0.22268375901960358 -0.32597911407584507
Ni 8.265203952487738 0.8030237656327371 3.2314505591408214 0.3629214956281492 -2.68744300823092 -1.2928694544605994
Ni 2.411003147467634 6.003468397365997 10.467619950512475 0.4163122525444637 1.942123653417565 0.49130567533221836
Ni 3.716495790047247 1.4986407086062739 9.516882210990824 0.6170061375565374 -0.8540567068207743 1.2568750386438614
Ni 0.5331491423806611 2.4588693923088676 3.133362672904826 1.275333502459365 1.5472286902066128 0.0653831533915003
Ni 2.6372950739098644 2.9619550927740796 13.058066954534162 1.2251576529359223 -0.7466056777249465 -0.23957539256861965
P 8.563221264360534 7.884493448696413 5.134916149445685 0.8290180186845917 -0.8414199918933704 -0.26604027162836763
P 0.5098679848482414 6.706943135594866 13.006607042238272 -1.022447508824768 1.0143508478595629 -1.6466943871041189
P 2.423755765635343 0.6192112819413199 12.626450477408692 -0.20117622396513093 1.474526634556196 0.43350213406018884
P 7.025832571618871 6.880171593548108 11.048920167784814 -1.5140784287068894 0.8601833885438026 0.6212564281924591
P 0.40528356905255425 3.4204482444324085 10.37518982482398 -0.8335711852729127 -0.1905197726925493 -0.6121277264183136
P 3.4603521946816205 8.391833104460499 10.236956622614207 0.4122316547171868 1.1588843836299847 -0.33182631688524145
P 1.3982936021974208 0.5555721106701779 7.2850575102575075 -0.0714941513852446 0.1300674809437631 0.38942494123531646
P 0.5860849922106821 2.8431772626464134 0.24555956962745176 -0.37811928641451015 2.1104380936576685 -0.2652506858475367
