# total energy = -340856.47873337986 ev
CRYSTAL
PRIMVEC
9.43284636758947 0.00000000000000 0.00000000000000

0.00000000000000 9.43284636758947 0.00000000000000

0.00000000000000 0.00000000000000 13.80592414569102

PRIMCOORD
 96 1
Ni 0.5774137583861512 2.3708987308528267 2.189716393974318 -0.09951891873294473 0.17740251858430092 -0.6255985072112388
Ni 7.322369498132081 7.297598843982527 7.197801217641534 0.08527912098447894 0.02024743739512642 1.2914818300844533
Ni 0.3441734298394948 4.820118383793903 10.420642546576449 -0.7133901102049263 0.16288247059125496 -0.27576829754940896
Ni 6.361728440024492 5.673375920637776 8.791184393584706 -1.3180104725026012 0.6199269107477581 0.4597582395432404
Ni 4.213265655668474 4.215142792064423 6.146825564511626 0.7734749913119647 0.20249957076224478 0.6262639087093795
Ni 5.307343756274 6.395705552075784 6.730332941549951 -1.6253668292709362 0.4193813783880907 -0.6970034413167867
Ni 7.33384927197062 3.8072099248322866 9.724243809371924 0.6000152594254957 -0.4836072782466961 -0.03993617407330542
Ni 3.9412695351801363 5.147202326153296 2.348125010246099 0.4123213862175157 -0.5405533566144368 -0.23748302881596517
Ni 3.3551690687184625 7.721765639543445 7.689610010095459 -0.1660593256573398 -0.2887078884292124 0.032178898725389746
Ni 8.722128413044702 8.192106217306216 5.696752400117373 1.9333783031247669 0.9994811298365819 -0.41263788901667003
Ni 2.8196286579466614 3.033046803465948 2.385373433363295 1.5096093371919421 -1.155597742458913 -1.2591633204574058
Ni 6.59325765026851 4.756210850715752 4.365654229488524 -1.2661554355045226 -1.6632507488009032 -1.0879389056593585
Ni 1.7241356304095155 8.00283615808657 2.1292461900553814 -1.1604756393765046 2.2347267631361256 -0.4581860099601141
Ni 3.9224793055282285 4.256902002239622 10.405068917482424 -0.6613674372807319 1.1395391463341535 1.5701945549741667
Ni 8.806212804167748 3.9894619464710996 5.210396736057911 0.03978576453837019 -4.1348751005631685 0.09973334873659598
Ni -0.1328984269793009 4.424099201326003 12.688844937447705 0.5981352687939635 1.8864710970502672 0.8010099635074399
Ni 2.0904790786982472 1.0006080275027365 3.826215223377801 -0.45562801942495085 -0.9349448978264091 -1.3286923776964796
Ni 7.501546411906173 0.5893944163584848 7.127956651158308 0.6148746930358313 0.2429700200724654 -0.7429171731297657
Ni 2.3424304009886407 5.580169967228888 6.3183364041702035 0.07762186154953729 0.671404766912076 0.5379326311621381
Ni 0.896633536859603 1.0324250177717555 7.69832124357113 0.6326276461438782 -0.3094780310970283 0.297762542432313
Ni 0.9143371026280273 7.380296606712586 7.408245186750557 0.305120525459281 -0.3072190598595225 0.17798564478128057
Ni 5.700221800953705 8.978796158440494 8.536520184724086 0.4105429541608542 0.01781260270138868 -0.35330556980493993
Ni 8.101371669604559 8.052500093386417 2.5839584282161034 -1.848082984190372 -2.515620554837558 2.130284438959635
Ni 1.400023034606523 3.502821410456071 6.709237324284125 1.4267159428308203 -1.5867336902797706 -0.4638588919751753
P 5.058646765926332 3.013916991350451 3.2319393091052286 0.18664152068406567 0.3207176085665896 0.9333395010125023
P 9.378984658933566 1.8133231913326031 6.010325676849042 -1.081231411732196 0.29338909595496565 -0.7607436597882253
P 0.3905669973580588 8.525142285624623 3.879961694517681 0.5860032614171198 0.8600067537566222 -0.6976565015197532
P 0.07539202333979676 4.19889943088943 3.1921091159801374 1.2634555200748563 0.7754146315368388 0.001999032707899783
P 7.764515298570778 0.19635978643168137 10.395625695140794 0.5759880432729628 2.055159375690022 -1.41765794639361
P 3.0733722210171064 7.40944410150395 12.779011627807474 3.1353546328482196 -0.6235179705331262 -1.0674986355271356
P 4.149829764900863 5.280912921191346 8.34690959975623 -0.9283579886375108 1.3277948055828745 -0.7456183741110126
P 5.782938429376186 0.15637017820562762 11.564394015328034 -1.2081009545639516 -1.7530192730153034 1.2641949693440422
Ni 8.085175472660618 2.8779425132218095 -0.05435300315123465 -0.8869855963383111 0.13196726906963724 0.870441575936701
Ni 5.119384862677655 3.417237196785508 8.818865080790289 -0.6593717470069418 -0.11257626613753516 -1.9114020559639922
Ni 5.050940130572111 1.5730591654973871 1.4583199107584919 -0.6856540777422385 1.9949382261154354 0.27923594438303523
Ni 1.2717551918321024 7.8288190111897835 13.425225736601318 -1.7140639747980289 1.374854992295471 2.283118524175952
Ni 4.599927454695263 7.9985159145220255 4.583567126227257 -0.914543965572554 -0.8471463528541862 0.41113610766016284
Ni 3.893095989581595 6.791055002462717 10.82048957803669 0.7678360478586325 0.29453915039900885 1.0320672913027193
Ni 5.856637256821144 5.603421933138504 11.842500733591725 1.5793633659576285 0.018048887081910853 -1.1987434246084516
Ni 5.604865158608756 1.4942948996372305 10.084813412495025 1.3363097850324213 1.1585372847032112 -0.6630934188329032
Ni 8.675435824301255 2.7244512396797176 11.35737416939353 -0.8965601274006237 -1.811818345431383 -0.6039284784369727
Ni 1.9046614411917524 3.403003031853415 9.315823263990689 -1.3744839821092973 0.7131558827069332 -0.6744116720591997
Ni 6.750408868140392 9.310096583056113 13.467899932858964 -2.083591148668153 -1.9843594221583247 -0.011908578512127878
Ni 8.538772748399225 7.366335994320606 0.1477164850918423 -2.282790708522888 -0.4946802482314061 0.36854192713872014
Ni 2.266543153222777 0.23733041066365798 12.077519153649117 -0.2873783709845115 0.14535500323045292 -1.1678505916843371
Ni 8.75975603657957 6.050076634065962 8.657916199033941 -0.0847679856760153 -0.3187314313744963 0.7520854698925951
Ni 5.894793119743818 6.485940158928269 2.9969482443018483 -0.46263556109103554 1.2437716684926836 0.8389548181823292
Ni 8.914105699126846 8.432370243141433 8.865847257912408 -0.9914184074331055 1.1625404923253333 0.7662260230590352
Ni 3.357555578809794 1.7655646909673368 9.671795297870647 -0.4482754357146215 1.8288920130842181 -0.5218254411876303
Ni 8.77842363923074 0.7378013857929573 13.109594212826451 1.3743582551647104 2.1864956960438797 0.009030999854016706
Ni 7.709936850395106 3.425689026990382 2.375005792093008 -1.145876144295775 -1.4750549962558404 0.42843320417771374
Ni 2.6069745729704485 0.2837635961363073 5.969433345240615 0.2555483709581083 -0.5104830195916177 0.9972003042222052
Ni 6.504966209735447 2.4803291797442855 5.46144439168131 0.14700153769494037 0.6617906408610796 0.29263499139776056
Ni 2.0742357175232544 2.342326639680322 13.554711359821551 0.38509777461487227 0.7188652743868845 -0.4044198719822519
Ni 3.6291272212186456 2.25533693192435 5.086378390501454 1.0812010727148926 -0.26010590842180364 -0.37965577766369457
Ni 3.8980953980733175 7.500291843360137 1.6902037960200358 1.2474468033514257 0.07788077163787877 0.240603833833134
P 1.6238739080349518 8.538338837473528 9.498959143319452 -0.22099017336726454 -1.3500003951456363 -0.4982764502230967
P 4.71324423622557 9.060050695700301 6.683350764427834 -0.4509797220196621 0.31665680823365466 -0.8874381104946976
P 3.9560602380386665 3.7081744724651267 -0.043450519500795225 -1.8927839266421724 -0.11980029468980012 -0.18989782283783424
P 3.96769093741658 -0.03384127906585609 2.8489487738236825 -2.0132375386452552 0.6693144600419505 0.019876170098636736
P 8.214301704440222 6.468555423361771 11.395244217076018 -0.11176791130362686 -2.063362223215788 -0.7538374195866953
P 6.263579675201147 7.227409035327985 0.9912695097540472 -0.21087802463392716 0.8143799570564426 -0.1380805810562267
P 9.039638016500136 5.517686793928568 6.527551273417959 0.7998429397825323 2.8123528562331437 0.8980714218388276
P 0.5514224939369206 6.247892851952591 1.2149043710042486 0.14556351969683318 1.3999929250136793 0.12463499707428213
Ni 1.7753937167189875 7.593827946386403 5.313112885016524 0.5759677315579886 0.1924334447754944 -1.847325022978425
Ni 9.173084491844284 0.20474652999770118 1.770112266125562 -0.28542716079541164 1.1732051711280311 1.2104509428533667
Ni 4.62414157091838 6.05334983170111 -0.08277133893050342 -0.7383182409051736 -0.6062067329481882 0.22315812755286082
Ni 2.1087882331934042 5.007133992769169 12.206493516604727 1.6859134805057414 -0.7254390709496604 0.2671224489489529
Ni 2.2816640056986848 6.231149549928426 9.331258230245416 -0.6776764588534007 -0.9064349633121744 -0.9993073232628789
Ni 6.634856502058125 7.723850298556032 10.26761725563717 0.09736253451157426 -0.9813777353676517 0.8101710611814177
Ni 8.906880138929376 3.8267076179500044 7.762905111722596 -0.9026433574802261 -1.6259754093892127 1.538099474211835
Ni 0.6792177511161801 0.9292155309563177 10.177119472375402 -0.5196808840408017 0.39358087238521894 0.48145115113564185
Ni 8.531330232738906 5.977462583935245 4.287581391255619 0.5455896334867636 2.527897058212066 -0.25825214304251654
Ni 8.64649585212653 8.452622563956014 11.868248630608717 0.3913841218442163 -1.1608654186157557 -1.0276161975099014
Ni 6.792347302393596 4.537878192320639 6.6029734818656305 0.2865633312823839 0.11096289890382825 1.6063545498344916
Ni 8.315393517281336 1.0439236573027173 4.0397786347287346 0.7156987037334448 -0.10439141633389763 0.5364539897340825
Ni 1.6393343429744485 4.575883129703941 0.8490901053879429 0.9157523840583583 -1.140683544351242 0.1282787644744565
Ni 1.0757783789565794 6.94326340892014 11.391391842683529 0.09179455350549354 0.42331079534948385 -1.8373411722928357
Ni 2.173780543585797 3.9494666785373194 4.288120006774256 -0.8932292632551778 0.7575925157537534 1.0887405756250474
Ni 4.745551734497551 1.5946226519352698 12.982386621966127 -0.038357002511643624 0.33783344231126977 -1.1034526850242417
Ni 5.978792615250968 9.232539721510939 2.3526395704425864 2.2229979047349713 -2.488249876134089 -1.001307127301727
Ni 1.6700288245443826 6.039945757235567 3.193034478193417 -0.8366464817641268 -1.210372781317264 0.17368496052339763
Ni 7.882473040436797 5.737396647870456 1.9831521545117963 0.34053284352030383 -0.5046443014226535 -1.1789204763452537
Ni 3.241682495956361 9.503026586605548 0.3199451643470622 0.30188042125542847 -0.6432660996943308 1.4530430107611234
Ni 5.726577173266672 0.608482723950654 4.449773522142551 -0.14053084236893218 0.02459054485517055 1.190020700023473
Ni 6.277502556208284 3.264406222478171 11.899712832429453 -0.2631356963870629 -0.05785367778367455 0.21302566710454926
Ni 3.6126480388883833 9.148068583693249 9.783982024424901 0.8011408326583492 -2.7047419045206835 0.9072268630858504
Ni 5.900782977087675 3.8930865567353847 0.6420268683608699 0.22692710767698981 0.019833232675843263 0.6866238978546756
P 7.415971631081821 5.129940217587538 13.573666664282147 -0.019553753762211485 -0.2159605813631571 -0.6392940024204603
P 7.368788534335414 1.1888216079467733 1.1184374826602888 -0.4763637093104054 1.604689760537559 1.7986617534447666
P 6.6421292264866505 2.2548747224600207 8.18626445564787 2.0740649543452734 -0.2692875749210717 -1.1953534250902962
P 1.094455414453958 0.5148853074240186 0.41529614698428474 3.7083393705184844 0.5085436364770597 -1.4860366920783248
P 3.5632859546672813 1.7792140194343604 7.313660151225651 -0.7430840377249331 1.1563413054931568 0.34788388456873637
P 3.545306949789502 5.9940738261124595 4.328557675195322 0.14481584289753124 -0.26063555567302854 1.0831090883708832
P 1.3627066949966093 2.809290258499627 11.394208490562072 0.8330752194731008 0.022800028613651057 -0.2376684053538939
P 6.759407803425492 7.994393760727906 5.166024627482321 -1.3608892741439982 -0.1535426812475678 -1.09166520547101
