# total energy = -340854.00970016536 ev
CRYSTAL
PRIMVEC
9.41230431923091 0.00000000000000 0.00000000000000
0.00000000000000 9.41230431923091 0.00000000000000
0.00000000000000 0.00000000000000 13.77585878149559
PRIMCOORD
 96 1
Ni 6.779193189549247 7.726776902878364 10.996440977825714 1.0425645912896173 0.515120518363629 -0.14448777013415115
Ni 9.224048586827138 2.385416697007979 9.736680316280895 -0.7535227165597539 1.1600190114550604 0.015112430161406232
Ni 9.302443667515671 8.238345041970998 0.42283175991058314 0.10195246787510183 -1.9324730177016785 0.5515170547147921
Ni 7.191762714320593 8.717130125950392 3.927483418537839 1.2063230367279225 0.08494282069098273 -1.2462283575632924
Ni 7.891247504385322 2.6959568455440364 12.898060538931299 2.2233028375699 -0.9209660670488139 1.9306413638095783
Ni 6.122656743004962 1.330796261672616 2.9833690804928845 -0.9849070886771489 -0.3720314283492173 -0.0012837518084300472
Ni 5.825896207643116 6.380497400992921 7.25717728645137 -0.4926259368055386 -0.48535614261700283 -0.8259581488123453
Ni 5.403970852615508 8.329362022431813 2.3515116952483153 -0.4873502902288961 1.7782862751122084 -1.4518590177553512
Ni 7.733120795828787 6.449188396174206 4.320274868744312 0.6313714051392739 2.305895155750835 0.07682122002511287
Ni 5.919228614907795 1.7934768933698542 6.786772918025472 2.3842790922773776 0.1627333466079004 -0.9388941122821444
Ni 0.9129181973997297 4.118127755232536 0.42472175056999695 -0.8361340609040826 -0.5222363034728039 0.4925138367077067
Ni 6.8571553042500675 4.9968228149946725 0.2491079222618435 0.36678509234861345 1.052935650111296 -0.1703579530326937
Ni 3.5999992401956225 7.663620342496557 9.168839776011113 -1.6734647132194278 2.3194052744221283 -2.6359569245364862
Ni 3.0021390972907085 6.790422068317577 3.615914505165756 -0.7602217258464843 0.8049458082267363 0.6701225577655426
Ni 7.838209170890318 0.013648782147489978 12.805679715609184 -0.5445573355675073 -0.024633739388280156 -2.393530435672316
Ni 4.2324684252054405 2.8301763017354764 2.561041820081029 -0.9053818394573117 -0.28358805070414383 0.5213942671874827
Ni 5.7941861551950815 1.855296906572195 13.03287108781901 -0.4513759290168161 0.018706575270567783 0.08773606716540373
Ni 3.4441597215307085 3.365388148678944 7.161159548832454 -0.41335445546772037 1.3508635144768801 -2.746652685821857
Ni 9.35716680344113 7.892744060734161 11.429196129928625 -0.18842098118199163 0.07536443297392828 0.39238736629775
Ni 7.32708341008948 0.3929260461548284 9.446987480053284 1.6212587206398335 -3.206674463439129 -2.5343091323859968
Ni 4.281864197021196 1.1392746982375936 11.265607461314033 0.7231240496632384 -0.44217575057478686 0.16963778703721752
Ni 4.147202362537961 5.998913181255392 10.35093198674243 0.287387369845576 -0.9767340659480533 1.9753520764533914
Ni 2.1743175410850046 0.08597575039516756 1.2790474138366739 1.5501785168635562 -0.28058088844670387 -0.670119215331433
Ni 0.28022594078319835 1.050093117072524 11.645339339608473 -2.1879689381552967 -1.850292333136865 -0.2852641528549862
P 5.611954535887756 5.805970359904176 2.503927958919062 0.306354140756066 0.3080893782796178 -2.113242138765367
P 2.095960109612793 0.454013782099687 12.494193630513012 0.38375720142657777 -0.3894028297481294 -0.18792578671312798
P 6.706803158864228 4.995288609429512 5.578079653501151 -1.9422578650025841 1.0709572834996974 1.97352582187793
P 0.3553069492049022 4.565645165055693 11.195254253232088 1.3709011498540453 -1.6528598924848825 -0.33150210077660325
P 1.2920363934681036 6.517879391355492 0.9759119249209395 -0.7123827519863345 -0.39278485884648484 0.5687246768423302
P 3.809912445804423 5.281290881227063 8.331102357456343 0.6405790397804709 0.18698322029420056 -0.9630187732444898
P 7.46207467521554 7.20839425563127 9.086928258518013 1.2390143563133567 0.13491863838847734 -2.452965341900182
P 3.1984891727191536 2.348002788287013 8.814400641242456 -0.6091398474345833 -1.6401252185270334 3.3179422951778856
Ni 0.016052684609712542 0.12868972754400163 4.628220045045309 0.5263960912774482 0.9357506815571562 1.546329575431111
Ni 1.6330253457053747 6.362331654117081 10.49156969308653 -0.1199861854483611 1.7344641357209356 0.760549027278916
Ni 5.307334726618488 7.171347426769454 4.161053509223187 -0.25143871966510895 -1.5683847554589376 2.5648245273660346
Ni 2.070744546980474 4.397673186430696 9.58761200917167 0.41967165593499983 -1.8607315261923179 -1.293653126704159
Ni 2.0437782957891364 7.664307440694452 13.242223320104598 -0.11878753715456962 1.3997638397220087 -1.5978848218005837
Ni 9.273811438502042 7.7093170788085805 7.6749574627618165 -1.0411594834119746 1.6550851822709753 -0.25033391663670435
Ni 1.1728577991976958 4.900704365722093 6.438753915870291 2.5794728734068286 -5.215644227946966 1.2874431412387053
Ni 0.9392491180656171 1.33513533385384 2.8531319701580085 -0.6580746254620731 1.204078720778436 -1.5868149371396671
Ni 6.350867467746732 3.3751110587943547 1.6731471743103712 0.7677717702796003 -0.5332689071378816 0.7519767122288726
Ni 4.319522825648262 0.34426066913573855 6.782309603430382 -1.0996461667939577 -0.5925863139512763 2.2555794382154186
Ni 0.7483610026952289 3.388316521419642 3.8193426332629223 -2.334907998043417 -0.4353273601943857 -0.5771278133043608
Ni 5.642337453460405 8.719972641782778 12.848095322718658 -1.612871782127719 -0.5083708583446211 0.7445284834809436
Ni 8.632278204662466 5.595925382038246 6.537154848882452 -3.4576750671255545 0.6178443171871166 -0.7298372000173559
Ni 8.457416419450364 2.6829019797840417 5.474581016598858 -2.5807116309099363 1.0195786719174051 0.7046038793718639
Ni 0.16614693286373897 1.0290848543642985 0.1897002825953981 0.4317170171353081 2.3422040174841987 1.1602997759202727
Ni 6.934298548495862 2.7387451798951084 9.015417337034135 -0.22363069631390517 -0.26548928422090406 -0.9272989512453771
Ni 5.986018324664769 5.474666668565993 11.925512571488818 -0.9537268064196027 -0.3585408500619503 -0.6610051688453068
Ni 4.816257173509639 4.764103596598225 4.237454122677011 1.4282472918736822 -1.0185119212157878 -0.9961764909433812
Ni 6.460633757936393 5.314102173252544 9.363588818515423 -1.589087792334244 -0.9378111636306108 -0.6273679404068356
Ni 4.543996865669976 3.84053067097909 10.032241724102853 0.44808620252195086 -2.538098938445732 0.0735669747538733
Ni 2.7490234159512834 0.9473578180311799 5.356825562705459 -2.3170802258333776 0.7092953713102623 -1.0580539451744682
Ni 1.3083949779604402 6.804004023106093 5.790200044416887 0.0777280481100984 4.014779900340769 -2.045754280326038
Ni 3.4007219381980653 2.07485772386376 13.336794386586304 -0.9378368746622237 0.21713300440470348 1.0754178903742122
Ni 4.026649571871764 4.683204843024211 1.1364161814882712 1.1170715613592568 0.36221469936911166 -1.0029274365139695
P 4.190828391952219 7.748604036041615 6.240009350283704 0.3292639554747039 0.1733453177957918 -0.03176675088863562
P 2.2590565147239623 9.30293310732787 3.5429164396371213 0.5782182181550622 -2.4381588730149684 0.31155111157597315
P 2.3055438845787672 2.6136085971415883 1.5456509269238083 -0.5032247953673075 0.5210528246876639 0.21156990849462917
P 6.986301528541985 1.425982892841202 10.971286595169918 -1.1491537866057822 2.232606374359013 4.6213982669050795
P 7.736349216128484 8.948239840349034 5.875610115336801 -0.24624483416899526 -0.4142728535169317 1.5342320208366287
P 4.745523708342832 8.074128572674221 10.875737590294223 -1.416169791883858 1.1347725781834457 1.25400080241986
P 0.715376524274662 1.990071688704399 6.044351079205193 4.802203640523342 -2.185734906618455 1.3277289853419456
P 8.555398504930931 0.0910461586034655 2.3857724821022317 1.361784789375074 -0.7293561466158794 0.3770016278702991
Ni 0.08582138860824332 5.7125814788150135 8.607858922955378 0.497439299033782 -1.5757617646492992 1.4361840302222555
Ni 0.4519779007270216 7.725393294178494 3.2862862039539458 0.5031921423571591 -1.0234425257481858 -1.0918007026076102
Ni 7.520958049544689 7.547020719544275 1.8353851772893763 -0.18728018270932908 -1.2865113734530553 -0.2905570258228093
Ni 2.4467660950062826 0.5853446021687461 9.999482199749817 0.0228067134818704 -0.7491456705379809 0.4132667808499205
Ni 1.7250965042232336 2.5579536431121364 11.223219149886393 1.8025778006697213 0.7705380201708278 -0.7735860629685323
Ni 7.13193810958337 3.5625570945624143 11.123302835917233 -0.7957998800614101 1.4187763762687695 -1.1090330073254964
Ni 8.524940288925636 5.235641206435445 2.050963648724378 1.2642119386249067 0.14733243867179788 -0.7576886750119853
Ni 5.275737621819423 9.398562116788252 4.804040944043239 -0.9314507686302216 0.7696872421347584 0.09533907632364226
Ni 7.021795327230478 0.51538294593656 1.080997476291246 -1.1193516156426853 0.4022274923166234 -0.7847654766241194
Ni 8.172571861054744 5.6936062737882285 10.680960310877671 0.6450229344844375 1.5719853283260026 1.3599626485646708
Ni 2.0249066261072404 8.829701282756117 7.1731442356184685 0.5935347939074745 -0.8155320683830148 -0.5158941633048599
Ni 2.5210009372911273 4.139399562455022 4.5749351091833885 2.1482168550683394 -0.17798538767096445 0.47982261439328333
Ni 4.4435675811284145 2.5262906521845063 4.9759500894652104 0.10183136891620526 -0.005717619210067572 -0.027369393151888348
Ni 7.7069451781802325 4.307249181126968 3.9461771956726093 -0.3652334315907774 -2.7303403218150786 -1.3003495648877281
Ni 5.0811382349499965 1.1809147314908146 8.875937344091966 -1.0910995627755273 0.8219629116100231 1.2809271944970584
Ni 5.7796723823025715 8.444323904474047 8.324544805203287 -0.15080651326332736 -0.007743905611476986 -0.019770497758707886
Ni 2.0260737518132528 5.062501872870119 2.303998384248709 -0.37566208312326915 -0.5415635430465061 0.9726239004344218
Ni 2.161921536610662 4.4261924677953575 12.340565062076664 1.476330006313522 1.778137922459802 0.15017222211343814
Ni 1.2112035260226557 1.4191589723826608 8.239699472528217 0.6526197729950889 0.43264801359000976 -1.534206566915332
Ni 8.381957977635022 0.8205599636074081 7.437062418351366 0.12915988152782917 0.7163905875941469 -1.0454334281969802
Ni 5.783889094530746 3.9498545828769567 7.3721231675766665 -0.08220279605200037 1.4841525876817343 -0.41938472082220035
Ni 3.923133051591718 6.586052709812336 12.70256792440461 0.582018822848075 -0.5767735152887357 -0.1622692624872883
Ni 3.5598463509871596 5.764217379001987 5.747136870786657 -0.08213903269360047 0.9031681196354446 2.7556037243675577
Ni 3.6496020827011546 7.208733098578177 1.3490523666676313 -0.6536068194987066 -0.22294086933573218 -0.8068617943025266
P 8.511038315798375 2.9322809764034106 1.1766264857516266 -0.3370271443598905 1.1109968159200865 0.16071503062629094
P 1.427422975365556 8.265960742143907 9.166194918564424 -0.7006721484176256 -0.8708447249123905 0.6868236725703075
P 6.562088983622756 2.547449511758024 4.577855747139644 -1.3707278575009747 -0.591152409718227 0.19940550521795336
P 8.5368374412837 3.6493950120113783 7.8711399991776245 0.12499957950255247 0.4302836271228912 -0.10167196052020555
P 0.3627709063409339 5.5204198787025 4.090700301141242 0.5191044427120416 0.6540863302382863 0.1830347771694138
P 7.5788813688576 6.805265271852914 12.791214886697894 0.8033355263168229 0.6753066730696434 0.8436897617641534
P 4.296312083785141 4.029849755259218 12.700804058619878 1.3055557916790161 0.7808872246156358 -0.272747251334898
P 4.459389664288149 0.2669498858773059 0.7329596495279038 0.6788157146641665 -0.32404564449855805 0.16934570971809546
