# total energy = -381168.75910697 ev
CRYSTAL
PRIMVEC
9.24251894556437 0.00000000000000 0.00000000000000
0.00000000000000 9.24251894556437 0.00000000000000
0.00000000000000 0.00000000000000 13.52736072496438
PRIMCOORD
 96 1
Ni 5.157519784727844 7.763984128276796 4.29118981196002 2.8808660706131937 1.0304883768513737 -0.5130713491440841
Ni 2.6132760801705928 0.8305050442479582 7.8323824670756945 0.8105466993532814 -0.9732049697488723 -0.05857178689662171
Ni 3.4571273220870022 7.9942614931725515 10.96349286528604 0.168496988564555 0.328964164846098 -0.3388071190784488
Ni 5.57018902274633 1.968102030138556 10.728604407580873 -1.6092516688766285 -0.9350616259099316 -1.5431429501730134
Ni 7.712041170592102 4.312162012188195 2.828043573662311 1.658823309157169 0.9625428620493357 -1.9099570959873493
Ni 5.08297886769456 2.7771274598564024 3.127309874331351 -1.0774655169318603 0.5387597550491238 -2.9767476497038667
Ni 1.9231556594587222 3.031019461208455 0.21021093154535692 -1.3476835740870015 -0.7925461490108029 -0.40090028886476764
Ni 4.411759398666889 9.431805953394354 2.6368343372600083 -1.5878652327810525 -0.5848946017339733 0.8115139483625572
Ni 9.05290888039008 9.468960880421482 3.0267337050735095 0.4056951391502497 -1.0932137809050528 0.3991285416763255
Ni 0.8747166346544942 1.6314802397765933 9.289468385559552 -0.5936471511156227 -2.914958384311212 -0.42589629668847295
Ni 1.9937500208102685 8.585339078555387 3.3479408219787943 1.2096302467242843 0.094246871700728 2.2238574245217895
Ni 3.0197713153895456 4.960931402173852 13.254067313203016 -1.2122833680764156 1.2013536085377892 -1.2405868430067988
Ni 6.694033140125393 3.291353498415709 4.468046340357242 1.3749012721523741 -1.0887662866566603 1.6995678380643826
Ni 8.450527694073369 6.994017584533241 8.925069128111186 0.027021008673534106 0.7093269958791462 -0.8092194959014257
Ni 7.961755553283394 2.0019573778252164 10.661088729361849 0.08024232989151987 0.44223025796180615 -0.5598638840175907
Ni 9.182368846277893 6.848198359730498 2.611510759010846 0.06481519670317225 1.4079471468637494 -2.188340462562102
Ni 4.652896723576792 5.805725381044681 11.874885664475126 -1.244857959578327 0.8085224698344011 -3.1305896073594086
Ni 7.240256780020004 4.26285317246438 11.758293133763225 1.5899326568330423 -0.055291059262820914 0.9486424499181598
Ni 8.258542086061544 1.8584857528893624 5.605724660416457 0.5045216598018601 -0.18374028787687066 -0.0808136290139576
Ni 6.91657451648341 1.6463052405108012 8.286347280705428 0.2047048059436797 1.333375899215078 1.1495479367204073
Ni 1.3951120547537537 3.024041359241917 10.84822663607374 0.12671167709765274 1.8914963181790005 1.8102617995775403
Ni 1.1448061508361602 5.551648529309409 3.873356778486297 1.1635355092487512 -0.4873279216313929 0.6570477268594554
Ni 5.114163127343699 3.7670936871887055 12.321410250180271 -0.6112972600972182 -1.46834004612951 0.29688476781304995
Ni 0.39648466271569816 4.553733735498665 7.7528552109550635 -0.6706946282189289 2.8129727492053296 -1.8250145324066829
P 3.2644023125422987 8.18683862241068 8.581947074023308 1.247298964919652 -1.026447888233413 1.314173358144698
Ni 6.325589356292185 5.859156384314293 -0.1810498593405567 -0.35894065660353025 -0.12191554126059004 1.0336778303229488
P 3.409038494892436 9.448997039033772 5.222441087818383 1.2413751432360494 -1.0814286153446666 -0.6631767225753288
Ni 6.142938692632947 1.724515437650993 12.749009853651401 1.7371342263539309 -0.7119631479504126 2.8854441769021792
P 8.208955970762899 5.544919975360218 0.5659268422419832 2.1587455225138044 0.6753982043421851 0.4039748140250333
P 2.4692868741617238 3.6281046840459257 2.169031623942459 0.2810246608523418 -0.06702814519409102 0.43949434708788176
P 6.252702850188716 2.8553931121115603 1.1986558402237637 -0.13557118437081167 -0.992545321948697 0.45320501180575495
Ni 0.02004332705249588 2.5775907136900584 2.7704441942510996 1.4532178457760907 0.020075430593636392 -0.05953646480273618
Ni 3.368528533409872 1.9299581535612016 12.276905671916333 1.250308955390569 0.02493378712720222 -0.3447875050315998
Ni 6.2551428752472145 7.639357999910175 11.66660457093058 -1.1703340202278232 -0.402666636736571 -0.872933232010303
Ni 1.407386120199532 7.008639249845907 13.033328228081391 -0.07748507886135687 -0.015918471002469358 0.17961623840616808
Ni 7.410393072735279 9.074693498052502 4.8839587783493155 -0.3943612021946692 -0.21797272669717946 -0.09162306092463575
Ni 6.824130839835313 6.97065249609429 6.166109688169517 0.9251811335714261 0.2627556873398249 0.26994397755814803
Ni 3.7088658164745474 3.9643013185264837 10.380139253166034 -0.9139011897822326 -0.15329277002029085 0.9028557306013484
Ni 4.420881765078774 7.296497509114552 -0.05254464568207338 -0.33923469353417063 1.0665298438559634 1.774276125511551
Ni 3.3015849671269115 6.95421005450691 4.671742220146026 -2.938538228513681 -1.6762268493455972 -0.9107161071860316
Ni 7.383719162436697 8.870258216730841 7.572129764037056 1.1258559924201064 0.10764437605355655 -0.23216264504431627
Ni 0.9790045996073843 3.442570354408463 4.852859549876458 -0.6951717874246867 -2.194672832538033 -0.6330827314034257
Ni -0.21596255121923325 4.79138663068488 10.178500758142482 0.2592877833958825 -0.4628615610589125 -1.140065708261585
Ni 5.577518340440985 4.927039084410548 5.496166611037977 -0.7667459001182473 0.5513136804547344 1.3273672311271525
Ni 2.723409938492801 9.06860267792542 13.33670652552515 0.7153269222163229 -0.30371593180227047 -0.4111013977674856
Ni 6.162948746616463 5.501249072324599 8.073250834678014 0.2445594760467724 -0.9150227049811854 -2.0255847473566986
Ni 1.3953153901752953 0.7584291070749071 5.172781956618366 -1.4760587549300062 0.2769911142129165 0.30872958296677794
Ni 4.042326665283456 1.8860561875465582 1.033283141884057 0.26444773033026714 0.03341894178007793 -0.11494708036255687
Ni 1.4357144414279281 0.7435957880734543 11.45918950143142 -0.530952343189563 -0.6379724553955594 0.9174480265932264
Ni 8.443410954319416 6.461214082460369 11.741059532535667 -0.681850130615116 0.6973055459382378 0.3204149897245062
Ni 2.7090470637166417 1.9245050672562247 3.5634042771633347 0.0720857622226565 0.17879014296044693 -0.23448743652275103
Ni 7.196428754158649 1.466972641230354 2.7545091669656583 -1.514405987249637 0.41264868764994744 -0.15980614565877638
Ni 5.863879311605552 7.786924060834343 8.661514997228247 -0.4336291465563564 -2.4780418252528356 0.671766778237185
Ni 1.7343125079616293 1.0516692852509897 1.4679486512537534 -0.6831053431784557 -0.35416174715764814 1.0576142865338882
Ni 7.43658637203749 3.6856670933804936 6.8603060598313785 0.39204952334235704 0.5132911784643741 0.5544236868386259
Ni 5.358276543423437 9.364797689477268 6.593966233673322 -1.1223641772167638 -0.9904143916486232 0.04093504765146498
P 9.570443740809015 6.646277043620622 6.883018626417566 0.10812722922724605 -0.33665484862213635 0.4209466659926815
Ni 2.1409648660063185 4.843782471808462 6.028292636456349 1.697227362856664 1.4514188448941392 1.4172126313260753
P 1.6482738970920894 7.965591198735199 1.5246552033140148 -0.43188413884079163 -0.8660118223001214 -2.7222228349142665
Ni 2.4358566823564676 7.594919967784196 6.71453582038019 -1.8921663476628319 0.6031514910616322 -0.07359859932275711
P 5.706959821290476 7.0511733230247255 1.9014191028959353 -0.017302752944505683 0.5327423452104503 0.013626332534182984
P -0.08109478737033297 2.0102386749934524 12.437975977586603 0.5663988569226309 0.5755527555077572 0.5121382958068535
P 4.846795533054941 0.02786711952226336 12.336452450114763 -0.48529366481018354 0.030333875096850982 0.30084606645364315
Ni 2.9560164182171227 5.853093291744692 2.2421464202692043 1.8178306130637338 1.293906894586178 0.024794947556492784
Ni 1.5404229410026427 6.397366760096336 9.00665192049322 1.5982555748764409 -1.5895184521137593 -1.7804709414683528
Ni 0.5078662611246384 4.613061465992979 12.572559071845346 0.34619929777746183 0.42652364585982677 -0.7764602991925337
Ni 4.953297081346884 0.42034145317401334 9.174878708749835 -1.0453146432309286 -0.3893490936920585 -0.07971988172914658
Ni 4.543733329766487 2.5845133605416306 8.486904400987143 -0.2587522226073867 0.4051595783617538 0.7528609146060389
Ni 5.636809100858656 5.190866793860652 3.1651727783262116 -1.0208937911844032 1.4270147050181616 -0.786762195339174
Ni 7.996821670980142 -0.27168754774459897 11.961920618910218 1.6252652706960655 1.854356990124542 -0.7016681937823077
Ni 0.2629173213127474 8.987268509308816 7.011772463841479 0.9880039824349178 -0.058831468315911586 0.3760683174227523
Ni 4.539047372551871 6.851470211513485 6.593154740490988 0.8844846842933283 -0.6228859933760821 1.281573826942122
Ni 6.060005568201495 3.9163511291193323 9.91437913658306 -0.1561837184148407 1.1707615946835448 -1.6866986954111984
Ni 4.709673518782678 4.294573498224855 0.9772845667915263 0.2553357407266699 0.6275815990795386 1.9282042151229957
Ni 1.0491460775200427 5.161346187660489 1.331982876128529 -1.4135678354846364 -0.7592269660333828 -0.18840735433523684
Ni 3.114507136789565 1.5833082299095782 10.030497526062003 0.17509161106293716 -0.13908948193671528 0.13651092257626166
Ni 8.19365960155148 3.387300089825817 0.4234589548870111 0.04932018639136667 -0.5917206235168712 0.35481120781618897
Ni 3.5700154511191817 4.246863614315889 4.00243502833276 -1.1155468971846143 0.5331969162493656 1.043581719700222
Ni 5.572795413149726 2.406715019441906 6.5558186600883035 1.0525240164951744 0.8771048468894893 -2.043657802808325
Ni 8.382733816027597 4.963796583113755 5.094539410661111 0.14922091394376236 0.44527213011192346 0.7557467207942662
Ni 5.377038857320221 1.1614888979217246 4.451732369786201 0.28792730150944607 -1.559587725992598 1.8835516094106273
Ni 0.9976652457933979 7.898379599396571 10.462575130066623 -0.9848420397671684 1.6301863621467667 1.540123189510083
Ni 5.90442624316476 -0.041138452785511 1.07657879864174 0.7956060188830492 -0.1793033351514396 -1.2846164704231877
Ni 1.0236459671549059 2.2182323261920907 7.111050059157202 -1.606271246092066 1.1125523333326646 -2.1784000635199385
Ni 2.3304549938446804 3.698828440665726 8.364900375306492 2.020794010836274 -0.2324853184910577 0.8260926175076805
Ni 4.232260434041544 6.026048552804064 9.318377136991256 -0.9661107819062523 0.6289465977478652 -0.2082110193247253
Ni 0.03610497685044264 7.555971992039836 4.993990968960752 0.8689891597608906 0.30633434326172404 -0.10345399212129279
Ni 8.602724257097185 0.9383837278948879 0.7203748829334142 -0.2556463299885533 -0.3951577299540356 0.1551082259624748
P 8.728459487763123 2.9909808682031005 8.583583924166717 -2.3292032343491567 -0.43902460654031494 0.6771460402712274
Ni 3.314404341203187 2.2583910719465385 6.124891749719222 -0.8223372642303063 1.0590918995206793 -0.8749242942984028
P 6.900076619781066 5.980621571127859 9.967094768869613 -0.38319567249615294 0.09895790402315215 2.1304896129919046
Ni 7.409219272801835 6.74770444889319 3.8793764312158414 -2.0950497841270566 0.04458035771353613 -0.41537277144932977
P 4.207398057498515 4.274877689892811 7.191240003901676 -0.2158518236994347 0.9554551019646191 -0.47780301286009325
P 8.514328803841595 9.274775552849345 9.758002182142734 -0.05660540719887026 -0.9344818421470615 -0.5662435622916894
P 2.134744650610981 6.07981228676347 11.105692719585344 0.43366591333156285 -1.3145284274912716 0.6914935672421509
Ni 7.750314442437711 7.773023312016232 0.4183570843101515 0.381104337184763 -0.684035568302209 0.7694854105365974
