# total energy = -340869.54300870735 ev
CRYSTAL
PRIMVEC
9.24482166446177 0.00000000000000 0.00000000000000
0.00000000000000 9.24482166446177 0.00000000000000
0.00000000000000 0.00000000000000 13.53073098683459
PRIMCOORD
 96 1
Ni 4.605575985351888 8.77193049596464 10.567419996522283 2.3419098832825473 1.0713820297419419 -0.3778634616499621
Ni 6.071000393378087 4.98624076000688 5.111192844419145 -0.37761277909173674 0.12491293332601712 0.2768489322080974
Ni 6.601801070995899 6.943905694711364 12.706289906177712 -1.1409720221259383 -1.431933482476018 2.01212682207958
Ni 3.882778852516598 6.644336495228162 10.968686856137413 0.6089786392663705 -1.681731324103594 -0.024303866852687178
Ni 4.021978131513592 3.6759444586134467 4.425901952859727 -1.131543786833503 0.8616802848043031 -0.219739331679299
Ni 2.6066976359055167 3.9992728496369483 7.01016333119748 0.8399755461373598 -1.0619751346057453 0.481241606227997
Ni 8.139815818311757 1.4057583293487335 11.109772078743054 -0.6502846971040092 -0.37930842162660483 0.5745495110542234
Ni 7.111597513913495 8.451569692678273 11.138754594493575 0.32107447768537606 0.882986502481247 -0.7779641374315699
Ni 1.8042008959617 6.933606963436698 11.988416565332447 -0.37656865409793855 -0.9564136092231463 0.3870415286048044
Ni 0.46294091354650746 3.9701886408487077 1.616530092776014 0.52557179560394 -1.4382437409647617 -0.26989666925998035
Ni 7.820675331478044 -0.21985017824929334 3.707055132298821 0.11100120834093141 2.8490137019892874 -1.9569262656480362
Ni 4.4687618703305345 3.797708004052074 1.629587478819406 -1.431840151431263 -1.1323907082148303 1.438046280241975
Ni 3.61013981838627 8.231071452434048 12.624821764695 1.2515469415627285 0.10192007197526963 2.6722714426968044
Ni 1.188283145771309 4.80346139193558 13.107625177472764 -0.7675946212717878 0.25540233229854725 -0.8317688419568515
Ni 4.0554074064590075 2.2661923663287564 10.967334338735723 0.11706027005081776 -0.28653942002298394 0.062346937668337786
Ni 6.703947104975961 8.657257728701659 8.80916863741379 -1.0453182427753545 1.1973840823670798 -2.0660752512715774
Ni 2.7373269652691032 4.36814123191629 10.98796785608934 -0.5279485233662327 -0.1647282655507421 -0.4766753270135532
Ni 3.1307311041040684 1.1118931847995244 8.828287852987524 0.016198207026417263 -1.8099308986006828 -0.09430909239723112
Ni -0.2735607428449455 7.357075262150671 13.110398623956067 -0.007324301575555128 0.37311643388328 2.064711023934199
Ni 2.9678650817828864 3.2493051860868967 13.321207366669793 0.23911516510274947 -0.983719753237267 -0.14319450524402436
Ni 0.8937690147450068 0.12237740159359804 3.715024168527513 1.9951881373427125 0.2942252187030158 1.0088438019984045
Ni 1.1286170670938434 1.5708246192133364 10.410490074157531 2.068716545549166 -0.0993836787066611 -0.6974482421636892
Ni 7.065410385144883 0.5116065789890308 5.9594477534088215 -1.2257430931257471 -2.362295646027751 0.3472863601940535
Ni 8.307498392692276 2.322326923150816 5.598339474389762 -0.4217259673608672 1.63494393143641 0.15062525049045672
P 7.265865852136436 3.986330099381533 6.793184594540567 -0.670347015071523 1.1165018048987159 1.1325650290091658
P 0.21265308462512122 8.259000058520911 11.302747560569138 -0.08266919416545762 0.8169220067520061 -1.6737827586804788
P 9.112417275898178 1.451908478830901 0.939469865896879 -0.7550363249908028 -0.9807115625385626 0.9232535775314099
P 0.3107526601860431 6.052140957291624 7.723368037129186 -0.2895537813692755 0.1967367001365386 2.2545075453074785
P 3.42397684560534 7.946931860219621 9.097238203295058 -0.7081473737487481 -0.4323788190890231 -1.225425304775012
P 6.693934963171236 6.327766068802309 10.670672635649183 -0.9618052125523631 -1.2108885446114177 -1.5394994398831552
P 5.780786953365227 7.866686808636046 6.553041108372943 3.1149503581602542 -0.8288472974346822 1.0427725935353653
P 3.0760110049884943 3.162847614380721 9.013090912509474 0.3133614253118345 1.6519499790761034 0.5408570038977847
Ni 7.464980819994392 0.09853962906960599 -0.23096152934356756 2.1666501220728622 -0.4442580870251123 2.1950692966455034
Ni 2.723811036073805 7.371903956014733 4.016489480923134 -1.5457140533342992 -0.8697388934427214 0.422217305174989
Ni 7.221536932511637 6.257246569553517 7.672344017693693 -0.6561218726110765 0.16421353069785266 -2.363359568515891
Ni 4.637729474914985 0.42909562162859594 6.791006514569013 0.2230956497460416 1.0227719820437224 1.2438166627980063
Ni 3.948805368462439 7.037250658517744 7.103660834560441 -2.3142275868759303 0.4573141488781221 -2.7496547058729743
Ni 6.801951458874289 3.21395298824639 11.303153408237861 -1.2865198580934876 0.6697448627111499 -0.43910071119388894
Ni 8.43965311762168 5.542547900449471 11.826968698646393 -1.485348150651732 -1.4725021479269993 0.03187319455951285
Ni 2.2968666844340913 0.28603662960900494 6.0722401239561234 -0.3442030932830395 -0.8935239116774611 0.05336761698786293
Ni 0.5323676748808784 6.026948818401619 2.5945721278805145 -0.33785066870245045 1.6272630178523848 0.9811234532650007
Ni 1.1825051322644269 1.9452768737457289 7.665442758361073 1.1797098050157684 -1.002798367135273 -0.5912655382573236
Ni 7.658474936312854 4.443856320910471 3.007163893969133 0.030152098103348072 0.11840829943827993 0.7895017057575242
Ni 4.666434646017175 8.285689858511901 4.8703596945593395 -0.6031250086990709 0.5768390784193484 -1.0454982199966447
Ni 5.502915350203067 8.407758483063692 2.6780972421716776 -0.2463152823956145 0.2894442523746047 -1.3744153336548908
Ni 7.4566327460796495 2.0174881753493366 7.893151959461887 0.4219974758546991 0.48087573824814595 0.2183221396167982
Ni 4.995596519477224 1.804025244351091 3.1237993368601327 -0.9746044211995604 -0.6320139238192792 1.3906564781041018
Ni 6.905021975015451 7.307060777235101 4.443627049334518 -1.7278096065188953 -2.331084253421953 1.1121041900516526
Ni 5.226116146347784 2.4253697048271454 8.443771685649384 -0.5198606041517756 -0.019982356659197842 0.6375428240573084
Ni 4.272688448782601 1.2377244517469963 0.9028215440665088 0.612932481707796 -0.6729011489519443 -0.9836924995437575
Ni 1.1987297941917514 2.214153265480375 5.053295300115866 3.181619063132398 0.6814667791337683 0.45620960296003366
Ni 8.325211470898973 5.688015168498731 5.4497862848867475 1.2366903361658703 0.17922954449071068 0.2579374400155751
Ni 7.944269351595651 4.765622337081712 9.197527877095629 -1.7119824096786516 0.17845924198358942 0.8376422700184928
Ni 0.640577387355602 2.02739862411634 12.47665963114613 3.1049739636738334 -0.42819666268687545 1.9122060399225262
Ni 2.3945844488624783 8.98131646063243 10.826587476601045 -1.9483940598073088 0.09464822090420474 0.19070360656858124
Ni 5.749058725596237 0.9121911707692685 12.227126179668202 -1.4423099406143354 1.716587512550831 0.17211915869817454
P 8.386088621207481 5.384720305906291 0.6242048082825014 0.27292440034271065 0.4345210622430065 0.03050331079517973
P 0.0722741663905624 4.032618921187866 4.467495329769826 0.3956516388713186 0.7073649870567689 -0.2687455863746726
P 3.152114376490337 5.628201172675489 13.304997496457045 0.5654102677571166 0.6588181884963169 0.4538215623438313
P 3.3694046636355415 9.104078446805046 2.9230979576137264 0.2722446006668666 0.12740150407582573 -0.40541591734693405
P 5.464928378203423 2.907311500230764 -0.21798642221251352 0.9130301000311889 -0.5213708701487151 0.42226487058347273
P 2.770700771284853 5.43051915216724 5.545745684244721 0.9891730630423545 1.6853393531698266 -0.989527875278612
P 5.616672880126559 5.474200934279267 3.1073324606066 -0.4560134277888276 0.33031168001292793 -1.3791415354859666
P 5.443387943849767 8.519103114546708 0.25717891895023387 0.6473626383612077 -0.10713144097288002 1.3978265134899799
Ni 0.7096315823790493 5.678067740445283 10.1381838536052 2.067166941673859 0.030994391498985332 -1.5893045363307403
Ni 2.8864459378547114 5.474182444636044 2.462011555282388 0.22162189341399252 -0.6553217453072844 0.0041358765452444895
Ni 1.9741484516369168 0.9500533376771644 1.6166521244212793 -0.242287392183144 0.917057218912711 -0.3791546696575599
Ni 0.12076510470463771 3.086087860544496 9.182712125981823 -0.5839456075571426 0.5326976080154439 1.3131850260894997
Ni 5.786074991326726 2.675562312085938 5.971409628091309 -0.910767015028625 -0.7051517814555339 -0.4698215373165134
Ni 0.26774297660513624 4.041614132615379 7.044395981140894 -1.0520319073501043 0.40965463801863 -1.051201955249641
Ni 2.411705858486071 7.5864762656063 1.1914485726909192 0.04687172485087412 -0.2029726537439214 0.1892290789055838
Ni 4.8662799547824 6.4394250242201005 1.073552136132178 -0.8989126867932002 0.7138711636064028 0.17414621643053232
Ni 5.11269143000229 4.817716906859759 7.493562110486994 0.15548360702402256 -0.7426024701028243 -1.6907386698085267
Ni 8.740313206054982 8.080269922315235 7.269534197351685 -1.7976754782720974 -0.9852827268490127 0.16089115119283903
Ni 9.09205093388912 2.321485644384214 3.156164532838121 -0.9995382083267625 -1.7241236730268759 -0.8912505422622522
Ni 3.187059802179959 5.75694455843043 8.850153705061889 -1.3482175922136006 -1.7523189045141692 0.4723299055606639
Ni 7.4663305639496 7.096408272006602 1.7893176576501333 -0.2790076304223131 -0.5665155850061534 -0.16761869972465973
Ni 1.4030495966167074 8.511947622619786 8.70073335129176 0.6430740382881828 -0.7023132835654743 -0.9593228124501415
Ni 5.308321100112895 6.779874824867194 8.82920771273782 0.836090866370973 0.5345009797727698 2.2239281298587246
Ni 0.1363731370305077 8.50714031538206 1.7143708133318276 -0.17775270283486805 0.407695200299414 -0.6407199362337095
Ni 1.2136139569854794 7.089493145441566 6.097921313909351 1.7404812884492928 -0.1295450327813898 -0.6726476381802415
Ni 8.430408296010668 7.355438928725522 9.500074833619738 1.240721054591818 -1.0484619306106588 0.7595702083054144
Ni 8.810666298514777 0.5012865846246592 9.17690730249227 -0.7082962406217866 0.014144409821182091 -1.2447263190964692
Ni 8.089625681785579 2.9654336936991905 13.301114671380422 -1.830501523663183 1.8405110853803852 0.6280539107302667
Ni 6.373537180598424 4.670918384498514 1.01504258463825 2.118612916158977 0.08646259976961883 -1.283659248716241
Ni 4.93494124488738 4.703192056742554 12.325576133968182 -0.03224086231157673 0.6763186592739255 -0.20523522452585302
Ni 5.331359195567535 4.558704739784062 9.724996721004834 -0.16229780173237854 0.09674007043622695 1.797222192784763
Ni 6.952956375068544 1.8777064725908492 1.683641950778988 0.22813501194216196 0.23935479191738135 0.2467731958686395
P 0.05297375231325458 0.5707706638530184 6.500812488681537 1.155819885772048 1.7427662278287273 -0.7060408689287067
P 2.3622090835807175 3.2032567296424506 2.653958088463167 0.6860294588037863 0.3589128886893883 -0.4359313123269718
P 2.8008296449151384 0.9627094984626386 12.64710640718834 -0.4770144555205268 1.818076924746585 0.006550913744640331
P 0.36505027095399445 3.798983789434393 11.230506675536375 0.1425656134107738 -0.4730546995418304 -0.171992146202007
P 3.6988253921006993 1.7192779646429521 5.2908400669286335 0.34673203035248024 -0.00042808867635410144 -0.23108663837131815
P 9.298071783490501 7.492613591789705 4.311757064910734 -0.3112382083212446 -0.8798240455928654 -1.0675623988855356
P 6.021133825608294 1.0580698333802179 10.047176905184246 0.8189099837163123 1.660383197445121 -0.6887818247379428
P 6.952355461663828 1.8287274076957123 4.025865579001022 -0.5424215201714271 -0.5054050908480779 -1.0412533286773618
