# total energy = -340891.37603003427 ev
CRYSTAL
PRIMVEC
9.07404375608840 0.00000000000000 0.00000000000000

0.00000000000000 9.07404375608840 0.00000000000000

0.00000000000000 0.00000000000000 13.28078025543600

PRIMCOORD
 96 1
Ni 6.162128805440679 2.069989055056794 11.510279571960014 1.2301121687277201 0.433688281929066 0.19680894813537073
Ni 4.614350979982602 0.2912641072875304 5.954663494075723 0.23620647609638673 -0.291954163280652 0.3782856367890453
Ni 2.3616379018080083 1.2887320186364584 4.8072179694330766 0.9955550553092983 1.6724041331653972 -1.0146418967374202
Ni 3.4287091747166216 4.1896403526782064 4.728196657652704 0.6637953299959343 0.12890868474897155 -0.08494564890446016
Ni 4.973510713757524 4.728148565219744 2.3907664903073105 -0.9535026062239387 -0.08243496666746448 1.653763121025442
Ni 6.987376806953883 6.226772294574671 2.5585156186865037 0.9306341862661972 -0.3592525314169942 -0.5555061212695271
Ni 5.267872699651224 4.835095247271012 11.423184175868661 0.17436218909608037 -0.41398514707318385 -0.5486471893661647
Ni 5.799475564743158 7.798115412183363 12.352719257149984 -1.1157158186623106 0.177462682398275 0.5282002343657226
Ni 1.985092299815689 6.374479582070899 0.28804463649236756 -0.7504296794567269 1.2896383491178112 0.8543331004106125
Ni 2.623115552409513 1.7713985646801584 0.2511795181172032 0.3393259676963963 -1.5323409744615029 0.12787998637414105
Ni 0.5832133048936482 -0.3549303218875908 4.428436523010295 0.1598025461143506 1.0027356322181376 0.07861096493568398
Ni 8.753866313854495 2.281223724280574 1.3312920069976548 0.0052864452099199285 1.353258754181934 0.7235164000056508
Ni 7.013537275675571 0.823182749109092 5.1222642385217405 0.2806053139267361 -0.535623009192355 -0.9226686515622173
Ni 0.6752032402942201 7.191570018068739 2.4461608064381752 0.3701321544439754 0.3931293866700971 -0.39539375722424164
Ni 7.709017374591186 3.896621325289818 3.83353675690726 -0.14071287647275124 -0.057722037301816714 -0.5492655396764541
Ni 7.5690411725444475 3.981336599651827 12.599051420986532 0.2664894433506443 -0.4876567657257214 -0.10755155922943414
Ni 8.63652985147498 8.799100422969172 6.768616125673993 -0.447972559762222 -0.7381202659617546 -0.35903810141334297
Ni 6.74549001725079 1.0897473087516578 0.46839579711598694 0.8888930977736692 -0.9876370860138023 -1.1572640744177425
Ni 1.7938114532485134 6.440012327512462 9.33456883078585 0.4068012277302349 -0.07478516343169056 1.1465749701350125
Ni 8.941925874817716 5.011177070213898 1.5215130052309098 0.05570192154799439 -0.9048329089323771 -0.404346081321523
Ni 6.15349031559571 2.2154187575203674 7.046211093148012 0.905104417426209 -1.134325720454014 0.6268100110208366
Ni 3.475023095061919 4.487268994395633 0.5342180045597078 -0.6459040515378102 0.13912599160160555 -0.13824847409265867
Ni 5.851633169395346 5.73894261752069 4.741437502591547 -0.21984706090175685 -0.2678408151722162 0.1454143957134786
Ni 5.340664680256626 2.795912571440762 9.321249041664599 -0.6533808195308295 0.9116275632567075 0.08723341649737233
P 0.15114907236828337 5.487310304610142 12.319836736666579 1.3803193578441517 0.3225127527937994 1.6448331655256638
P 4.093219561614506 6.27594453876573 12.516896841828567 -0.35527940570185906 0.4541686612706049 0.6455492393015528
P 2.5585990998908885 8.393000659816071 1.3774289834858335 -1.415490506428646 0.5211721238743475 -0.2287191665804061
P 6.586948321272532 7.999214374309632 6.091987353074473 -0.9105219888973545 -0.07100846999807771 0.4750624740004786
P 4.470863122925356 1.3293292912902315 12.559554829864474 1.128679063691198 -2.01754542199199 0.7988247829306631
P 3.8243919354096128 6.266852346723021 8.263129313117396 0.40917641283063083 -1.5295335869196949 -1.1098830140306175
P 4.494891191317665 1.0355026739898658 3.8433784649806353 0.8071582424970227 -0.585277696105005 -0.8408186108639455
P 0.15675320191476758 5.533660521131258 3.807121307550443 -0.08516342134222107 -0.1352503106962832 -1.3311063864546109
Ni 1.4653582842166324 1.056146123987035 2.3606588124652848 0.6986155229989129 -0.5025776487016118 0.9213730726792455
Ni 1.6869464375928385 6.583799628020216 4.881655981611879 0.8878289181752129 -0.09482074192632702 0.11957866559729728
Ni 6.081315369979234 5.850299284933991 9.135663065083458 -0.4782874086956796 -1.7621780566964362 1.4299033394198666
Ni 8.698460201466489 2.2711061652709725 10.515004857034961 -0.5440670261946501 0.9569877365590616 -0.45748487012803146
Ni 2.3383357569320826 5.01602260968576 6.877956540520537 0.3687409305234037 0.16237159239310744 1.119590985347001
Ni 0.3660986551871582 8.95174399037681 9.37983016203239 -0.13218658416929494 0.7487731176899105 -0.9789701543674237
Ni 1.303186970656454 0.8531116682852075 11.503148280815939 0.47203345736616764 2.2142219583145546 0.4499517949757799
Ni 4.280244681566881 7.106827521574865 1.4658128938187678 0.016739938462500204 -1.3795675672797918 -0.2069745758144629
Ni 5.634101113666936 7.911259666255759 8.248639879730371 -0.6134932393072725 1.1907642630577169 -1.596429834521612
Ni 5.406587609588245 2.664465970711535 4.909692055219024 -1.044530970987369 0.3930447973760908 -1.0831481691389346
Ni 1.29883142955815 7.156462542007619 7.2858756494865755 -0.7426801174182952 1.224095273109679 -1.6465534906508803
Ni 5.160454167314306 4.425901235129324 7.409002259313647 -0.5421842073496405 0.8564812571018668 -0.8153626326846861
Ni 8.044729778786907 7.13918556231768 8.953357355391974 0.58585182344092 0.8489962615787314 -0.5961884294802378
Ni 4.751895338249454 0.3438636178803172 10.460088743020515 -0.265313163654356 -0.8349459541332523 1.0338650066330906
Ni 7.9352242163403846 7.152669591634512 4.6489376059207155 0.17371092866532664 0.0019941476118933397 -0.13940367074302445
Ni 7.134485207549094 5.999331382847619 6.91552852691978 -0.39336181439587736 0.4699840310363067 0.05652698855245104
Ni 2.338308534800218 5.390354144953109 2.708960545243895 -1.3136845914337376 -1.160382565442066 -1.2124098663519507
Ni 2.464383301508204 5.114176543144828 11.671548018146689 -0.6336283194942507 0.14072778887108667 -2.0705070617906856
Ni 1.1240925651205744 3.310066050007617 3.7164407566925486 -0.0606428104930375 0.1824778762246793 -0.11046719021433234
Ni 3.596052693331036 2.6665620748650936 2.742228712595377 0.44210067436247724 -0.08877813527667291 0.10256798997191367
Ni 1.152267471600227 3.250023101158708 8.506724745297177 -0.8166620682224001 -0.270131925199238 -1.7808905455042747
Ni 3.693580517757222 2.5087463024032193 7.217572598425613 -0.6012128792780226 0.8087397280515297 -0.6766387616175057
Ni 3.9292878835270963 6.798972432320379 6.085425911890758 0.3345673699654883 0.5601832150302224 -0.12586449860600904
Ni 0.7730940264785982 7.482492941303569 11.489243215859602 0.06735930328126463 -0.6068690491225355 0.031692703117590586
P 0.09469127828591573 5.507844866079854 8.094608891002045 0.2981988586387832 -0.40664233355486734 -0.5296053422433653
P 8.607120875017475 1.4750856593361776 7.920139525669926 0.1209619190980691 1.0812262695258734 0.8671888733273582
P 1.77177967452626 3.2610843607396087 10.51619990862381 0.1329399173955517 0.10969277394215303 0.7799662554632631
P 3.9339428680759085 6.091913853318439 3.769444062241324 1.072089854442244 1.4521220416087506 0.9903591129306556
P 6.896382294175153 3.8810865620392008 10.277810255460896 1.1284648907978632 0.6533651358015458 0.48306786080345837
P 6.373599399807284 7.9483815800748445 10.282099556038329 0.4611592336558251 -0.3882774578944345 -0.6581175628848666
P 2.4018994348354537 8.57026210847308 5.834127523797747 -0.5268272652775958 -1.7229877596502197 0.677521421332775
P 6.770026232104568 3.8998607589816814 1.6532182162128486 2.5679522743617387 -0.15172105465779678 0.342902629304061
Ni 5.198047931419041 2.991068034776637 0.5949523955579724 -0.19759339170987905 -0.9806696535570336 -0.4397329454612491
Ni 1.7568347241327051 1.0957452518057804 7.205726434042621 -1.4845349107218175 0.5091416750723747 0.22316892618613823
Ni 6.944284172212541 0.9195273182035721 9.296585790195454 0.04550981150634097 -0.36137214886315827 -0.7282132912606878
Ni 2.8776334112976873 1.6549422845642603 9.704651898673562 -0.5289049737422311 -0.9351950661640023 -1.6589066128995946
Ni 6.58838202021739 1.8373577901875968 2.7163050764209093 -0.4622830628476232 0.3818049627962134 0.47034707080268023
Ni 3.983278445058154 6.919766105446671 10.280944430242885 0.49199653075165584 0.8163453083129296 1.2409953912991272
Ni 7.974723529675628 7.082463713556228 0.06938830671795705 0.6710661526257345 0.41938832036662615 1.4251789373610038
Ni 7.716067906744065 3.764893429197992 8.156749758813303 0.14672488699478603 -0.11499258888851163 0.07876188869125145
Ni 3.157567667303255 8.506507875646658 12.301907333216292 0.6706894860126061 -0.553720233013698 1.0258516494103107
Ni 0.19669079157302707 4.828081011293952 10.179705321839185 -0.8667019063886104 -0.7900763473140715 0.4512805410895325
Ni 8.648253516264583 2.5212775571047974 5.858988589425107 0.6197533612843713 -0.6134557012011177 0.23120542333736957
Ni 3.7371087066083954 2.956405186869303 11.534092585510596 -0.2252702887998572 1.1674279023246217 -0.10823521556002005
Ni 1.0589772257009324 3.3593381086821785 12.61441740701959 -0.8553224609070753 0.2650861352452144 0.28484634859127717
Ni 3.1785559309707065 8.461500617630852 8.144451707041362 0.04982026595623678 -0.4537806818035669 0.4866015849883298
Ni 5.786254682701015 8.070037287376842 3.455274345798693 -0.3757872958472238 0.8033830917253068 0.9048974436217255
Ni 3.2714559929799445 8.251690573307975 3.5260337405582205 -0.6945837761317005 -0.005637657901751581 0.5968741426933527
Ni 3.332497086663882 4.193406080919448 9.17608974571088 0.4351934057196828 0.9383924900553774 0.3500819206613196
Ni 7.642504632402505 6.377510312751801 11.169189889316678 -1.277236890129665 -0.7921908225539132 -0.2772531096250515
Ni 0.6927370154280793 8.892789926802477 0.24892280338564451 -0.1241454590323733 -0.4287347945785326 1.1387778426880968
Ni 4.746623318711715 0.398457603334369 1.5024947165060452 -1.3453446415411798 0.7960348788903516 0.20196915218007153
Ni 5.967862598412374 5.490477145950368 0.37916981550404705 -0.044253570501736686 1.080237680360359 -0.5562309152506937
Ni 7.890815845225596 9.075495801832366 11.438696254009391 -0.11578114622807802 -0.7821280390012724 0.11734797649456565
Ni 9.03483501087091 4.92145292358884 5.961105157879235 0.4723862127198961 -0.42894228260364836 -0.3334196295142903
Ni 8.119463604798636 8.883361995133441 2.51677410909003 -0.6706984848736708 -0.10310689319451921 -0.6825849518986115
P 8.725274001352922 1.6333551339957921 3.617764158301685 -0.9508708250280462 -0.5402183418725212 0.7512300638708352
P 1.9072642248153728 3.2552951206964464 1.564157382200886 -1.2291066102813415 1.1700704821537915 0.15307885423727186
P 4.616864490158081 1.0010031588737178 8.454013623963748 1.2831514558418868 -0.2951166201690337 -2.1310547414667553
P 8.681972663600618 1.5571785349952496 12.632359514131416 -1.1838608510696642 0.6314624221911834 0.19451835232898113
P 6.347021525063676 7.947056769657444 1.2568585318408292 0.9124271763398674 0.27947814230082835 0.671556976219224
P 1.8825737512143634 3.244669415225376 5.872841024926505 -0.7709000314959369 -1.358233838799022 0.7655076568357719
P 6.761260705644232 4.008930767318372 5.849253955070398 0.8602309539522863 0.7518800387500083 1.1629773227524358
P 2.256197511053237 8.609380311962221 10.267425012154627 1.6834578198763976 -1.751636533735164 -1.096121184359835
