# total energy = -381167.5205617854 ev
CRYSTAL
PRIMVEC
9.30195083144384 0.00000000000000 0.00000000000000

0.00000000000000 9.30195083144384 0.00000000000000

0.00000000000000 0.00000000000000 13.61434529741470

PRIMCOORD
 96 1
Ni 0.645435371208733 6.150245043603893 3.084152855370714 -0.8396456736017669 0.21722659255977425 -1.1930103787794164
Ni 0.24549242725600687 5.939500052530551 6.998549444377236 0.4392750319882241 1.2259287267739918 0.3022239206377763
Ni 6.601975666904329 3.4029232582701914 11.988002221692266 -0.3094757171041831 0.7901326544733037 -0.5420086010037246
Ni 2.1293187964155047 4.658407520503988 1.8314015062008888 0.5077054568464805 0.14452453690935754 1.5733752666949934
Ni 8.430283344360912 0.9035672888368469 11.008763565342106 -0.2861303575100233 -0.21497584885238463 -0.03824104575906963
Ni 6.43403825214276 4.474163786473723 3.254836205926989 -0.4311632015143671 -0.008796258135391304 -0.8311787737813363
Ni 8.375169287505795 1.6005587208252405 2.3154052468445876 0.8683592394863755 0.5615253308804136 0.43107526978625116
Ni 1.1712830060899106 8.853215128838826 8.06662172823227 0.4738913365105129 1.956517717355708 -0.8549810184072566
Ni 4.2707766382649215 7.519501462697596 8.085083309437394 0.47097827662877595 0.8824802522687899 -0.2462209229095953
Ni 7.01642407250429 7.891272519293122 10.941467674080663 -0.3159973202727848 -0.15186477932451264 0.5299976925857776
Ni 4.062105982158448 0.28245372766340104 6.60001667612396 -0.15348148899232922 0.10881191399909647 -1.1075098858127508
Ni 7.269288295550623 4.187552086926063 5.515007400754698 -2.2311519013006733 -0.44461367059231816 -1.034743809693618
Ni 4.633422481396334 4.6686954777836105 12.068409212217382 -1.67569668787374 0.03966312291757686 0.34969702651807516
Ni 4.95672107381093 6.730993720673187 10.215128588188827 0.08734963036026247 0.20236664472880633 -0.5552454114089728
Ni 5.9814332454930605 4.67360690766032 10.078059696241386 1.196974505633487 0.1129668167077345 0.1625202021558298
Ni 7.768021674849187 6.341400126873541 1.350398574796255 1.3044764425719084 0.9120975609145904 1.0584231555884287
Ni 1.456545922811581 6.9502686003771 9.133265232486806 0.5691087996546264 -2.4728564243971545 1.7714065172732398
Ni 1.6463057135026193 0.736829825692883 3.127841326397116 0.19276434575235188 -0.6835583715554744 -0.25644902839550676
Ni 1.1480281297797343 3.0737179272728117 3.1055547831364954 -0.9070607698216313 0.28685360882929306 1.4489097053190403
Ni 8.033648174014544 2.452803427840581 13.27084166002725 2.799373156144024 -0.476118940289451 1.8729388668917872
Ni 7.759361558911278 0.012452521166573192 4.9853143395268695 1.014061341643602 0.12222973006689915 0.5551374250761987
Ni 6.407471881446014 0.9985922946105417 12.60033474157099 -0.20388848068997142 -0.6607699129060491 -0.5582080935817225
Ni 5.815123672073204 0.8665836637481948 8.119418669211841 0.481235692690726 -1.067185475162091 -0.7617911272161332
Ni 4.025995810224006 1.7738447571381502 3.1355740378677757 0.3009121438048882 -0.7012480755257536 1.0603975057059802
P 6.566544537358144 7.515910909795304 8.698191611989824 -0.010621741379904287 0.29160423614040104 0.2395792492233616
Ni 1.1266336435743722 4.135089085970305 9.055132568864824 0.03241723998844094 0.35648422464323765 0.1625957925887716
P 1.0785239554638795 8.228989135020026 1.503527284323504 -1.1327030972489265 0.2538429582312273 1.2030780474280633
Ni 2.117896001171946 4.2485449765123935 6.686794572563014 0.07544825093698618 0.6382604189496234 0.34709404167758934
P 5.973638210953889 8.32792468079404 13.192531329150256 0.1758912241460971 0.4101133228226033 -1.5985414815479762
P 2.2904657872945022 6.850626106363258 7.250400685011498 -0.26912122454653653 0.2624618102484899 -1.7057657393449785
P 4.0744217646523175 5.5297119241431485 0.6540592095395986 -1.3913997840280294 -0.6244096291094601 -0.252956441861216
Ni 6.200819748603263 6.310173478964236 4.920945772095354 -1.2459923302930864 0.30569979500151867 -0.3267784700486888
Ni 1.273046344823242 1.4542669449331838 9.90666846725023 0.19986393291161064 -0.974729891033831 -0.752721046594065
Ni 4.5474352507518265 8.886069618089843 4.016027840042413 -0.3262333961784962 -0.4157247554721098 0.6777957580400843
Ni 3.1558820562519263 8.463240155067693 10.360639000236864 -0.9749636043111919 0.10108883432322589 0.7696075379367584
Ni 6.257756987761099 2.457817179173055 1.3546207301391306 1.3263529309300255 -0.5160941951308079 0.8755814682664276
Ni 3.751969649735413 0.23371057672221918 12.71152281657531 1.5867090076894224 -0.27325992930525844 -0.7281243310913073
Ni 1.2460799902539617 2.1888977895221764 7.456753295047373 -0.38635221584726365 -0.730986997351083 -0.18022481852444444
Ni 6.567409618756883 6.006929891879538 12.497968636443698 0.19909285907354096 1.3847195437943765 -0.6301647864256825
Ni 7.732051032172607 1.6894946697858788 6.832100341699519 -0.24137465056088755 -0.314608153234742 -0.6383756043712491
Ni 4.789211548773467 2.7406150790058468 6.606128987813326 -0.6580620270565827 -1.2593407265755343 1.4370931723000862
Ni 3.3329074766755125 5.291256422458601 8.408314927808213 0.9648517126881705 -0.4554249022752092 1.4850041370487521
Ni 6.3116803949491365 2.12706772438868 9.909310221199068 0.31749190254044035 1.154072049843006 0.5010807524411112
Ni 4.235057148252491 3.6130171128068476 1.875988545647916 0.3485073770853482 0.9824146612725984 -0.44416912685573184
Ni 4.589424255417481 5.022792828383402 6.223185358443339 -0.6836951542436547 -0.5251717319520438 -0.6994416184446342
Ni 8.08258573572168 8.38096440268229 7.22387989387232 -0.07451956847512972 -0.07659393450565519 1.8214766944567533
Ni 2.431083373366876 5.51563807300023 4.114104815783055 0.7053551557155916 -1.1375352285302474 1.3947512169987657
Ni 8.424190566767646 6.578934735456206 4.881764096097864 0.3725237946046036 -0.3026466099974917 0.3917731297525188
Ni 2.4522267069080885 3.467283453946235 13.544870611100999 0.607941713361424 -0.07196903413913412 -0.9801685455508992
Ni 0.5082892730719422 8.222719620366803 5.862268747914351 1.766619123186925 0.2561055290131589 -1.100700576200401
Ni 8.878079242589665 8.081013706083112 9.619637249733934 -0.6744309553329094 0.5624853808008378 -0.003961041530277049
Ni 2.3803040254559753 7.953679305359111 4.280132540102032 -1.5430951276542133 0.8632630559103908 -1.3655411710937129
Ni 3.0936334033448465 2.8735864617474345 8.856090361745816 1.0023149997409513 1.4341639144684333 -0.5383293523799245
Ni 1.1299916477135616 2.412200413803013 11.931557055717153 -0.7309353181775412 -0.5261919456864421 0.9379194070737008
Ni 2.241221261220073 6.509067785069912 11.495040702693887 -0.981718149426206 -0.23446352526335104 -1.4792183836049104
Ni 6.179397356546329 4.677625350286718 0.6522592821131911 -0.2593060382283276 -1.578418999766488 0.5068119984979337
P 8.163354572122184 5.184386312887555 11.417398251864523 -0.6931213326535611 0.3998831604541629 -0.36770966104541186
Ni 6.492798673603312 0.22368493444737597 3.0967867645725065 0.8932084373195713 -0.3126147769537971 -0.44726036418654586
P 5.452645264051225 4.003624619213617 8.217291932236007 -1.0272649848180695 -0.7312525923076438 -0.661149664842971
Ni 2.9604666796422534 1.213653390727052 0.9792228430342695 -1.5293633798904176 0.8442260938835976 0.5255692245007787
P 6.6489598190014085 7.245261357346949 3.003419366382201 0.2937379946539522 0.626492736890734 0.9637829051040242
P 1.0268888281047641 8.534744248746224 11.227382657534072 0.025402756343820772 0.26891527918331753 0.3883458492385247
P 8.258383298676089 3.0919218444484176 3.91905221524382 -0.043177563828738545 -0.12391997328512853 -0.2728436677034462
Ni 5.962634003483915 1.5998703764864595 4.915254838764727 0.3764359851748162 -0.7144054388433181 0.22223227330448178
Ni 7.647366074601469 9.055541854687883 1.0801415646600154 -0.47086411964841485 -0.796863545439234 -1.092738641040847
Ni 8.5417300135898 4.311063385984671 1.9793620520169641 0.3940439280645665 -1.7324172804942357 0.7753642379148775
Ni 6.111121039699652 8.303014057290579 6.234444439357674 -1.7039705951177686 -0.2269836719465381 0.12291647172127863
Ni 8.341812492926477 4.006712866787608 7.373610600873126 1.2667473034522507 -1.3845899601950478 2.2306261107041907
Ni 1.5945403588361668 6.156719201168645 0.3969142288620887 -1.5498679276016727 -2.8202543704684073 0.4316823072426307
Ni 6.54832201628149 5.616796784949496 7.2990722109336446 0.978432793806715 1.5908549115369957 1.2858310595565792
Ni 2.7106534963678155 3.1599935183835655 4.7458244609440445 1.2246655437908522 -0.7342204166867162 0.5288324686330828
Ni 5.137876560267202 0.4342522582657078 1.2988862331840576 -0.29511713438966597 -0.8653770169296001 -1.0711094928068456
Ni 8.873158510762432 8.228970531118978 3.1910527311834374 0.11178925145986554 0.7394703522317457 -0.7676424437905877
Ni 0.43778885985495936 1.7700588632748537 5.18103388991868 -0.4943208080094583 -0.34718788694297625 -0.26990566812104483
Ni 4.769872793633924 2.600285853399719 13.233470143601743 -0.8826376037822605 -0.4692672074749402 0.3066215354848396
Ni 3.7900611371314814 7.077268130882235 5.665773414848832 0.7969363076586985 0.22792366726230426 0.8907255229967177
Ni 8.461779748835415 5.473202574709421 9.30457460431335 -0.528800844064199 1.4082374244106586 -0.23101978968912473
Ni 3.547791835732065 0.7706005570705209 8.81330045914004 -0.03864342340381087 -1.0387282482626627 -0.20697149049066937
Ni 0.20893948247661942 4.267865127750888 5.26399984703297 1.475680802765297 0.3763981899583453 -0.84720188868247
Ni 8.659009005797282 7.424919229768847 13.074794680976991 0.4168151603228112 0.189665395112054 -0.875144637839325
Ni 8.468198094697023 3.2815886156342153 10.428275342887485 0.37961772533690746 -0.8874399102669103 -0.6355335069367635
Ni 4.352196611202111 6.504956322938273 3.2611252546763123 0.4993956514292044 -0.19926229477186974 -0.20185422386876203
Ni 3.2714215837114065 8.107617284581954 1.8325865746976553 0.003775150771716079 0.4415810544135814 0.5431882231341226
Ni 5.630610181477742 6.93657612920567 1.0710870460198851 -1.6287964237777757 1.1886940107922497 0.6795631343531522
Ni 8.943685899635936 4.95966979212706 13.447065252315658 -0.6822517369289088 -0.5321728458602254 -0.1477078197333456
Ni 0.394785012387129 0.3390030754843829 13.255539021220098 0.28504406642438007 0.5803969709739358 0.0943826259476439
Ni 5.351598175508247 0.13717493418341542 10.507497264915834 -0.4872777851197479 -0.12790878272954748 0.001532377484126393
Ni 2.1837817167339377 7.931856929429642 13.355045706756293 0.6039505899241598 4.624278416666352 -2.717740887883513
P 5.0280577323800255 3.458865188721951 4.55693905360227 -1.159025022972907 0.718064118641828 -0.935090679375654
Ni 0.9290350991766996 4.721474745057186 11.58085212647349 1.3077563988747607 -0.7973775089611751 -0.7946505969483153
P 3.063495083646858 4.195979654100871 10.636234399778868 -1.0017352159780812 0.12139617842201027 -0.0832741747393082
Ni 4.164846025696806 7.04304625490418 12.328101997143435 2.1345038763576207 1.080329982963849 2.3710224843777876
P 8.731610729637652 1.6106141293417608 8.659172720126506 0.09042184152768298 0.16007739704229204 1.0727549988300686
P 2.4187396850214347 0.8839234297201147 5.373786118093312 -0.45519915941764827 -0.4661605435251584 -0.6510133477399175
P 0.8460496079663092 2.634619352784063 1.1420320924719185 -0.45017342406828276 -0.6739267620029813 -2.3083482452770183
Ni 3.4569861947160887 1.9797155261368786 11.156043208379817 0.11361499181469466 0.4748984376187885 -0.3116375006421923
