# total energy = -381159.1276752025 ev
CRYSTAL
PRIMVEC
9.30873297480860 0.00000000000000 0.00000000000000
0.00000000000000 9.30873297480860 0.00000000000000
0.00000000000000 0.00000000000000 13.62427164978892
PRIMCOORD
 96 1
Ni 5.169800348472915 8.094399461286734 10.985645383803297 -1.420327008585341 -1.685860258670303 0.36004186008750894
Ni 1.6110065658958004 2.0188687017803546 0.3284269938017686 -0.47293334347261773 -0.19014824828574348 0.48346766734503827
Ni 8.380987423799064 7.688696951455477 3.2642664016990204 -0.5283917815512384 0.20332977997302404 -1.0400438817502928
Ni 5.949211252854471 5.390240454370031 0.1462662596993455 -0.8613403849663811 0.9364024562085422 -0.6599114215604958
Ni 8.544988681587816 1.8947274386477193 1.4432464417263546 -1.3576964782383134 -1.7642246548128195 -6.575590421451404
Ni 8.618825551651407 5.943598086862495 4.91118233597068 0.10637990751883616 0.22067187079589737 0.19498115089801257
Ni 4.213812088035349 5.5757262678958925 2.2446399190598987 0.924413402167466 -1.1429034348206961 -1.8409044641640617
Ni 8.612449069554387 4.98529195191083 2.782007940898274 2.4611396501808582 0.23380995083975215 -0.45431572837143047
Ni 7.335942514861954 8.73123781121872 8.715910051480105 0.04068847885829766 -1.018949780084155 1.2222348228621724
Ni 3.2212591244195443 6.576070641022946 10.526139328172675 -0.05371394458368814 1.1233532806029105 1.166832691942784
Ni 9.077736779244072 2.0234020547456812 12.408618335954323 0.24221720106684094 -0.4495998109529999 0.3156533066698048
Ni 3.406717011746441 0.9834024790882566 12.499056400429339 -0.8598758846057126 1.512654808886485 -0.08361201769470117
Ni 5.635348702686274 1.391823138952112 12.010776120258429 -0.7017304144788108 1.645995047044249 0.9619142273264016
Ni 2.6117139796093993 1.5707090607892333 3.4631130396830603 -0.5459133353747695 0.07713746571395101 -1.8816757325441527
Ni 5.872888951082989 8.196283543844224 5.0398225097565845 -0.5639725068693254 -0.4975771101632269 -0.41861184721191774
Ni 4.060776517706875 3.865190728888654 7.004088045573876 1.7049635551586573 0.051472199737362966 -0.6307823654050233
Ni 8.736971990739544 1.7696832284152142 4.910773682592492 1.9750803108492434 -0.4738064901061904 3.4095926097960314
Ni 4.800225031369445 6.254556312338326 6.547211707012464 -3.198478815002214 1.6507508165616795 2.328994203662144
Ni 1.867452850991854 4.07327814611023 6.8162098876700075 -1.1313131588799354 1.126363528184144 0.7705529325691634
Ni 2.873056658257325 5.46511059379533 12.89767589532976 2.264590126354461 1.939726613940298 -1.4683554727484776
Ni 0.8695092001024959 7.005947930424948 11.821861900372959 0.1830201218813945 -0.6275507458416031 1.8652677234997748
Ni 1.2390109782153587 0.7589456549066679 9.509373419180873 0.4493910373763034 -0.31722219381882144 0.1716756434028527
Ni 1.8656562655251023 5.81635701564474 2.8599387917301424 -0.7616610293961721 1.397217419151071 0.9297034469218117
Ni 6.9916962602197845 0.6768798648813744 4.098671438829149 -0.3701581225859044 0.1972115828904281 0.038341061672043646
P 2.424440889349775 5.919060266705205 8.649559264485744 -0.394318778992508 -0.9142973967793866 -0.11201807964121999
Ni 1.2357901566013896 7.057080800729954 0.8292424138147904 -0.417152746167888 -0.6754000041143982 -0.5523454641533584
P 8.294760630127978 6.60978687190675 8.263406955676619 1.593673097712081 -1.3650025249814235 2.1575491882128586
Ni 2.1140318791202564 8.883268038384452 1.5673085806285891 0.11358259591486246 2.3100492871285248 0.7084674760923282
P 4.7489152951376585 6.204633577321805 12.179376823016723 0.9436611946534845 1.0795697077590567 -0.8486255085028739
P 0.34889875938974785 4.039040626179078 11.701682434000166 -0.6850172154891879 1.0664151726549698 0.622428079903057
P 6.894866819674968 6.143484510321334 3.4719414420492116 -0.7609040966254895 1.42184858743619 -1.1514893767174943
Ni 2.88685220054606 8.133151716717235 12.52090958199279 -0.17699499873323712 -1.6650867735683776 0.2063973631547542
Ni 1.8558169347564166 2.566883121537506 11.230691263608517 0.8380217648450987 -1.1662845327487978 0.6524472519729666
Ni 8.017006655221593 6.210768032361128 11.273417417151745 -0.05060008154505479 -1.3085853225339594 -1.0880335222556938
Ni 4.837562359385716 1.324632704242202 6.052882612145724 0.8371648161614421 -0.04936235248321176 -1.654500256301783
Ni 7.113454487707402 0.3610345545866597 6.760050301551293 -0.34998293318961016 1.558848019613096 -1.1689970465839545
Ni 6.677089011412519 4.253039088848256 1.9418808256002063 -1.2208227730059942 -0.10410730943457554 1.439415906895992
Ni 0.4725541066603912 5.323766792100224 9.75912020914521 0.26992855093918033 -0.6261122136228636 -0.35706683661958505
Ni 2.434391924914321 3.952851067439946 1.8898636256613064 0.4618750287759272 -2.240981742906902 -0.45469265209487497
Ni 2.9620853805579044 0.6389002342889065 7.49761379678372 -1.0857328991469752 -0.31658815977924837 -0.4975058906056593
Ni 2.7973114979311213 2.377794828345153 5.441588356407069 -0.4293060937009703 -0.37426083190036835 2.2350952022191377
Ni 8.266024571392943 6.358646564614056 0.8540101596768931 0.6521119801207349 0.4947057021527029 -0.11605445449412272
Ni 2.6536870566538697 7.154161577065456 6.886592286921624 0.487997694004908 1.1630184604030163 0.5333691801611717
Ni 3.764805352342288 1.380149987784721 1.2628320259325463 1.2008424732293252 0.29418202416990624 0.44547910391640694
Ni 6.875132305739665 0.07818497924245028 10.83339453966574 1.1859239042462801 0.908321638811926 -0.26560164142905224
Ni 0.12422690347612811 8.4698113539739 7.6267585038975945 1.4313249023577415 1.71893724372993 0.014996730519148368
Ni 3.670908162688802 8.07981267669399 8.799222280852538 1.0492535732740187 -0.19173796137036656 -0.728079851006617
Ni 1.3809970824866606 8.003443831257567 3.887795125204264 0.31295519101235136 -0.6575254378268224 0.8545308182437155
Ni 5.201813081219851 8.888341297863104 13.363912164910959 -0.9868205036497779 -0.07574444202116633 1.1057731056273021
Ni 7.934438193614929 4.26130524374191 0.06036899517604727 1.714632702817305 -1.449815247852445 -1.9397217288442918
Ni 6.7878629339738845 7.090238507634457 7.007834810601686 0.7483319163874338 0.8984663432844011 -1.0708377272026977
Ni 2.7399697027228855 2.7371305391614387 8.624572763398413 -0.7784225651252271 -0.3268322061047597 0.4240906109383018
Ni 7.410384452569789 2.902341932238674 11.18150764199127 -2.4552374257638103 0.6212764827971172 -0.034990657142572
Ni 6.167072839713813 0.6642097484109313 1.9364445255350098 1.6100646516962271 -0.18594063796229912 -2.2786216647468627
Ni 7.404352393593339 0.4552501029083475 13.151564140600614 0.6512756002623687 0.41508532211589805 0.30322485109846486
Ni 0.504577079013614 0.5890966510546365 3.0514966917843047 -0.947440973410891 0.6035494978309993 0.4876737350065859
P 8.827797298506876 8.944100608463321 11.234751732938035 1.984453781644344 -0.6820277938435609 0.6977855708984498
Ni 5.0307185688939775 5.817623003331155 4.541446908659809 -0.2997055250912968 0.30182977052315113 -2.3735197968783446
P 3.6828698845788312 7.659030019421606 0.9165210943135597 1.069920357594751 -0.838318213039595 -0.1698689292114171
Ni 4.7105912414246225 0.4968350057872033 3.4838352101884262 -0.8320670899235605 0.5704509155048175 1.35667395051107
P 3.368662911290066 9.293215330458398 10.501152827085345 -1.1757847589297492 0.6113617947865665 0.3838711012966227
P 5.612644702927689 2.7108519859353266 4.491118312884995 -0.2534997159591957 -1.0884469556440286 0.27189133109250596
P 7.099575166821772 1.5868317863250556 9.160197259548072 -0.00963520909691889 1.2747174661419207 -0.09919315996240981
Ni 5.055572885972873 4.4616291776512025 9.125918781191771 -0.7594506520084147 -1.144464865770545 0.1876409084828575
Ni 6.938673717118143 4.379703018620734 4.641707548184131 0.44801112630964135 -1.66418405924845 0.04988094399084312
Ni 0.323251338260246 2.1220187720242607 7.30560721579952 0.35923376236391685 -0.600721798574217 -0.04524447366009627
Ni 3.329035634958661 4.222255108855783 4.113576582090095 0.6337399053714505 -0.18134787638529415 0.6307252869148428
Ni 4.370738708752953 1.9142850866562426 10.340659099886604 -1.4435016469295914 1.3434003733306152 0.40388636807628503
Ni 6.336473162635806 4.82625224880487 6.809165969417724 0.02536804645114341 1.3903479457247474 1.5542102637307684
Ni 0.6061074297175472 6.346079775079783 6.648562399169722 -0.1362422422959073 -0.510084241491302 0.7651834407271338
Ni 7.0134507692135575 7.479073593290824 12.733366518479095 -0.6191985172221658 0.12184123637922888 -0.10567285414948252
Ni 6.082838114902234 6.461805943590949 9.339193024434456 0.710688395003047 0.5003775557264996 0.022108144752949022
Ni 8.605802634200705 8.99945033481205 1.2686537075434603 -1.2142613177383925 -2.530533724503964 2.097599032911471
Ni 9.203013707801286 2.8667546460242126 9.856574265673544 0.8600414636492995 -0.7637377094195428 -1.7331197058778989
Ni 8.548758718448097 8.318553751646201 5.552421854859558 -0.37160539655539226 -0.39688165462367775 -1.8778514737020564
Ni 3.5255429883427283 3.3053076745713565 13.372276992374289 0.9730334771680146 -0.3414586977686829 -0.13295714378673232
Ni 3.159886647827353 9.093980518308742 5.194689107863866 -0.6292589867819615 -0.4743772750079959 0.08149497135169835
Ni 6.346731386388967 7.542549843538382 1.3553347673843776 -0.692879134735768 0.005800408731860978 1.7586096226188874
Ni 5.213290748994486 4.178289962951806 11.768918481501718 0.080100662107333 -0.9848469248631747 -0.7554746980798022
Ni 6.293336493967792 2.460186424025039 0.2959274143195423 -0.6186310747544701 0.9343229479716941 0.17973990846822596
Ni 0.5233863048898739 7.656600440111646 9.751694632840403 -0.24536423133625485 0.7915974119442883 -1.0242225984473199
Ni 8.044634974731016 2.7201793363896534 3.1757087012876517 -3.0559777362807887 2.494312794498717 2.8998492965839153
Ni 7.492431625129106 4.320899752333327 8.964375959785245 -0.22077085826760687 0.43957353706524943 0.38105882865880825
Ni 2.8495055637968 4.376798693928369 10.353029475154823 0.41511926067762706 -0.31648762964564203 -0.36274846038539466
Ni 1.148772120626294 4.853387205465911 0.17077708453096982 -3.686986358764005 -1.8842812884878 0.47346016251036527
Ni 8.740593087872012 4.36381301140962 6.946580554918447 0.6119253805995203 0.1830959694246524 -0.4224075668089241
Ni 1.011263516922388 3.982173576353248 4.624868050208207 -1.1641001235029693 0.017271385485938 -0.7985933836461472
Ni 7.0353169830031925 2.9255672210446075 6.629039193473255 0.07808954521457519 -4.65592818236115 -0.135843721305908
P 0.7025589357030366 2.748617515669063 2.435188752458124 3.6999593739849055 1.403741336312518 1.4180274139178868
Ni 3.9628672641354106 7.618239151466656 3.0057191355674964 -0.555589425011953 1.5996012902710581 1.6402871980261944
P 5.17050781218003 8.600841079517915 7.0992949739588225 -1.0723945301668563 0.280303209305285 0.3048374470012234
Ni 4.947517113444106 1.7564927537707222 8.247112018580511 1.7969375716648086 0.5346387909022147 -0.06824196299653408
P 0.9008042295360297 0.29990038155897003 5.73445599019334 1.3819664065292716 0.7657845646462424 0.33057367542506294
P 4.722199231461095 3.3898682050375273 1.900940087044144 -1.1851952536103718 -0.8145758751173326 -1.0072957407849943
P 2.619831194775241 6.424049722590203 4.936741324136792 0.4229858079098973 -0.8089641853575099 -1.742908924054179
Ni 0.5396682097597969 9.142748970434708 13.210079767038682 1.8022798098133284 0.10843704715818099 -2.0714344587009617
