# total energy = -381170.9434138694 ev
CRYSTAL
PRIMVEC
9.19593385976040 0.00000000000000 0.00000000000000
0.00000000000000 9.19593385976040 0.00000000000000
0.00000000000000 0.00000000000000 13.45917874299718
PRIMCOORD
 96 1
Ni 0.4598141510046586 5.884827339873469 11.079137545189068 0.8332282001111972 0.7263834371408006 0.2082765824553381
Ni 8.234719421796886 7.086303649197949 6.65934564926204 0.9104379138239804 0.5429475678782262 -0.006727805642136799
Ni 6.989957853136682 2.2625491048317006 2.730988121935993 -1.5967483942032952 -0.9671366520676051 -1.509227528372491
Ni 1.738629181285027 7.171062568955196 7.168223784260712 0.2969991819037272 -0.4761513361892831 1.3778313013149754
Ni 8.776681767016958 1.5100734482214875 5.939818103056324 2.735213847857296 0.8828132101281764 -0.04891780874662543
Ni 4.817280607129717 6.883459746409039 9.59901893099354 0.1668504541000675 0.4532392074778001 -0.16269066629542303
Ni 1.595853116605518 0.5895577386222197 10.428588696726555 -1.4046813316282842 2.548296190693708 1.922764532164663
Ni 7.149396949453398 0.45762000125375496 13.712884187133627 0.4459742983852706 0.8720207474983627 0.10637965040852
Ni 3.4781227803260677 6.800402074363095 5.408436599007206 0.8833143181343109 0.8879410182730451 0.6906880406217202
Ni 6.972457991544186 4.65992898773444 2.9716521407372305 -0.3632433977439422 -0.42083559433611395 -3.0497376689083473
Ni 7.777561976001933 1.934097945347093 11.919003997745584 0.49933548761523033 0.4116444147551492 -0.842121388835769
Ni 2.932583216945469 6.360689314559193 11.317863061192776 0.1715414318178336 1.2040861769776037 0.22625682108284262
Ni 5.752516247601876 5.483829460418706 4.563118797027656 -1.3452569669233798 1.2064168819933094 1.4467435509056568
Ni 8.66525463989332 4.463181988905502 12.8675939729548 -0.09870619302366226 -0.25491228003600613 -0.5719979482769633
Ni 3.106561084243654 1.612801222183538 12.967635614719706 -1.0626171390651185 -1.7489242770103237 -0.4368700220911573
Ni 8.258601261290165 8.552990682814391 10.533879377375852 2.6865426079038377 -0.3533302523952883 0.3343549968443661
Ni 3.917072277643277 8.191875567272744 7.384566397943802 0.6805239556045247 0.059804630862458304 0.4785365485920081
Ni 9.281271838189786 3.684350786670436 6.248813425877113 -0.3326423850286336 1.0519725148670787 1.1842084642170703
Ni 8.313969977342937 5.734115184519066 4.842114225747972 -0.5686002354493239 -0.03870718676221076 -1.4949095690879222
Ni 5.233387405447577 5.970827710663291 7.300312334939801 -0.967671698635469 1.8466421379787874 -0.41413144284306097
Ni 0.9685708996801456 0.8826578902592832 4.072370445071342 -0.11092587501830573 1.1514420684193265 -0.6688012678509578
Ni 2.189790878389328 4.336167754372887 11.67633526542508 -1.6691558014314285 -2.248988158151146 -0.5252084987272503
Ni 0.5870334548559872 0.7155567420881966 12.791710968283773 -0.011226721953754858 2.033686550528227 -0.2939387978108486
Ni 3.2180985625701877 2.440683534105613 5.763664477874384 -0.7640927787661163 -0.6487163241756247 2.173502111997689
P 0.6355291301550893 7.027265755648905 3.520638340021596 -0.20627600708554153 -0.6519425444224062 -0.7764651842885403
Ni 7.74736253014289 3.4137236575030228 4.544639568509463 -0.6959701149562659 0.2944818147985122 3.898147204745673
P 6.801514782325624 7.754314655925301 1.049799500538098 0.17123624187258896 -0.8330906460920684 -0.907567791365037
Ni 7.4414965835175435 1.005906389993092 9.28260708774482 -0.3540604456930934 0.6444336376398708 -0.8755387879539502
P 5.413949561185188 0.19717828811358748 9.789371997208045 -0.33223769339104714 0.13378940988004057 -0.5805203839256776
P 0.8199857637615512 8.082738227609184 11.818289213643016 -0.5099207193302444 -1.5390785502956525 -1.39237268946426
P -0.17649019635077084 2.6934797480718435 3.2006998562470117 2.399605952442435 -1.2472359728922002 -2.1944231784210726
Ni 2.473365882029803 0.6356312050177675 8.34094900726415 -1.7457307097736903 -1.0266319792197611 -0.06876106872479772
Ni 6.0187661123877705 5.101572893589013 0.28313911638903794 0.11751304131752019 0.16775676796442077 2.040087568958564
Ni 4.7780507545004 9.003058063823312 0.2439432887139465 -0.3019842938231444 -0.9827388773812364 0.06679726013020754
Ni 2.591515236596486 2.5107841357449208 2.890789538035548 0.8595640097922487 -0.6645969999616231 -0.5401972588265987
Ni 3.341829848816664 0.3733107626483057 4.863743061515471 0.65289796635714 -1.706111038499539 -0.601023646085352
Ni 6.409271431633896 4.048675283029626 11.717533967432722 0.5146096401654814 1.107380302213422 -0.1312422179781546
Ni 5.909463245919869 2.6038561794536226 10.112701941284948 -0.45372925974034123 -0.1001904908786726 -2.1980126955445436
Ni 7.5366469082141085 6.593318846196287 12.592932587728203 0.7425621037831921 0.9078426422929785 0.7069068164734277
Ni 3.290820005278262 4.393844649752888 1.4804689792647219 0.28052766661126527 0.12640160205640164 -1.0781936533471366
Ni 5.397847481496034 0.27098025301667894 3.0714381355487608 -0.13275454085762298 -2.327961648632571 -0.52295646946828
Ni 0.054619247466439674 7.940431155541981 0.52730862506892 -0.04341050577515105 0.17107066282900216 0.15193651310271253
Ni 5.317346278983833 1.5332288089623738 12.050433199987374 0.14470965633697014 0.27801801281553407 0.9509597851974267
Ni 5.357412961568442 1.0808440526926486 6.351507174884937 -2.85930479950265 0.07615556141665594 -0.5264871083293577
Ni 3.8864866025740996 8.596193178747944 11.126891108648698 -0.16520340541494774 0.8446755227161904 0.04232215780697872
Ni 6.888462334273631 7.631824820711398 8.436617063020966 -0.9322568094712848 1.553695528877879 -0.43399270054336225
Ni 1.3911332433673869 5.749729879728766 5.243359475815892 -0.6455669799133656 -0.4975729963981689 0.9540443376600215
Ni 4.023423249433726 3.668009612708341 12.806650681969098 1.767438276654111 0.5957287162349998 -0.16646478862587458
Ni 2.5862459666582307 5.5499758106209285 3.256044662872489 -0.7303624763932066 1.8359412066215155 -0.9427811060413763
Ni 7.769064933378987 9.043989164163936 2.626612436677371 0.5057820145715225 1.0847594794901125 -1.0135206386487834
Ni 2.746475913262363 5.772066802381512 8.85340711920342 -0.8138184281260178 -0.30608546047571156 -0.35726121201857824
Ni 7.650087944790588 6.368395506894722 10.194142968208475 -2.2463615191615767 -1.5508498318989676 0.549787473618195
Ni 1.4168358777084422 8.174807914558254 5.259240853099256 -0.13896118388896714 -0.46005391640678833 -0.6996424216015306
Ni 5.916415371702279 7.827155645769844 5.792520397838175 0.29853181649816973 0.28863898286449 -0.30955130753712495
Ni 0.3856388311984377 2.1190557573333715 8.377570893131706 -1.2037722452816106 0.3834088169482236 0.38551943553332313
Ni 4.958833612643802 2.111928908813043 4.169087756849023 -0.7140220873619703 -0.04272864921677803 -0.1416245896537432
P 3.9113432110262902 6.036762554393297 13.509650376761154 -1.5523464710491524 -0.25548486471002446 -0.9494047820054812
Ni 1.3972209513937834 5.77799817953714 0.15284101397692745 0.5786329370949777 0.2309575689926216 -0.009171896307255172
P 4.670403156075929 7.474381241980375 3.8327566018843253 -0.16805630148271056 0.8518442725504879 0.6819015526783418
Ni 0.3809912063698261 4.560824411600789 8.231148640789861 0.7549483932626869 1.2585529405669162 0.4393783903353078
P 0.6289503592758079 2.7910945829664064 11.20553289339211 -0.12349574126351635 -0.4346493602907547 0.3403562087331235
P 4.477711563953397 3.834235308003124 3.17916573859533 1.2211559879756968 1.1494049833846398 -1.3624260225034988
P 6.212312926332742 4.934455192737492 9.41970190466193 -0.24194877789680266 -0.35020070562737105 -0.2453063815151259
Ni 8.30901336914622 8.256283886029363 4.66142516612703 -0.019351150833102154 -0.11210961091376175 0.24098101466689462
Ni 2.3930302063219457 2.99888589801846 8.355162242197078 1.3940125390605285 1.6606061120892046 -0.06497563354043649
Ni 5.300977517221014 6.337396014814687 11.896890536278702 -0.27148252568986153 0.42509462672278403 -0.9681648362218035
Ni 2.478138571555029 7.966428059757424 13.075927848087758 0.8514033283583273 0.6838324511524674 1.7229083125625362
Ni 8.213964199718975 3.6426932075774197 9.796330560143957 -0.5169295465479097 -0.25912940344114727 1.0910561111321015
Ni 0.7441266685178177 4.493169928292329 2.1515707392665036 -0.1259935679847056 -1.013833284793196 0.5754015746418735
Ni 4.7799083330824725 6.904297731889122 1.8015514371759886 -0.49934345803503033 -0.2582482863877746 -1.346124714240314
Ni 8.334228619007819 6.000834041917267 1.5560963369823748 -0.10287009459336477 0.6464218717144932 -0.400341331037504
Ni 8.361466974255835 2.626717270320121 0.8241055420029796 -0.31295493390203527 0.12461571380057249 0.21716000098789695
Ni 5.536209498059726 3.5893200091103403 5.7530183455750485 0.2632771070609337 -0.32358207459857824 1.703909145752214
Ni 4.790575616029028 1.9116138877571536 1.3986371251642746 -0.6666633955723487 0.9348222562056158 0.6955769932829052
Ni 6.954884562483092 1.1253339793266472 4.835236587027515 -0.12974506460733784 -0.991927228748724 -2.7862055084138144
Ni 1.4576198431118703 3.2483347921635297 0.251741440385222 0.09363469203802585 -0.5292626141919659 -0.35303328998015976
Ni 9.234648454966477 6.927177214622771 8.708734853020825 -0.4635663004354211 -0.6367133861774776 0.30900726210819685
Ni 7.11377190278533 2.8325958311886543 7.534555752919241 0.11795629950252587 -0.641846593638985 0.276150363479176
Ni 6.361333029909416 8.66477645134744 11.595835902099594 -0.8899377369880996 -0.7895356443192532 0.4860325998587371
Ni 1.8317931843294752 7.7964412276306225 9.644322697748892 1.0877715268435588 -1.0271102044077602 0.10133668866797386
Ni 0.6414319999166361 0.9910917410043835 1.6780500492688777 0.061431367832603875 -0.11060654400567402 0.43986484305342316
Ni 1.400016515200467 3.501691958077812 4.512405062550356 -0.873027334386006 -0.16694635624798346 -0.5398105649111413
Ni 4.401900287564253 1.4966473852025464 8.264406654155822 1.8003998191817958 0.9337195100597403 1.0234808351852889
Ni 6.704865520456396 6.967262289074527 3.034075977028448 1.0488856484116387 0.566590918328779 1.5191954382184805
Ni 2.591092223652054 7.931906525118311 2.4579020001307263 -0.5716539346739833 1.0162501217648048 0.06060270128372144
Ni 7.185490988733771 5.078426728781701 6.852781192410759 0.9189433801918304 -0.6865192539560112 0.027741174669010285
Ni 3.4718511536281786 4.490411148219945 4.935131093855226 0.7276713027142887 -0.10271762817590051 0.20554401401552344
Ni 4.656673627249025 3.9852785169662135 8.122775483206354 0.4617107352839209 -2.2433862385833363 -0.5381426902904152
P 3.103655169234075 4.969629638660403 6.902997426881671 -0.6917306229536215 0.3106913346788391 1.1883741655589857
Ni 4.078598850881431 4.557063274768771 10.239971822770938 1.131264307919871 -0.9019339901180272 1.6647854402778748
P 1.6859732656367679 0.7766655598782438 6.4182779289768765 -0.13011658901414366 0.7683662093304896 -0.7922070205038293
Ni -0.1135605837129495 9.191666661438715 7.753455755729432 0.74649254918585 -2.0602930973721616 0.45903370267239
P 2.7682702758342064 0.8306502879280349 1.516566696918525 0.699979236115659 -1.1879077674455285 -0.6178967676916067
P 7.201032116474874 0.6113668146877821 6.897600333466728 0.5016978171998199 -1.9168075432502794 2.3842214995665647
P 6.216432704574171 2.9228907029578224 13.631590295147294 0.943674307279607 -0.37804549575378116 -0.4648870761293736
Ni 3.558430868233201 1.9761417536502435 10.446826072191737 -0.2973977028937265 0.5380830406970734 0.17192838284360712
