# total energy = -340852.4746317144 ev
CRYSTAL
PRIMVEC
9.47955896683868 0.00000000000000 0.00000000000000

0.00000000000000 9.47955896683868 0.00000000000000

0.00000000000000 0.00000000000000 13.87429275646932

PRIMCOORD
 96 1
Ni 3.648321958765299 4.027589626781992 0.11237732570265442 -0.2705021640544632 -0.5575501482827495 1.0643243515642122
Ni 6.090218387329578 7.8868412483991355 9.105212918599522 0.014615435920329668 2.9858501262257673 -0.216840155754633
Ni 0.7913251299215065 7.422276510302855 12.957715094351288 0.16129789971295444 1.7647854124122961 -0.6737642682831881
Ni 8.4550270437348 1.226256767209965 1.3831226103154324 -0.5618150942066905 0.6401434949049492 0.8517403999827718
Ni 5.211671836892149 6.334620372303119 13.635599292072813 -2.1793799109347045 -1.5850192786918251 -0.5189612322659578
Ni 0.2573396868233544 0.576234888712479 3.3399727660408263 0.12870093961353965 1.0194490883180765 1.0089253059686172
Ni 0.42027623938414166 8.013345960580965 2.403471036969747 -0.44276144787492777 -2.079533947879644 -0.7071901520418015
Ni 3.6558771671286494 2.273160281929844 5.67745754216183 -0.17125346826376958 -2.6227915907991215 -0.5925207508206634
Ni 2.3520681293784422 8.928587883131986 1.5925194285093678 1.2015284435527567 1.0546482619270288 -0.5376387540708032
Ni 7.332486129352216 0.23085190362526778 4.463040743892674 0.500696372518499 -1.631258769275339 0.816628386770987
Ni 3.794439878103681 9.132701743206855 8.502735767261868 0.4026339837264227 -0.09623999087135683 -0.7918843470570878
Ni 2.9369948255543545 7.106085826539282 12.065931288005974 1.148347745764719 -0.5110162663872683 -1.6425032318409067
Ni 2.793967242384671 1.0934955462203426 12.305498697991675 -6.226776825979547 0.9083146968333906 -1.5813791108360766
Ni 1.4314323378703995 8.797969042431093 10.553591863736122 -0.013903497454969604 -0.6367383258781422 0.15354808056420652
Ni 0.8294244246933302 6.54842234147127 4.703093507288918 -1.4900280726259048 1.5316871429275878 0.16347870941435716
Ni 5.683223009823799 3.145497721353479 11.922748240071975 -0.425220610777687 -4.912118557778631 -0.09546968836423557
Ni 5.086162478384288 5.971553270275092 8.899206938588234 0.5092370629996585 -1.2809025119067101 -0.15308451066422668
Ni 5.532753972996361 2.1999686084374575 8.487626298491046 -0.1767664276621988 -0.5968144931000108 0.7880163794612493
Ni 9.807551534156602 2.7200646019823074 13.062160873206244 -0.3996607600307117 -0.48750995573521205 -0.6002556575710759
Ni 0.448983187297235 1.6191749998982086 8.61063589734343 0.09945849780865453 -0.6179142511931036 -1.734889139073496
Ni 4.001719910817646 4.104127584530669 9.886210069208769 0.4535713940062382 -0.9397394910015751 0.8413364310406284
Ni -0.052366978721233234 7.41756516957941 8.772839680009001 2.7009886081258387 -1.3751154450457093 0.06509930360249434
Ni 5.577535408766084 8.113772406504854 12.453606376722112 -1.1651403918420256 -1.5563273100737711 3.0971500967540404
Ni 1.101306702671285 5.009908907399601 2.2385750596050644 0.05196816553717502 -0.4587825058935324 0.7284614027157519
P 5.181555278585541 5.691489185097127 1.8857525167718585 -0.03500839775438487 -0.3074702566383801 0.5199241103998594
P 9.039972699028313 9.436369929796042 11.943088529388463 -0.24663332785666556 -0.5046188475013568 -0.3005586171202114
P 4.172437285241217 3.842833025776085 4.569512304463123 -0.024409282082299897 1.2203710301805564 -1.5635176571746234
P 7.969588317161608 3.7553556571725695 12.719105119804356 -2.4500260567661996 -1.0017624696715908 0.5888235044747343
P 4.853306596028765 1.4513773295849417 10.48084857337496 0.4055167045908564 2.3468026925984744 -1.738956110054018
P 6.385070584235057 4.31396709812055 9.515169710274323 0.13154098016549604 -0.43445087112670344 -0.44114910908248545
P 0.8301382354709467 8.944162798239873 5.272258541048591 0.134654071873181 -2.8148838501851134 -0.7074863431259816
P 2.058998089527306 2.181777335100857 0.26971619879222625 1.0664100304486472 0.5675108590398872 0.5391323078971941
Ni 2.5630925878182835 2.348949354533345 3.2842395959898245 -0.28706546772978303 0.28156099297178605 0.20482487646131178
Ni 4.962880816194352 3.2835390565945275 2.6279157068023062 -0.04596926764126276 0.5424906828464656 -0.628712370249872
Ni 6.419756289883113 9.43429390641891 0.6872755966243775 -1.6119904079640304 -1.387089329578134 1.5332280050521465
Ni 0.6348526885062261 0.46278826877721985 13.81683897676404 1.5342122233422868 -0.2108469142856756 -0.4836712987154122
Ni 5.36083269460523 7.283097628005844 3.964482307940714 -0.4420955321561547 5.855827574950915 -1.7617610237636756
Ni 5.2453716684250375 0.5682834347913013 3.231753174827715 -0.6602472076333596 -0.6560223709187347 -0.5836766701664723
Ni 8.490897694232817 9.204774828760879 9.57077869810505 -0.5032260809188881 1.5472569723413867 0.43195895794278516
Ni 6.779268557361258 3.711398943018419 7.20862431816374 0.054731587214925104 -0.0460343165512433 0.8963338703224304
Ni 7.1587542552303445 6.820286608287506 10.876876101349502 0.8532830618795433 0.8448292746852353 -0.7615890385076561
Ni 8.508956253746224 5.224317568330932 8.29403854050735 0.1627703704934229 -0.3234653465150558 -0.3792009495144631
Ni 4.88530010697771 7.822967981206843 1.7063025727820158 -1.1790441464073114 0.6144748864942514 -0.29564678164089087
Ni 8.79745714625591 4.259611307963142 0.6614930926009877 -0.22675252977233853 -0.2124731370351889 2.2492432115847456
Ni 8.315687008938195 4.555695847512578 10.90518016801361 0.23246474966576738 0.7798500416003731 -2.624313683870603
Ni 6.204219561454619 4.3048003647612525 0.5172047281109454 0.5463717630684267 -1.4060833541821331 -0.051462943765982344
Ni 6.797658901432651 2.0530638857187014 3.4331520892623537 1.856858673500473 2.2432569120943238 -0.9116445325375719
Ni 6.0154531070764445 5.0636959240290285 11.752593951441105 0.3827894381966698 5.0713060960168015 -0.5266655428887511
Ni 7.42755662455428 4.285661135544683 3.2199321650045047 0.7563545295815942 -3.4611113465006134 -1.4430979837332696
Ni 8.537774112497273 6.013159053846921 3.2793415079580255 0.924801124524188 3.1545587165804965 -0.22462494190637444
Ni 4.869071102312645 4.879384862286706 6.367842434072505 0.22373354044035662 0.3107682106633616 0.08850791233442176
Ni 5.8785587984501575 5.378066532503062 4.081594673263812 -0.8369097627278425 -3.472261963800794 0.9451773741876948
Ni 7.767920183257058 2.1589600370700097 10.24039292872973 -1.3211963264297504 -0.26997663056829635 -0.14382056886379746
Ni 3.7946389488384744 1.4730665601186266 1.3357542029492744 0.8085093572082787 -0.09956596992079626 -0.6196196639199845
Ni 2.566637942809367 6.877618979908014 2.6615197947913183 0.8668191486927652 -0.22472341515745167 2.449362712150588
Ni 2.770116672444657 1.6803465928325916 9.287867901419538 0.6985062511145583 0.30216427104443444 1.787229343238109
P 5.787621390884757 0.15314701218835008 7.406208658137385 -1.3436543983229505 -0.6810158076392787 0.8007438543302468
P 0.4889471112849573 6.356641387394794 10.641512875691463 -0.885321835482643 1.4485278964995894 0.36551239628377696
P 3.748236508514004 4.688096845267813 12.024960634873723 -0.5185228591769586 0.7386779382374375 -0.8646195699382851
P 3.3632716256586983 8.930502754009522 13.38824821635669 0.5525061581009388 -2.545890923686325 1.17308304372787
P 8.368886292922042 2.281834078231558 5.131823617210621 -1.239507493899691 0.17266474678899937 0.31280555280836453
P 3.56882637867112 8.937299597668899 3.609383723039703 -1.1818649036855582 -0.8908772180832334 -0.5784879268766812
P 2.2825734838179335 1.7005759713111246 7.237580578473265 -0.4425215639499798 -0.21532449044105498 0.5176610253972955
P -0.06575875143755165 3.410735776568733 9.478514152307692 0.47795959304261554 0.6155064130825594 -0.6410114993321993
Ni 2.5228518607136103 5.286768901703272 5.025643079095322 2.1481911440367263 -1.3468219974176545 0.3928987587165298
Ni 0.5366785857531433 1.5870013773320697 10.78350244717258 -0.33391919485852817 -1.3202984972058294 1.6351627323154356
Ni 6.46167489889533 7.244695935308311 6.059486605656872 -3.252546286270579 -1.1655702802905927 0.6769868889855438
Ni 6.884908760624975 9.144153050236877 11.314458223278352 2.0482217680299244 2.472054240210833 -1.6087402764578485
Ni 8.355482196779283 8.457785595345511 0.15914472904091229 0.9626773307446711 -0.1361260284330172 -0.636540093824407
Ni 0.5005377678293351 3.6623422262300367 4.495798307280873 -0.38637355600350237 0.43100019357394154 -1.0012060829474885
Ni 2.6298192022092834 6.736894929526655 0.437036099341989 0.24676316856631048 -0.5068382237501787 0.05798480404490013
Ni 1.9337067608718372 3.1662579551247947 11.342345189355274 1.9135299009402724 1.2955606281395173 -0.5705820417660432
Ni 1.102226219874855 5.1245357324054215 12.182641720035965 1.3073367948388388 -0.32017124914481637 0.9382338529903261
Ni 8.463369055478525 6.048840113168944 12.668186617667715 -1.5755990138191898 -0.0029418562371433207 1.219152584392423
Ni 2.4222263440549288 7.41819082046019 6.544018138452935 -0.04762017298112444 1.7513074325305191 -0.42761867869621834
Ni 4.753723830838049 1.127214336870831 12.528277809343129 5.567893331462933 0.07434241946731712 3.7681735690672973
Ni 0.9173786151044699 1.4690282680699596 5.5928799705951375 0.16571556916467592 2.027093470691741 0.21046227725274722
Ni 9.504584834918592 9.372572499074145 7.274347047277853 -0.1500261834538771 -1.4721848737968968 -0.4501227733360054
Ni 7.083922618065611 6.757105348887588 0.9641810928102867 0.6569196859220235 -0.5547702715447671 1.6085633845603524
Ni 4.301482519181361 9.046797981364087 10.965339344068184 -1.687172292613507 -1.6758512111737331 -1.87992661106353
Ni 8.381200239802835 7.902283449683828 5.607780889072367 2.8682805206386988 0.0263185832898708 -0.6089205323349255
Ni 2.973074026345965 5.656594929155477 8.154892836666138 -1.0364525648546086 0.31235355287261046 -0.03831432219916627
Ni 7.484803680145593 1.2693887597485427 7.158995983979737 1.2166287895293046 1.0354233522591458 -0.5295976289338814
Ni 7.296113062237816 1.4360773216822462 13.083971442092565 0.9371318781753991 1.2691335442962401 -1.4042488720765558
Ni 4.2563598192948495 8.94388789103468 5.962421611283354 0.4669375309004991 0.8124994522042782 -0.6274327322065001
Ni 0.740636033107818 3.53153379435315 7.123908345038573 0.25721753113041507 1.1790577732540661 0.19015030516827253
Ni 3.568930653817917 3.412925554651461 7.628682527695489 -0.32436497551118976 0.40558098216988864 1.1490218890136084
Ni 7.83092133103978 4.976957961011888 5.648779032925135 0.8681481519168339 0.6043210858897011 -0.7285308225011066
P 0.48955664691577716 2.6400666052717456 2.276646863656369 0.07825923802322006 0.8459477045603948 0.21291536677893008
P 7.633869742270678 7.283344096534637 7.796422372700078 0.11428322152631286 -0.455128454080713 -0.13861151385903225
P 1.0221808253702942 5.968936912046378 6.992726418544979 -1.408342325419639 -2.2082166326607386 0.4177363865854999
P 4.284741618341114 6.792606296592418 5.61043137371276 -1.3452934765882705 -0.6466864382297896 1.1619457961641277
P 0.09232426701779566 6.222022172880433 0.7620693155539112 0.31907518786716016 1.573164693346084 0.22658309407400978
P 7.8338505147088835 8.431432421882379 2.708900525583916 -0.6839214113218479 0.2502097323540142 -0.5380611863202024
P 6.017804037658767 2.0028317036391576 0.9297304802204627 -0.4592620166331122 0.9660994690523426 0.8625760571456952
P 3.616167295316759 7.3825097611381665 9.791989890431037 -0.4909817163338963 -0.9718253157925263 -0.40067840266194865
