# total energy = -340853.90373441065 ev
CRYSTAL
PRIMVEC
9.37436608245968 0.00000000000000 0.00000000000000

0.00000000000000 9.37436608245968 0.00000000000000

0.00000000000000 0.00000000000000 13.72033233712382

PRIMCOORD
 96 1
Ni 6.818294959610578 1.143185158035498 11.79401145350079 2.0414260852643293 -1.6598797754461414 0.29761187578706166
Ni 0.5990144737949117 2.5352784762389247 5.458346341663849 -0.4588519256788872 0.2654499463425364 0.1475638379563136
Ni 4.977731982532728 1.1053783408481954 5.726701623640619 0.06531990425373267 2.1163925114688906 1.456381331105737
Ni 6.683744687582472 8.24672331957398 4.056923654637015 0.06395002048939953 3.16851440742964 -0.1883253361443918
Ni 1.2536058125480782 8.753820262031194 3.0100629172919935 1.4162235279399287 -2.4321211514613212 -1.6746700463814386
Ni 0.5436747802908694 3.3011454116637293 12.216734416762785 0.8568011023351308 -0.14152380240982076 1.6951118591755583
Ni 4.676824215387867 8.924152488238306 12.067745746561636 -0.6423916675091775 1.3188147135714514 -1.6605001826389598
Ni 5.169222152303378 3.0729920973308333 4.436702648264735 -1.3732760778441253 0.1615717221996314 -1.0227935793102771
Ni 7.711803259484258 1.1285705217858066 6.8097708488076 0.07708681498167369 -1.7781384366804343 1.8679542691930024
Ni 7.736326600362508 4.943806152777993 7.147908909644345 0.9823902357925661 -0.9239544602531765 -1.7253398048221642
Ni 8.486416478181006 2.491256454540047 10.821376944395059 -1.6620369309984604 1.176304378878645 -1.6456296932850303
Ni 2.1645785558683093 5.441050636801322 8.340081690931935 2.296213666797013 0.5129057701004973 -0.019398973351902073
Ni 8.560998932319906 0.19665357044180362 2.4666824920865893 -0.12953551969969304 1.0307418876230763 -0.6393539091241182
Ni 2.2504383720395227 4.772723977308549 12.681620464989653 2.0899258326369297 0.28503481045299944 2.0945121664560316
Ni 5.987819895235888 0.9140419106763243 0.5172793785665233 1.3817609753866846 -1.8887508942233793 -0.4144664575849766
Ni 0.946248481747164 6.456172583927884 12.038548346905902 -1.0608405067806697 2.675543171469541 -0.29182329412974256
Ni 7.332216440355011 2.9843574688889927 0.9371619089974361 2.3205771832430417 -1.2047073555013703 0.11720219494532075
Ni 0.2329511147386633 2.708788612445168 2.662333942826602 1.5995889489758839 -1.1500919821493356 3.0663228269605383
Ni 1.5275154062489935 2.73967714768746 9.678541450203124 -0.7320090108576942 -1.0345350361169214 0.9953457675119697
Ni 6.2883901852127 1.9199169833983347 9.46549211401359 -0.11561453874322669 -0.3949533272527133 -0.5818784406154689
Ni 8.537253663801325 5.279145965429662 10.941744738435892 -0.22844637253499364 -0.9082915569049389 0.26549314087564596
Ni 5.520357771292911 3.4527476550441047 7.255558501632609 0.17955067527555527 -2.012269261194715 1.1966214931694423
Ni 5.2782647750464236 8.319908993211786 5.944032232681489 1.6634775200997287 -0.14112965229519567 2.7218268850274288
Ni 9.656252958126622 4.404161412335579 8.824999821392263 -2.8489427395420353 -0.06980853615270557 -0.454362779559282
P 3.6923751930906774 6.453800869385759 12.972354232954403 -0.0517071985663045 -0.3102799581730334 -0.2680966399367641
P 0.9827053902622693 4.419104151387541 6.625918912273799 -0.25124125894232213 0.009396867833867688 0.8214283792627918
P 8.613720365461832 2.366999236137445 8.59029944999921 -0.28381765021644667 1.3671211139863229 -0.3975411425845476
P 7.968735876759137 7.810852808306732 6.443740300031577 -0.46688739438885396 0.05765030352361684 0.7296623650023886
P 4.967673288051703 1.7741830929957056 12.068651310295902 -1.5469918916054584 -0.8294823599155199 -1.186759255663382
P 1.3354908976289328 6.488598515157956 2.7925954425107484 0.6662443057570591 -0.4495861841062451 -0.05044607246569376
P 5.469042493017858 8.87242473786897 2.2441387982359355 0.11042039613679694 0.3372549440999804 -0.7185711401852334
P 6.980480861955613 8.547134245332547 10.752308492207455 -1.0812378394900992 -0.10025836800213056 -1.042657665224056
Ni 8.508202504251747 0.4441162034065875 9.362795936903028 -1.041578316116948 -1.2220808137828114 -2.552191411983056
Ni 4.7405042821256185 6.964244460426128 7.658839967705229 -1.295526175357156 -1.2413311773719913 -0.2561754630191459
Ni 1.3307568429104633 1.296709146400599 0.9886627997149176 -3.232506594010884 0.2578687915611688 0.9913998954903441
Ni 3.2400714186125823 2.874789881662315 8.071383307167649 -0.31540519521474064 -0.9986750889955187 -1.1066195127879974
Ni 2.354081360093779 3.206164337589405 1.1275834010692625 0.1763008008796899 1.5413179811491327 -0.012934962894113207
Ni 7.539333677879499 3.3028796693328717 3.1723191273803706 -1.267891958579655 0.7939813387954326 1.2870137670107706
Ni 0.44184291970514417 6.239812221745156 5.669707354576558 -0.9290208190324903 -2.4213148048744366 -0.6683207286701135
Ni 3.462337631236173 5.4316200248275 1.35650447595947 -0.5794119813528473 -0.05388569427486204 -1.3293454378994463
Ni 7.929747889483662 1.2099025192856918 4.416204660052051 1.0061942801906993 -0.2980600190680737 0.5441405597450628
Ni 5.2220279547373165 6.701846587902006 2.251327999351964 0.32901610112995594 0.9301053103459207 -0.07812939731357511
Ni 6.387270995451149 8.881086651848904 8.192972581069505 -0.5429984757208197 0.9996814187728461 0.1616902500553667
Ni 9.141853384727453 0.34792489871017557 11.35456274681564 -0.8360283885641537 -1.4740196130127905 4.079171379242961
Ni 0.5107454456184574 5.746973689638027 0.5154354408177649 -0.19876890007521897 -0.6237971923364418 1.3046476780424499
Ni 5.945860234008424 6.17641338598078 11.125062336120282 2.4481092993594613 -0.39405755491132133 2.1443105780353973
Ni 4.161327841192539 1.3860562266416552 1.9091983335664575 -0.8330096563424879 -0.5481396536021269 -1.6409543992965483
Ni 6.858942209628963 4.347633986687319 9.196244392414645 -0.481671494676564 0.08641477725081892 1.054796100358803
Ni 7.708222251756624 7.344037515602516 12.426874887251047 0.6827983534609983 0.669899386011143 0.8059063723677927
Ni 6.1367504443692065 1.549263934856616 3.0458720571317595 0.04236021013376576 -1.8192951134244022 -0.4895943490680665
Ni 4.933091252692428 7.391096831813838 9.834802753375737 -0.10716255132113157 3.0080654859805422 -0.8679589187241633
Ni 0.6664761596879698 8.518233075635434 0.22888357742709117 0.6173843468315625 -1.018296205660556 -0.15030720502940567
Ni 0.2597196162210194 6.89537099504673 7.922819295736294 -0.13182380151323747 0.536350888497315 0.3627636298940462
Ni 1.8448564366046998 8.712610550066062 11.41110423401257 -0.35394628871273237 0.9689773048207698 2.665798433377951
Ni 5.512014585749469 3.050296757779517 13.611735663230903 -2.3685830216983597 1.9956769040536728 -0.5376796346110676
Ni 6.95993225216772 5.123222139425101 13.380959401353001 0.34654819647644836 0.733160350853318 1.0161863584064046
P 2.3736456614748604 7.34629673775529 6.784457248894167 0.7946343989983992 -1.8643809500194473 1.3537961147426427
P 0.058282306922116785 3.290589875796409 0.7909330520816678 0.8675447140048801 1.5515340024501858 -3.1962743511517275
P 0.7552251553923165 0.8192820716343883 4.218645525875981 -1.9711804615742052 1.3710829268475484 0.34104654993192873
P 8.2441078715216 0.1770592710902292 13.590030256705866 -1.1102008023813523 -0.03978679297963471 0.1836101900569096
P 8.222293722353522 5.490219185312952 1.9981057560524718 -1.1411311734116218 -0.7000324579510977 -0.5055452159703681
P 4.869214324273315 6.954457622552699 4.5188736515018535 0.3950327743403971 -2.2614132712883763 -0.6944670480481783
P 3.1727447235867436 2.673156648118628 5.778660920844701 0.5507560081790515 0.3650244009037649 -0.7380133080702451
P 2.845232506360662 9.574977206821412 0.4840228785284191 2.1696210317757276 -2.55559478123765 -0.8481786507734425
Ni 2.7539636811348807 1.7806139079202008 3.549381429805293 -1.2321459113282973 1.7027408364757257 0.6337751294847601
Ni 7.437190588349907 7.984719170412584 1.3252606522541488 -0.7084520494733605 -0.8696931278064505 -0.928134302662479
Ni 3.8575890155823753 5.285239303186109 10.88660284404979 -1.1427499399619674 0.23253802610586402 -0.29399767607324206
Ni 3.4500759607970477 0.4522269046787061 9.859636385761275 -0.16326093697659624 0.44413004608768025 0.2738505117014058
Ni 5.308234622442359 7.659644288289081 13.696403997511586 0.5864694024202609 -1.459472568436551 1.5599463948835972
Ni 7.111197018380047 6.761683164670306 8.369388770667284 0.3057815560820476 -0.34244471583103603 0.23397912942776478
Ni 2.8275524525011897 6.727616719428883 4.777117742549235 -1.419901233901832 0.4573048929067414 -1.2374899492490299
Ni 2.682446644605763 7.409283101425384 10.072630413192712 0.2462085816144211 -2.674649713120994 -2.289642441337399
Ni 4.03406145137483 9.018946074997048 4.217959322300947 0.033401972499213436 -0.4542239399885726 -3.242144888431597
Ni 3.146993340791425 7.6680249712956385 1.990106609733125 -0.5614345709388202 1.3822762244602065 -0.38361296253922966
Ni 0.7056010127038204 0.9274050690944994 7.486663803749359 -0.25935180386459844 0.6867028307217271 0.204071543235055
Ni 5.921346267495952 4.506501363546534 1.9910946678862471 0.04199845591897283 0.28716136987769897 -0.3165555067691
Ni 3.552847132833844 5.052370682866302 6.32751503822855 -0.222014757977037 -1.002420414970564 0.10797116326535598
Ni 2.390557017340443 0.5241751620336643 5.469048117637325 0.2985950656359374 1.277746996996864 0.5720267446323697
Ni 2.8502009202236103 9.293399381913154 7.534794609969236 1.4454400016028848 -0.710428456473441 0.8353359904828195
Ni 3.6654707633045236 2.8727275211909027 10.5578091510217 1.3892408287034976 -0.2611893712939695 -2.025597345762189
Ni 3.1991429376208234 2.650545677859324 12.628000967606082 -2.1513469160568883 -0.9498207864969771 2.4983581682126843
Ni 8.754485842001515 7.460813990113358 10.140738930324531 0.9480079016579542 0.057354626660068964 0.083707662732301
Ni 0.7458957865689088 8.264778348064619 5.8234169553840855 -0.997097974316386 4.235032167100745 -0.4847794441779264
Ni 6.712448995598222 6.083747780253906 3.8066234011508837 -0.786218149910246 -3.41368503469785 0.6248022365621885
Ni 5.853119633355315 4.783298261907427 5.629342272968127 0.8858440265347003 3.0649362310256567 -1.1056342660565925
Ni 1.5696531804262621 4.525221972007492 4.450601082968899 1.3923981433855568 -0.10986683762617208 -0.5942932693400539
Ni 8.635572012093025 4.8996435155924285 4.3022433075846855 -0.06734721909640659 -0.8784608466967516 0.36476549081542337
Ni 8.521429734366125 7.110972033601347 3.335728384459583 3.720341794295999 1.6204007435149126 -0.1775832671365393
P 4.666324925715223 0.9594850862273205 8.071822027486112 1.6201881132834741 0.656616809969624 -0.07388013511891792
P 1.5826273026646025 1.393527596167636 11.49302775399312 1.2493489054701452 2.393463072769491 -0.028485509034202553
P 4.066206151631527 3.5991846228801703 2.3138100221431386 0.1061978734150171 -0.8462364394454072 1.1722651758122649
P 4.482549858980812 4.319332776400072 8.972397661720692 0.6987857300281901 1.2492563457563388 0.3769764310593185
P 1.4228318635932515 8.984035936835502 9.106390158984938 -1.3823641561883224 -0.8123374727051171 0.8209000175631476
P 6.654599784375102 4.267483159275606 11.499133278425077 0.5136686164084509 -1.7091246285148824 -0.26467244474656354
P 1.409529638552641 4.859015014305602 10.743321287734986 0.18353202852080647 -0.3852358428546333 -2.0096824743041455
P 7.501414368302847 2.799560596284655 5.737307781083147 -1.1373462524478928 3.8037144422863842 -1.0205587764424875
