# total energy = -381171.9030644106 ev
CRYSTAL
PRIMVEC
9.27189938272023 0.00000000000000 0.00000000000000

0.00000000000000 9.27189938272023 0.00000000000000

0.00000000000000 0.00000000000000 13.57036196456019

PRIMCOORD
 96 1
Ni 4.699944187239959 3.6011036116210637 0.10991836358848399 1.814693867206965 -0.6300064064709472 -0.26336246768588834
Ni 4.453256040328512 6.059139689013611 4.556601554659478 -0.18478235598813983 1.8091030033827489 1.0930435738757758
Ni 5.821602906493714 2.659495900593776 1.9224726427575392 0.09298446004853662 0.5852563559487663 0.9087908651388606
Ni 3.007609351536807 0.5834861722177521 5.933274586198148 -0.34849015069416756 0.20875326498144048 0.9522098555544442
Ni 6.263557248021228 4.178882002765423 11.784569822304325 0.34966874438330103 -0.04695014349729333 0.4986464319680058
Ni 0.637752743150749 1.000734611457803 11.938946014789513 0.8792100661579504 1.1915947293788123 -0.7000658822921944
Ni 0.3034136254803501 8.18956248432809 10.797094953720238 -0.1527088724923628 -0.4865807590527233 1.1837752333343934
Ni 5.642071124615703 1.5960461637616583 7.0980587624508695 0.1654214349630248 -0.060719943587876066 0.012061816260540516
Ni 7.879908870767179 6.211300824808685 2.338539842054851 0.9117689739305781 0.39459800079582363 -1.2822361431164693
Ni 2.6220188845140924 0.8677190200721641 3.6883966870755436 -0.7849333696605514 -0.060866753578385495 -0.5437546371605539
Ni 0.09791496304005283 5.318129514573151 11.515645807020217 -0.31419523406703953 0.06358209562701952 -0.6021438757327242
Ni 6.683333206950374 2.2994031560399213 9.192549240072323 -0.7713476605563168 0.7027583415226929 -0.20831566322338962
Ni 3.6975406339478307 0.47068981115496483 8.113312240677395 0.26279116856345064 0.09497192279221063 0.3028013904078011
Ni 8.927893079934549 0.780363822893851 7.1588954010716614 0.7686359180521085 -1.031830749811881 -0.317067413408512
Ni 6.241453040615497 7.4751533883469605 0.7375397026149701 1.7318454671511658 0.7072418312153432 0.04658813217218428
Ni 6.350991256341718 4.9372028127874685 0.7705077941722518 1.44673403782396 0.13076862077584575 0.3895964338161742
Ni 8.798207027508388 7.5392129390878155 6.2122539760340665 0.009587129467802845 0.16685971007144812 0.15254612166225343
Ni 5.490846450627667 1.9822022166282278 11.564160091764238 0.8705181948109072 1.342399699980243 -0.4467294313837403
Ni 5.79352759608073 4.126977911717905 5.698235653290292 1.251885812959386 -0.12263699280764687 1.7118823937656775
Ni 5.790885104843047 7.076461727924792 8.566941757525923 0.7476811701773123 0.8636847168288416 -0.2673754455000234
Ni 1.8112747570960723 8.724653052110037 8.9613238392559 -1.1886006797474948 -0.1050663309137352 0.10349332999966047
Ni 8.37400837271828 9.110642210793175 13.400067503145046 -0.5933455607148039 -0.2741821840092117 -1.2037385638301978
Ni 8.529127244319742 7.144498923370788 8.978883888922727 -0.9630750804037219 -0.7832940342849155 -0.25638603636805524
Ni 7.328685198586751 5.429123418454868 7.467443804262285 -0.40686087732357673 -0.08474664551977662 -0.03816262711265041
P 8.422157344638567 5.016876241578345 0.3147726290427501 0.6938980629185856 0.444303338440751 -0.43572793806691407
Ni 5.7037663410912645 6.537124630364393 11.576440722095152 -1.8283813919963867 1.168230600731575 -0.16418627700434305
P 7.232832305901998 7.960954540621834 10.650127935789547 -0.28185204184964363 -0.6573781136156808 -0.4219082585750024
Ni 4.910444112043785 5.284936115868236 9.802659670497105 -2.212555626355725 -2.012189814107032 -0.5048286495193177
P 2.912924718136082 4.304349341110371 0.5142121054345383 -2.8766916275205294 0.9630082317215286 -0.16921998277350855
P 7.908392144739664 2.9227714749586013 10.825050656635094 0.7414269617374843 1.4679808630178781 1.2023424548136197
P 0.3441293159085331 9.01705166148384 1.4784775562426085 0.7561758379118847 -1.0636535507494327 0.7949115639191858
Ni 8.42365012039038 3.5459450839966107 2.027181126253204 -2.789217555767261 -0.8122809084355689 -1.067991001782522
Ni 8.132892637153663 8.253380965692875 3.7326366263438775 -0.8049776899059362 -1.881746180770772 0.8782135065726359
Ni 4.260613793151968 7.515606684031192 6.670347912289414 0.1106646509371191 0.9436036019426717 0.5206843856046516
Ni 4.078958746384733 8.370271797389208 0.7995538724188687 1.1631539575396161 -1.5989459160752462 -2.4256021193958803
Ni 2.3850847754343696 5.145041702555453 3.641308420409962 -0.5707314228597139 -0.3846226347506666 -0.18798775029931497
Ni 2.4878637767315723 0.44809048433838355 1.19246728533464 -1.6583720805523632 1.4065518091781195 1.717935541938293
Ni 1.1971134339634202 6.626783894463983 7.978829834857366 0.6630947043844838 -0.9517647975972253 -0.2737857199017414
Ni 8.025588949105622 3.0018144146120664 7.1072193987415 -0.5809847251566058 -0.031939529021074026 -0.2125297013047372
Ni 3.6993764699655887 3.0554059912920697 6.577391560877124 -1.0578544275691524 -0.28251307247241025 0.3101470321395949
Ni 4.680547374365466 1.813027146022114 4.755624722782593 0.8237287452611943 0.1018586226097149 -0.7229895809679033
Ni 3.606907820444884 7.3280454375502595 9.731143658516448 -0.009225632363326046 0.2754772486715513 0.16259784947130063
Ni 4.5264298678646 0.31285983626263164 2.500664560600848 1.6438566605450076 1.3323549141497313 1.6106588336368004
Ni 0.5608757191222753 1.8359287367486896 0.9415112832768597 -0.5461323933641111 -0.14152868750582723 1.0568046461483993
Ni 5.8396923815979855 7.199388565921934 3.0174106760538373 -0.1561664920236601 0.09841488703548858 -0.21911378228015815
Ni 7.095432033441623 5.378396858590456 9.949151040005013 2.0698246910116804 0.07924139943083126 -0.08786205122030674
Ni 6.565941692703744 4.545492892372227 3.205767451475797 1.5173275317718062 0.7325787673182351 0.8850135602136049
Ni 1.208768211106459 7.3607196099067185 2.8313199527669277 -0.28642217771882933 1.45278821443784 -0.36470944076650735
Ni 2.139833772880258 6.5109129716664045 12.108616204806477 0.15152102283184873 -1.555812832331198 -0.39394185526906345
Ni 5.424691450694826 0.12182811795621135 9.653493358104736 -2.2540264919060022 0.17691889407966305 2.030618453125864
Ni 3.7321897208082415 4.1399771142274835 11.778137905912816 -0.7606387587792448 0.6407631307668191 -1.2510586890724003
Ni 0.7424018864923048 9.454833648425542 4.81023157241181 -0.682739732308921 -0.3678173902678698 1.4123756149487483
Ni 0.17751607101810873 4.900235751157161 6.285398133493099 0.1930433104453514 0.2062343552143287 1.1854824458334874
Ni 1.6749685687270885 3.2892154703819725 10.886076441997108 -0.7993713994627524 -0.6747693125089347 0.072470656365901
Ni 5.822233395631125 9.165670931830514 12.365625829773318 0.31412375739915577 -2.107533518416364 -0.08922087924104635
Ni 4.60760534430637 4.026655963676792 3.857225915845989 -3.051455422930403 -2.6121559654621462 -0.5282115472196321
P 1.517819151227197 8.34046264184834 6.830668319274525 0.049780670967552974 1.9443826246550704 -0.8933313360506809
Ni 4.770679505318116 1.4115724596742285 0.16196060593228848 -0.6755195604113979 -1.0298512574880072 0.8221228342266551
P 1.9277854409301414 4.5179924397021765 7.707218823219993 0.42139660904590653 -1.2527304203478684 0.7545210759172811
Ni 2.371093479723275 2.2353343333999867 13.154687621193728 0.8328926711486494 1.4525822690746208 -0.06575879156336417
P 2.5743891389422626 2.9393774462101394 4.6284569181464486 0.8640526416912215 -0.06129484225473959 -0.5190401651330093
P 2.0706190462511533 1.288923778649474 9.977432186577564 -0.4652529441092245 0.4743430793359508 0.18573854925382205
P 3.8144685532404816 7.878675708189593 11.89937540389766 1.8403941001865465 -0.8749415206895834 -0.5184292710218877
Ni 2.110200783421903 8.642355675879639 12.804762441170546 -2.3188532585734003 0.007745962494006015 1.1326213361683977
Ni 0.2173704020217983 6.952644787616009 0.34520114744213315 0.7806753657151458 0.23171167354982677 0.559748698595965
Ni 4.153718068663428 5.313595555923234 2.007531190533839 1.1040859477328664 -1.2159831855255057 2.8009430717343053
Ni 7.735489770703557 0.7688091822608717 11.12599981134009 -0.8927194134982948 -0.07809751563437518 0.7546455173102874
Ni 4.230322498858962 5.30474089230223 7.326326427460905 -0.3119586314270369 1.0425093125716496 0.4385587226474899
Ni 7.352374900735091 9.235367797211756 8.817369261336168 1.9259406158997994 -0.2846054362250647 -2.396158360213467
Ni 0.014289850861456899 3.2969296904161878 12.850589729561305 0.4853828820898801 0.8722603743129946 -1.2054953986203045
Ni 0.6639208239230627 3.131018328286088 3.572818756288881 0.7736562540848354 -0.25159452851668285 1.3690327291867388
Ni 6.777396623112767 0.5364720807448068 1.3722892776538416 -0.1012145612678128 -0.5517016599217724 0.10153234961854773
Ni 8.757753731824158 0.9370366647810519 3.0508210371972146 -0.31566024864834025 2.3957341281918545 -0.8506337971821543
Ni 4.5308803794228005 6.233071243847552 13.73429164926686 -0.1732085351076114 -0.4140699934775062 -4.623727943479521
Ni 9.137938681683474 1.6406996297289411 9.397991343928235 0.5915355040892587 0.6874371377845903 0.24303404054118144
Ni 9.224426956297846 4.571834357657329 8.895819726638447 -0.17638230484990267 -0.6106578267410063 0.09254068764289868
Ni 5.192411834953053 8.727406806136674 4.787433826954926 0.5295153536327204 -0.27653191518831083 0.4738720532368032
Ni 7.316362844709982 2.3348032667257783 13.369778063231855 -1.1350682550469937 -0.510655797724056 0.03645644305482108
Ni 2.462022993996768 7.6473140104567 5.003093563596541 0.17276604825355407 0.5576442506584525 -1.4736835698296105
Ni 2.484071570008022 6.565635720034118 1.0736247188820551 -0.9928998770746384 0.2491141852969903 -0.39309621943931655
Ni 3.4927058394816317 0.7691012470818787 11.6585693497623 0.43400915560359443 0.018747970031464483 -1.084840983460325
Ni 7.37832694625885 1.051628065505647 5.329067573917338 -0.11484989266306027 -0.4290849788290997 -0.02664614183261863
Ni 1.0525830711108441 4.616441464129214 1.6630884844364158 0.7599728430604719 0.8401804630593145 -0.7196543459470831
Ni 6.843792692421677 6.467984078927926 5.2648930516278964 -0.14753298471837817 -0.169806708514914 -0.8963192150344113
Ni 7.6839936432155405 6.863078242507215 12.489210972605113 1.019612096258502 -0.27065514469255963 0.14501458917189863
Ni 2.0648055655282533 5.339009831300378 9.82009733109608 1.0336536619532328 0.1467698813001085 0.1110695996850216
Ni 3.9142527311349786 2.3739770403370257 9.855637447458038 0.42027200852316005 0.8152675018677185 -1.12163655502212
Ni 0.024530663394858886 6.013865005807995 4.177472674105326 -0.3830882003840112 -1.0221685441317687 0.9019293621323371
P 5.288032930160817 3.728462417378248 8.094978914627331 1.3504099718792293 -1.4591234126272485 0.39380121592614115
Ni 1.7272806233341091 2.201584620750296 7.863264884729414 -0.05289067735144439 0.4592221645341123 0.326126952507619
P 6.6859107948944985 8.14838598051565 6.7547555727503275 -0.4314565643850698 0.5753537521230736 -0.18522664261441005
Ni 3.155301431975522 2.6846412908976123 2.246844468917384 -0.027756087067345746 0.7686176632196633 -0.5843734391231806
P 7.894604830808321 4.215802704900332 5.08481422770419 -0.3603437075986439 -0.10677225786124837 -0.7666260867109314
P 3.5280410468739314 7.622391145730776 2.962546067630207 0.15216225596027344 -0.3572745817550169 0.08515262270894366
P 6.436144377488629 1.2298061501180382 3.394992076651606 0.04695734258614494 -0.7381632033845481 0.8897266494185581
Ni 2.391259860221373 5.613114983790158 5.921604046826674 0.25840255257745176 -0.50220586718449 0.16101096460015496
