# total energy = -381164.91317677946 ev
CRYSTAL
PRIMVEC
9.33341178641344 0.00000000000000 0.00000000000000

0.00000000000000 9.33341178641344 0.00000000000000

0.00000000000000 0.00000000000000 13.66039158513801

PRIMCOORD
 96 1
Ni 5.318327319331908 9.113600517771214 11.429677296880426 -1.5968522667710112 -0.5189663744722804 1.1190896202305503
Ni 1.4932712041686274 6.014245162256687 8.37185282339243 1.1845663617771212 -0.2675600507070037 -0.5563674408285579
Ni 6.209210799187774 1.0798010660075308 13.245662410554374 0.424588633620643 -0.7027197749752736 -1.7835364677675543
Ni 6.258267211065307 7.748925059958875 4.445746659813151 -0.4825042749905046 -0.8582584036069476 -0.27467737847807533
Ni 5.633059295154263 6.291615491057398 6.5411694529786155 0.02190451338257518 -0.15889263270557152 -0.0808406255971511
Ni 7.868551397674695 7.845469870548906 2.5777025757188605 -0.4205448025685725 1.1844347212952633 -1.4854700209415772
Ni -0.19089533609018275 7.149682695387881 9.262742836636484 -0.32218853668516123 1.7162118743789667 0.5900234383201065
Ni 1.0144858509544528 2.4802328240296925 3.569391568604273 0.9255909674153349 0.2413911056211198 0.36167502481555774
Ni 4.873804920456094 7.2214939649818195 8.574627725890096 0.3147048267136064 -1.06037693688069 0.756294108657304
Ni 1.1803592436271166 5.5238863785386805 12.631804856607612 -0.628234402172189 -0.009585329695589943 -0.5500695236349882
Ni 3.1281955976571414 9.155712871346449 10.525727973990433 -0.40139702599552807 -1.6307543188350948 1.5535690306023437
Ni 5.5671094081058135 2.381261326398535 4.710676484163411 -0.7177463302910929 0.9284649465290203 0.7207470647906298
Ni 8.770448303332595 1.3000135815780254 12.271252362742949 -1.3587164348623957 0.6221416590108899 -0.04074350046594919
Ni 3.867056467798155 4.9177186224887794 8.67154773963033 1.0092757473295004 0.36777188174191505 2.1448934471220604
Ni 2.8127262823107513 8.257988000716947 8.258389337419903 -0.6607989663717716 0.20891344470838857 -0.005996069682434835
Ni 7.205683165567714 4.681237970331043 0.8413911976520994 0.18930981154484816 0.03201949032939002 0.4945198113941419
Ni 7.934631952486897 6.849062838050843 6.360633270530532 1.080561639358681 2.2143481994797733 1.0655152865485198
Ni 1.3288164900738526 8.168695251015205 2.4456058666351628 -0.17914829763081405 -0.5803458060210263 0.5819540310484107
Ni 3.5755740205121267 6.309992978688079 12.794745691325192 0.9881973293926464 -1.3851897985625758 -2.986703732475314
Ni 8.909404136672151 6.9930027132364065 4.216348200450824 0.4003480159057234 0.8803549783956708 1.8033923261512168
Ni 3.353308154368371 5.96508608285049 6.698113570681104 -1.46011817244035 1.3762436451128814 -0.24493485710832014
Ni 3.0878472588925723 8.326177906572589 5.826976789951818 0.23153298188011737 0.9995940012653622 0.8640408146166796
Ni 2.4753607831240467 3.4525876545855176 12.467184007784637 0.04545556122963784 -0.05607138907227117 0.1695899645184176
Ni 3.7834290989962716 3.200100201368046 3.1646481703795337 -0.09937416562496434 -0.5737655817003473 -0.976585199075015
P 4.885098348609026 2.6762624698941964 8.552088469983882 0.7123549840721926 0.021978304043304083 -0.6277721178237898
Ni 5.21761047371348 3.7283059695159233 12.59757176918668 -0.22909840429669576 0.3125384151899069 -2.8064043519591926
P 1.3588607423253327 7.043748472631032 6.422446589515031 -0.8422604855167946 0.43677900503924777 0.39788669884942446
Ni 8.028563407801869 2.0612373061441858 5.223870392938415 0.5894310561517461 -0.6878955654782476 -0.42222681825668573
P 7.1593521099055994 3.0596976892155094 12.889426619599403 2.680820103597764 -0.5947025889633307 -0.525311857074334
P 4.512825889676894 9.416479060738837 4.771793530635342 1.4152693915567756 1.037739401986832 -0.6409258815969285
P 0.7135253240904877 3.1066634168729954 5.695659420744789 1.059403003003195 -0.2377334542638745 -1.0033411270126205
Ni 0.6531941508834149 -0.24410138280804164 4.843182930020592 -1.5084644249542216 -0.5303067391857641 0.6421602682246618
Ni 0.6268197961110531 5.136036455484857 4.06694454605805 0.7210653673619969 -3.4427207598085676 -0.11143932431961452
Ni 0.30949406517820177 9.028274468040543 7.566067658021838 1.7554319962218543 -0.8018003206192191 0.7872573898080377
Ni 1.2524691823953478 7.674155098857102 0.10030897552728567 0.1956961746871662 0.5019693256936516 0.6285632462665175
Ni 4.015541714479981 3.030857447072896 10.483817222107847 -0.19081056446009073 1.442338736969742 0.006515432521014585
Ni 2.8692867571923824 4.100335759743944 5.051216276668144 -1.7228790019864975 -0.09129935903662986 -0.21828228751779827
Ni 6.671728015814707 2.303112670262579 7.206184369775823 -0.6765099493491252 0.08058094417786123 0.4570608952167354
Ni 4.466261498722363 4.374850064565483 0.8297757667956325 -1.7012696512468377 3.909422263438861 2.093409677420472
Ni 5.236622633339532 0.06101344560209719 8.929552172501687 -0.4592067379151446 1.5298138371642749 0.21077620894874022
Ni 4.490388367958174 4.051690017981063 6.711856086063236 2.5522880854619205 -1.9683229375207518 -1.134773092404078
Ni 2.015727590711375 4.077683569556202 9.734326529385532 -1.2039923317122168 -0.6178204059277167 1.2000690853984106
Ni 3.0931299699128694 1.39546638299955 9.005954547309202 -0.24703210595698102 0.6936011005034571 -1.554750966725587
Ni 8.514087484261017 3.2612713816278163 2.777280784710426 -1.7232333000021225 0.736495585874138 -0.7800847833189986
Ni 5.567781413747973 5.245022703866507 10.62259385394283 -0.5045730818650859 -1.08042357111892 -0.27304189975718135
Ni 6.059465541926902 6.644987791303837 13.610612808010492 -0.5827988955472092 -0.13082904170013596 -1.28398140794235
Ni 2.268588380396712 3.7004550690131532 7.438315652082926 -0.853034436203847 -0.2675978459234746 -0.5253393678781598
Ni 0.7559522136398986 8.020788675858569 11.662395650783246 -0.4626594723504355 -1.491908063257437 -0.8811093400631922
Ni 6.040789385121927 4.187780493929752 2.991420982631088 -0.46870773542704436 -0.52556382518414 -0.09814029321786323
Ni 3.9580292316052925 9.074278854293276 -0.003332961316869699 0.22854767399954834 -0.4840546501967599 0.5268452629997249
Ni 5.615111144461627 6.425932618783725 2.233474218911618 0.2167727928518073 0.1618350031633471 0.5220663535538429
Ni 6.087717779132627 1.8708823745912382 10.753692821316157 0.11802031997124189 1.3591311538023108 0.008503666595636967
Ni 3.7956092012603855 8.112190776603754 2.842550266046191 0.29228249315434823 -0.02512019210639545 0.10277007868039074
Ni 5.898650858393816 8.800557889465951 6.5675746080095765 -0.045276869559928476 0.32305911221557265 0.44606737231970917
Ni 9.354038536488325 3.206129585324075 10.830354664968839 0.649268854244985 0.5839204107461622 0.18122420632323627
Ni 8.36077686373203 6.70107226218894 0.5537167823382997 0.0631213539405171 -1.0115470598621805 0.13764760728386616
P 3.174330651673627 7.126311832499497 0.8465143073323844 -0.08654307529856708 1.1216419543387586 3.60142673042463
Ni 6.36521877569709 0.614510892765526 3.6072721533162513 2.4550723609408553 -2.888649571213354 4.019709476431903
P 8.011548598278898 0.020457905097862484 6.417802283854783 -1.4931403930026412 0.7246931939225713 -1.1154661645453499
Ni 7.174238901561737 5.794424649977451 8.659035367909818 -0.4302273199636591 2.288899135413471 0.9147643091134763
P 0.9551160191521335 1.758088094237359 8.898666046515169 0.05593794881820043 1.0481647110852141 -1.053301003870515
P 4.73020104809161 7.1901710353279 10.860612652348172 -1.1901220014880276 -0.5786013125260939 -0.42255694790259485
P 4.169132337359868 1.6764300753034664 12.129717707751608 -0.7349151287608955 -1.2070203199052632 -0.3519344004890262
Ni 3.8350801993254704 2.1939490870586917 0.5142261841086514 -2.4168243732032506 -0.8840941337231291 -0.2626582425300122
Ni 4.941826824901197 1.1315268336303026 2.274865099762702 -3.236534227113039 -0.2852410129265346 -1.5136981625493349
Ni 8.98255008413871 3.0424962114586043 7.612977385209145 -0.11342447307044337 -1.1219841681695257 0.7878387162328045
Ni 0.7672008414166877 5.798251348773073 1.6561037713105264 0.48904156188839004 -1.1207253560617603 0.2799746223212726
Ni 5.890092119867997 2.7396176684909803 0.9901807135552357 0.9599625029166693 2.178890887113428 1.2364561086678771
Ni 6.359077390800703 8.743008072944477 1.0873695295523351 -0.9140040339086839 -0.9695663445550207 0.617967215918226
Ni 2.227437368226232 6.714129705152537 4.426377030519117 -0.5103251538575146 0.3293917393018198 -0.22129330642998019
Ni 0.1176271209303989 3.307901106464224 -0.18949812435919594 0.16888548225222527 0.026764926798670038 0.7926734186172865
Ni 1.9163920900240488 1.4250346312545017 6.742591944121436 -1.3962262588823955 -0.22882586736159946 -0.2698442187554901
Ni 0.7427594362066997 0.5349276912517963 10.541109436466495 0.6373913860811088 -0.018017262513027037 -0.522042442294443
Ni 7.374113913045257 3.68918964109531 9.392434325525958 -0.5940405298992995 -0.3443000238722199 0.46239182051134553
Ni 7.359759125855826 9.25264035181604 10.86033918338546 2.191537886453477 -0.4882316643925849 0.5530941693939249
Ni 8.160108512254297 1.5414222751115867 9.66030137453715 0.32785627649389987 0.27727136445749667 -2.2481072982080894
Ni 7.2674983512345515 1.4586629135974911 1.9037938509159258 3.911510770536773 -0.9412641551762176 -0.664360715581101
Ni 7.495578932865313 8.632024474459744 8.70192892804406 -0.6762099016102032 -0.03163305352424874 -1.5300933160779067
Ni 0.21440340013050677 0.6755056715442298 0.6500217242477273 0.11940434480296211 -0.43987384191448764 0.16115083261212892
Ni 8.1106694304972 4.951346904831769 12.181271740599163 -0.6145417351764447 0.6401221547487105 -0.21659230140988506
Ni 7.024876314180427 5.305671213071266 4.829658816472162 -0.9828232095649269 -0.21539005357166777 0.23932008202470398
Ni 9.588680506541824 5.008224715711086 6.669795066252334 0.05383041555689439 1.3590488785011496 -1.3667318489677043
Ni 3.0489175987058914 5.58403088351182 2.5195227539078626 0.22543663917439238 0.3949528130320811 -0.43310978371777664
Ni 4.429646524636449 5.812858138078313 4.4224420641478135 1.2253741398221025 -0.15960534250187997 0.26024577643377755
Ni 1.9197334514114455 0.6934976892718403 12.651298620277212 0.5255923644292302 0.511699408497222 -0.20683342225090828
Ni 6.963089128748679 7.016410909771576 11.207053027727518 0.5308674967852405 -0.1393566195551729 0.036038638791112125
Ni 4.21308337303934 1.524706134762907 6.6045395850341135 0.6582566595658922 -0.4233961559744386 0.191358980764393
Ni 2.4343404387173195 6.354718687538372 10.470102706960807 0.6933493895039672 0.8643164368755695 0.6003888407148306
P 2.401374828604792 3.7381993859143603 1.4954029554001398 -0.7513802162954543 -0.4049932279872186 -0.6871882549985778
Ni 7.982251018963148 8.390830449395207 12.989448126046433 -0.19515804279550905 1.5116471935575773 -0.8094089862044126
P 7.3513403885054585 4.782589487944843 6.8762034659235 -0.024592087517067325 -1.762519756306571 0.3544602522346734
Ni 2.4833968505948527 0.9238864236151804 2.0718307284198705 -0.507096619617888 0.3957372566065894 -1.978051991883058
P -0.011224360906377765 0.5242614683648775 2.7139507863252232 -0.3129253662156804 0.48225667775607267 1.5099947455558187
P 8.023756700778101 5.330068751246279 3.001447866816787 0.30091882867310754 0.5640504112951125 -2.370141881545047
P -0.13596354154961537 5.422450860219611 10.295755509808766 0.4586120417539392 -1.714592593607989 1.0041176001673286
Ni 2.425557698310783 0.9110389824147571 4.23171566280934 2.8758380212709826 -0.4626257908990226 1.9187646669766505
