# total energy = -340893.1920700375 ev
CRYSTAL
PRIMVEC
9.07820795284395 0.00000000000000 0.00000000000000
0.00000000000000 9.07820795284395 0.00000000000000
0.00000000000000 0.00000000000000 13.28687497831349
PRIMCOORD
 96 1
Ni 6.552360068014381 1.7010655462481943 11.44581923489077 -0.3955829904169123 1.3983096237739852 0.9768281683237565
Ni 4.707286907465038 0.3994502324191441 5.909390535930444 -0.720665560820417 -0.15536662183018404 0.24970168236934412
Ni 2.785938642877475 1.5471808415883705 4.57505645246748 -0.513593025975509 0.3304641464303921 1.3295022751922845
Ni 3.5577497348938114 4.102986910391954 4.956150548209014 0.050024668657559 0.7642046217536322 -1.4199858231958382
Ni 4.95870787941677 4.682739432897156 2.410278762474822 0.11984297500227747 -0.6916406343429766 0.5803038970394974
Ni 7.23281715242103 6.083053024648548 2.5969993456524074 0.006127967274608801 0.175249219686724 -0.32889603061232386
Ni 4.897956511144484 4.552149410094279 11.555914295199397 0.18965279670656368 0.03419978581016045 -0.8191706935768667
Ni 5.632919156684846 8.024627536772071 12.48224828990149 0.39521480844421614 0.12077345723634685 0.1287500476839202
Ni 1.9192511985279541 6.496392915384577 0.520030623025813 0.19037373403298824 1.1134797302429404 -0.5148294694857714
Ni 2.662039259407634 1.5037960853162156 0.21969081917449157 0.11285523083053468 0.912904630196918 0.40605612203409425
Ni 0.5320247515018062 -0.025989094006261808 4.571562250188938 1.0576106869894624 -0.26752816902780374 0.39298180534863936
Ni 8.698993143577 2.8962297924799882 1.4145609314654572 0.19982845168798488 -2.596847103019218 1.2026023933432257
Ni 7.044979949653264 0.6286141616940737 4.947474504775388 -0.4112096412105756 -0.04539591163629601 -0.35942736643196166
Ni 0.9364625514237588 7.309337368076605 2.5579094896088272 -1.0100635333381187 0.1632408823719382 0.6645720602609587
Ni 7.697512466097336 3.8455561647109544 3.8481180350227358 0.7790296025816067 -0.028408375939363975 -0.25593943574893985
Ni 7.619766692354977 3.8662544790655295 12.73388895448804 -0.09472458266809493 -0.7691943616587398 -0.9608271649098096
Ni 7.749067609614718 8.822438616644328 7.3205498628394725 0.37025890982982684 -1.3113878249797608 -1.9698432308200204
Ni 6.821674188033162 0.7710848353723156 0.642085314619843 1.0099298359737316 0.5378161601889319 -1.156995394137388
Ni 1.9811918120548246 6.539813984488933 9.291046637990293 -1.2551421151131543 -0.6984095776356939 -0.6020549155633438
Ni 0.11654512712833186 5.083860055597547 1.2989290720669806 0.25959143067923035 0.8589184057884499 1.1008594703757686
Ni 6.428496997376741 1.9376527262458152 7.1646679524085926 0.2594294511800693 0.47963543808314174 -0.8123989220706718
Ni 3.5671910712660733 4.608815584743953 0.31781535434805686 -0.9584671493180654 -1.1693986528977474 0.45368349410407033
Ni 5.915886901611204 5.440079861281389 4.641252022107504 0.07386985070627279 0.21488097514573315 0.6962822468800459
Ni 5.362524729908086 2.8590454523061557 9.5265834693165 -0.3985312744119588 -0.09077536821235979 -0.1201903310393672
P 0.0694655401797243 5.558005783854165 12.486659391193108 0.45603399661411786 1.2092970317545817 -0.4272273567950707
P 3.958924826842503 6.557534646603026 12.80988989664314 -0.909335424788421 -0.7919920762795456 -2.469494449903457
P 2.4343578015073106 8.505409435113425 1.4608915662499191 -0.012395545450875426 0.7508310286602038 -0.3217383365216201
P 6.144221990491147 7.8116618541212075 6.001681414610918 1.4772900562339462 -0.30904608576593223 0.11856693650333129
P 4.647434281789725 1.2015371482830708 12.5590998601509 1.010622491165382 -0.0807912604164544 0.6736377700076527
P 3.9010875633543467 6.091777182584839 8.184209724804234 -0.1125055608005998 0.5937137426875001 0.5724342644834335
P 4.66776038961424 1.1082222477345292 3.6173518020269366 0.9823789229386566 -0.3980314519574048 1.1532546961480332
P 0.025445309344051707 5.54629489546934 3.7499816981787046 1.091828984742384 0.7648311995940377 -0.44102672457200814
Ni 1.5776745424291674 1.3377647382851543 2.3809815694550482 -1.2798398749701507 -0.7862196925721427 0.45519067477721603
Ni 1.7463476480028521 6.3945444992687985 5.003677690814499 0.6284146365037951 0.583094572410757 -1.365315685346468
Ni 5.888343618386739 5.650857695792144 9.099848682602325 0.4911141281467026 -1.6652294697938288 1.796080622981152
Ni -0.47940473418012974 2.191769925988473 10.142628851965 -0.4719375552182517 1.1963607833088878 -0.625955119219709
Ni 2.3674786428011028 5.024143603042988 6.875612361163734 -0.09921604278054524 1.663751342586406 1.5602950364722676
Ni 0.5650912165040445 0.1577910575838474 9.079479907199975 -0.684927226878543 -0.24600520735436343 -0.17774961751107454
Ni 1.1693185879127261 1.0360051026947734 11.313349115200685 1.517207461254174 0.5987379353749689 1.0300219787379163
Ni 4.225070652251745 6.955686695270983 1.6475994399362346 -0.09519175211250057 0.7509004484455584 0.5676741240906288
Ni 5.528855657804805 7.708360924717388 8.304642140619684 -0.22144962950218638 1.6990456470123256 -1.0857894634165237
Ni 5.54237310959163 2.788144647433686 4.916063904921516 -0.33631057790884017 -0.2536269855656793 0.1678747815995238
Ni 0.8015522094097669 7.49170948959812 7.048713816624332 -0.2076921707067778 -0.24440880940152102 0.10659279486059062
Ni 5.007348918150022 4.716964277246607 6.891716194424077 0.9039769886899851 -0.8632841389563133 0.1342450093602204
Ni 8.402734902065074 7.1489799010769515 9.064213084721864 -0.5617294764714197 -0.025859898485897394 1.3031471822375236
Ni 4.7041004564394 0.27352277727087665 10.575847294868668 -0.06975042922126051 0.43384923298696254 -1.2968014425251537
Ni 8.004573775189066 7.289256371869448 4.781879819551544 0.0370951050800845 -0.5187537442408421 0.2813491340712961
Ni 7.345087351378498 6.093039053503825 7.095125247460441 -0.632443298047214 -0.21137167644089405 -0.8653865300112967
Ni 2.330730056613682 5.217718233298514 2.6704093672299662 0.11017665555710703 -0.19466079144411635 -0.21417880687238594
Ni 2.2156183785364854 5.4682223062371715 11.63147675990567 1.767792574669736 -0.8356162407273997 -0.9742804622012382
Ni 1.230523866587526 3.3290605958999095 3.7809928568783664 -0.6739573581306006 0.2756315148612285 0.17465092398109275
Ni 3.690037382602085 2.58304977116239 2.3900034926153886 0.3463821032122293 0.9497061152959839 -0.0776354883962921
Ni 1.0704659804535306 3.363757507067973 8.213946303093639 -0.49313784344495076 -0.20725199784556564 0.012398116554036713
Ni 3.771650472973852 2.586399629932933 7.168056847473752 0.7180852016877505 0.21612667462737617 -0.14254067371010934
Ni 4.102151715251331 6.827184660319664 5.991357676416171 0.2331841443302952 0.57465466917352 -0.11480438413710552
Ni 0.872921449817629 7.308810832009691 11.48670294484508 -0.7382454786857092 1.5631921555144044 -0.5394464967035033
P 0.13332801035083297 5.39223770485656 8.02478095848812 0.8806568259068058 0.9618928871701629 0.2607947069587121
P 8.570581890706185 1.6721968446483928 7.782521714100702 0.10345064968718311 0.1317960335990956 1.4430745866945016
P 1.5729266396188857 3.1397708798441024 10.41572767691993 -0.15190206032035128 0.38651933755274726 -0.5040892002501318
P 4.022608456315021 6.174633987459491 3.738129189748296 -0.9800345910761962 -0.6926161108823684 0.798662803431502
P 6.879175557823459 4.026430381904178 10.604334711730358 -0.11610896188114196 -0.38007152504487446 -0.2721450989745249
P 6.494050737707612 7.617851190456374 10.378112121863712 -0.24508012443693275 0.57590653930275 -0.4848460357498038
P 2.481264902502963 8.374855725142748 5.898402272906419 -0.8776645760477014 1.080585807728397 -0.49279922915860935
P 6.894072897233922 4.173597212606815 1.4575698499243317 -0.0002982479667091638 -0.2508797618378453 1.5916136440798911
Ni 5.364013556028327 2.9692548980362163 0.38705484714732985 -0.39593883109443423 -0.578553490007294 -0.35009631883902287
Ni 1.7512498803499883 1.144689409472392 7.140246664932609 -0.5763454266123816 -0.3482106717805358 -1.4847434271881976
Ni 6.957747448498391 0.4402495150385873 9.283260258945594 -0.655950894250851 0.7568157854887289 1.0306464996957927
Ni 2.7783129481152633 1.590229704162666 9.273973252110187 0.37025968116077523 -0.37515351891796683 -0.22360447106166004
Ni 6.413372702765022 2.2669828796848117 2.6935152223594683 -0.193928284153466 -0.8963773219658562 -0.8389075098841616
Ni 4.004361258134015 7.014295606443412 10.451163554223283 0.7825514996919362 -0.4494545436243872 0.49199575942070756
Ni 8.175752466184619 7.28321936351603 0.18489767900109524 -0.41437415498148633 0.06046283327174748 0.6386031470010227
Ni 7.477456702959225 3.739858588381869 8.470609032373588 0.6611098127439711 0.4775854975326485 -0.5885136865437993
Ni 3.1295851304117193 8.632159375911044 12.372419221088734 -0.5331002427705013 -1.4455577581276717 -0.12580330635077044
Ni 0.20586380049315256 4.8742169970930735 10.230867218571841 -0.6141974644631487 -0.19014413452068543 0.2630475075486308
Ni 8.926819852806128 2.193367690605317 5.713090627618232 0.14203236661512314 0.6311551753634097 -0.06716518499258756
Ni 3.346163939866585 2.581887760531958 11.349130872230754 1.2720337486621707 0.7766492752748883 0.9960605341908071
Ni 1.0272537101343304 3.6585541570838105 12.607916108299522 0.23695826666074674 -1.82209787298052 -0.21001773351616085
Ni 3.1171389071748234 8.352532411547179 8.131766732539537 0.7473944921748289 0.2482752343354627 -0.8495737313487562
Ni 5.589343758043635 7.757092745531141 3.8243748896881065 0.25020150482389814 0.9896785419238633 -0.5285560750432445
Ni 3.1498295343637817 8.43035081095394 3.6356207879072637 -0.17183916556391052 -0.7855974856071115 0.0748342715020711
Ni 3.4078775981921985 4.219660040253794 9.175185099928147 -0.48852219904981026 0.019885168959701237 0.56878844020073
Ni 7.156151685436651 6.009737416434711 11.65729336795898 0.034786511551565896 -0.20395404382058424 -1.5276967908212722
Ni 0.5886564289608891 9.051227615926784 0.23366853610946478 0.8496927734251237 -0.1459224456981487 0.7870324182814252
Ni 4.730282008456327 0.29134148403191157 1.592392133320236 -0.9653859879250857 0.20242449454993525 -0.3004984533062373
Ni 5.793957489288268 5.6312850792358 0.27861655980787314 1.0186366197191101 0.9199669363603381 0.40608131884507487
Ni 8.146684044007712 9.092733183132538 11.425596618638028 -0.34272265208277103 -1.6362148277290338 0.11787968062831958
Ni 9.176343479275358 4.776008942405446 5.846597478667656 -0.2552444665644443 -0.37000719883033695 0.15702498336921344
Ni 7.995958555749375 8.845933019078382 2.605835165547718 0.13099359230245824 -0.6013332069059708 -0.014300218672756018
P 8.548167795030112 1.6191982660510207 3.556378017657418 0.24026316266426365 0.9354838010490146 -0.46878255452903783
P 1.9681645835027126 3.385354564019523 1.2860734216470187 -0.5960084522589477 -0.07804789334336236 1.2768612519578009
P 4.883540316760683 1.0463996509123121 8.379686239646288 -0.5581296749353033 -0.9163115989959381 -0.24447900051782412
P 8.59959584363479 1.7045788127636419 12.819615380927376 -0.7227185866947038 0.11749658625728797 -0.9983855827795579
P 6.400118519011653 7.804662555714462 1.3967830766406486 -0.14103426436791194 -0.08590698437646495 0.48076852324632047
P 1.969726035287356 3.1667876270016526 6.0733111995898215 -0.9875278141294477 -1.6961151036290916 -1.336058074032931
P 7.054203409032319 4.025567952139403 5.946939820067897 -0.5983430139293953 -0.12921156070137102 1.3361107816477378
P 2.3405980687643066 8.629072785173959 10.135852877476292 0.37420118230702654 -0.666140433189343 1.361572930474584
