# total energy = -340864.0359333298 ev
CRYSTAL
PRIMVEC
9.32038526410446 0.00000000000000 0.00000000000000

0.00000000000000 9.32038526410446 0.00000000000000

0.00000000000000 0.00000000000000 13.64132595300011

PRIMCOORD
 96 1
Ni 4.42029533361433 2.92118589377172 7.868985219781596 -0.10615982108823008 -0.3232054079854499 -0.037746622621154344
Ni 7.901785520329302 5.632961366792742 2.1268057119686987 1.3508421743206414 0.7212967666465127 -1.1885014351654692
Ni 2.6403067572333976 2.819164954411869 2.3897421744378042 -0.5031679739874431 -0.19387094855296932 1.103361925082648
Ni 1.6045229995137154 2.8646577558932718 4.985509605623429 0.22376233679576302 -0.7683320136584445 -1.0167656279486423
Ni 8.040258487264191 2.1674556411596413 2.366429094260498 1.5572593349697372 0.21806631485225023 -1.9716430030329206
Ni 0.5606053413939472 0.13186294955922756 5.346404251425805 1.5136747655105673 2.0556471139597177 3.9209932561059118
Ni 9.035871383606114 7.533238838055664 4.705807633770028 -1.6483931149627806 -2.212067630975713 0.9815142609455161
Ni 5.074483869401705 6.588664372550078 5.005848550797105 -0.7277011275109597 -2.010427837110602 -0.6148762356977281
Ni 9.132076402432387 2.9993466463271483 8.603011245470537 1.4543756135296178 0.7047432331632056 0.8910965331828911
Ni 3.3637550774518936 5.747369098442859 2.011208699132549 0.15703218245806502 -0.6478503766309036 0.03799164875242489
Ni 8.136295739151997 8.101223128626588 13.470018674106669 0.7626691589457124 -2.6924941975015826 -1.5719341633730928
Ni 1.6508639560729317 6.772434412871491 11.15669527217986 -0.30840973773351404 -0.10091245664636168 1.7049771820054118
Ni 0.7566149119151921 4.472619977645594 10.286378181794666 0.9869251475484422 0.37495862929834134 0.00426520303425717
Ni 4.851363161623934 6.628788632000486 8.480716603635303 0.002945455781569121 1.285302954967251 -0.43516538069522476
Ni 4.986713799426214 8.008755584373976 0.3492367076559019 -1.35189889771993 0.36510744753587443 0.9963158447347228
Ni 2.2589072633959706 0.9492066970844126 0.317333960229003 0.6786439649729925 -1.0581282500558293 2.1004701838116793
Ni 1.0545643344426952 6.208196917259699 0.4684500300545968 1.2648140909852796 1.7696160010317201 -0.7611686631407858
Ni 0.08984199166557784 7.504867584683528 9.15709511315079 0.9311298949556932 -0.5732860709607676 -0.649318476535998
Ni 8.318276265463078 6.22809594023917 6.912046330910874 -0.11417832051733239 0.2822379644341526 -0.17384359758844897
Ni 3.3129030543249667 6.034418330162638 13.001971284704396 0.5827022220683449 0.1690207222785089 0.007411204862406592
Ni 3.589271124295578 4.220102774093935 10.370668019835481 -1.8803331024733294 -0.15356196452127746 0.436103576238778
Ni 6.461664800129346 8.404806724170994 4.30019657459594 0.14905713467238846 0.4846611734325073 0.11706129849208227
Ni 9.341356337786499 0.3855069877142667 11.864174975971787 0.1450886369429437 -0.25728952201893107 -0.26903252148747214
Ni 2.6423106401095504 7.907974256281698 1.5734180770830897 0.05120789033238278 0.5835658556202208 -1.6592030610940907
P 8.325061506085586 5.317671367097415 9.19848228483245 1.369432535728319 -0.5867200849784864 -1.4455826978283361
P 5.6035089487060326 7.805990598463729 6.588051091186121 0.9317171349177308 0.41815136263573144 1.3521534369328971
P 3.185316297619594 1.5387024373212002 6.333913072601146 1.4499797984547673 1.0840637389746683 -2.4148525941888606
P 0.9217786667218902 1.5334830214577329 10.117730466899104 0.21908010082874527 1.0736062910867703 -0.14447491461834472
P 0.05757761328242442 4.507496860076122 0.8154787383925425 0.5376984036641449 -1.7788927983479559 0.9836318215091513
P 5.700142705263947 1.8325462300489577 9.305649009010551 -0.005988613483267105 -0.5984471436074273 0.09593994313243477
P 6.476372368401759 1.2293215620141562 3.2289841676258773 -0.4998273396499843 -1.5549070326874768 1.6553500058965875
P 4.585387321452906 0.7858986310248867 0.06924580385291573 -0.6486445903974248 1.0140788251450987 -0.7042030443890194
Ni 3.2340246320883117 1.7757478009918652 9.967675988978598 0.7223768870845688 0.3207186370078541 -1.7787663000724203
Ni 5.1648729676944 8.883762692727913 9.940625434227629 0.5834527270811242 2.599217145913291 -1.0188222533673552
Ni 6.857846425322951 0.131442600174509 1.081919665798548 -0.13550613546083115 -0.27124392731649416 2.36054241078207
Ni 2.261106874367003 8.892784825863338 9.86600736018953 -0.9350109751776541 1.0388881708792947 0.7475035069488675
Ni 5.875039738617465 6.909956700488393 2.59243818949557 -0.4407215346267636 -0.4515435649429321 -1.8081110717831248
Ni 7.554498637313824 1.7378231525124908 7.740470152683364 -2.14981865233782 -0.4817792238990219 -0.5965244726634179
Ni 0.16235179451025494 3.0448580885794914 12.47276911807613 -1.5950208699892272 0.1817721084069063 -1.254859036655097
Ni 7.401700237910808 0.8580840844551911 5.528761321309894 0.4933916113269696 1.2901363718001524 -1.3720190655085727
Ni 6.296908346167708 7.2944505623020195 11.100983600068625 -0.8985028529492912 -1.381137482870073 2.0731193026025525
Ni 3.7763499014590107 8.638319661748348 5.463432875470219 -0.4432625558810624 -0.7834907236767539 0.6258659019400125
Ni 7.693838400097468 0.32734778237848444 9.568831529656077 -0.7442855142322021 1.892430657067812 -0.7496704326931991
Ni 7.201992338434878 4.124028240664249 7.674405396391522 -0.2440835648516183 0.3474869062406338 -1.1503385509425026
Ni 2.1661228260373626 1.6993858828322397 11.918427075718345 0.09238565012227316 0.9774277495809681 -0.22314501492673824
Ni 8.680252075980029 0.1636165708185988 3.5631554042072984 -2.728526922755423 0.3900080674322961 -1.2977990305517328
Ni 4.974010114029953 2.5478764945226677 2.3063797147513028 -0.14075015746858985 2.1926244346494363 -0.017195023722047807
Ni 5.550597120390129 0.600246804876984 6.874873837538967 -0.5878277162203682 0.37864867655541884 0.7612751068116631
Ni 7.22856475741121 2.0853244043937895 11.617730935592691 0.42639946157713665 1.191914060391444 -1.5099078422689673
Ni 0.9229437149057 6.25872272689516 2.9035293555364468 1.0175374731176605 -0.30533315569071934 -0.3417338058069405
Ni 7.093325964234576 7.031447925096073 8.961137736788181 -0.0329168053326788 0.4148012152165759 -1.2444717798835019
Ni 4.224809568756526 3.503803189531295 13.171532397376065 -0.26913408006234296 0.34616613054668127 0.5492143747235445
Ni 6.784569554754054 3.92767567995769 3.1446253587325814 -1.3473498448966665 -0.5297174423411973 -0.3490784190974698
Ni 3.3779127429815503 8.731728564933478 12.22056880763047 -0.6410513514311992 -0.13128592673189649 0.006511061645640399
Ni 4.6355309952840775 0.45018207453246006 2.287350283736228 -0.09801713737643765 -4.210488673433425 -1.7656390186618431
Ni 4.935097504690709 1.710430539614756 11.656772166251429 -0.9823300719785921 0.1511240445037462 -0.32873096578936933
P 6.247090885828003 6.544485745420014 13.50334464439491 1.6621078934457116 -1.6610015477554103 -1.4091972172207665
P 2.323376369695266 5.07945163485747 3.9430114422108145 0.5375821898012548 -1.4911999814468189 1.3496311847316758
P 3.794245041562328 7.448097116782848 10.434837009722628 0.3758292048287527 -0.8528737422562667 2.0682928277481865
P 5.214373534928109 4.641663808923652 1.5782199396774796 0.1980433347631041 -0.6514959438032909 -0.2154481605031128
P 7.3096241498479575 4.128511346075548 10.79910097487258 -0.10452588502923289 0.2465806202418592 1.2093253138893558
P 8.233087942262909 1.4994822552614293 13.387842699490559 -0.20182208507924598 -0.41905973338261376 1.6954466168071574
P 8.675097902814855 7.551944851694913 2.558662976627652 -1.6510891737377047 1.6057629389970798 -0.5978051391480543
P 6.142217908514185 4.1837719115300125 5.574282083947708 0.07711329734423493 1.013803717106841 -0.29369891388590064
Ni 7.231165144957473 5.853183434689194 4.188596143049532 0.538074556056641 0.33014738652092174 3.628599948405312
Ni 4.351762539249906 4.278765280245123 3.8443299969650355 0.3951253340542034 0.5117107213511317 -1.5517391764824566
Ni 7.476347205143866 4.433875135244817 0.2954366466046622 -3.6430438917447843 -0.5565075659508479 -2.1798992737732847
Ni 0.5296793703643544 5.107440752425315 5.3451357469632725 -0.8207946023335347 -0.7698183683959838 -0.46380078504373023
Ni 8.826004263967363 5.555182750041604 12.056012741956446 -0.8038975694678799 0.18204593089358326 0.38005352732274544
Ni 1.7583000393911308 3.3769900248199725 0.32232689072553805 1.912631814606035 0.49885212022090863 0.39812992520848206
Ni 1.9425454193715381 2.922276378871766 7.328188493628055 -0.4558126246319311 0.32657972377432143 0.8005373947463954
Ni 8.05369848311262 8.759736323272264 7.112369375827856 -0.502438037799954 -1.557590235946595 0.4357546775397915
Ni 1.8383528301970655 6.963772606194933 5.464129108264864 1.272096483579306 0.6861981231711666 0.4701606658234871
Ni 6.47558945602224 9.343034007171184 12.361687832000428 -0.424184713314005 -0.22529342872830876 -0.42377745057325733
Ni 8.302431610163264 3.0944705004388458 4.743866495800177 -0.902133250613027 0.6784555031112703 0.16089757895074225
Ni 0.5841756642102389 0.5387853869690115 8.25041081069834 0.2067236361459214 0.11130228452111798 -1.100649925468124
Ni 5.520259265683723 5.139847732706167 11.635983046459527 0.22768789710241433 -0.30313691937034887 1.3849398873352987
Ni 0.040813035936675776 0.08275849870801462 1.3095691488764238 1.0459201380254115 0.6899851010174246 -0.07330652200363504
Ni 3.7158233182137272 4.382566413229836 5.964055944130359 -0.722281242046969 0.24819887257157255 1.519626355108312
Ni 2.5116574765843906 6.745209566912226 8.980303245431125 -1.372683438565449 0.4461267648027349 -0.4561352980786725
Ni 3.3733830356428975 0.29591012218656243 7.9117238473564715 0.07601852161815939 -1.0908067141254567 0.9067609791930256
Ni 3.6593231414916896 1.0846878202832797 4.1070213332962675 -2.9348818627080164 1.1113868522696537 0.417096696118972
Ni 5.4741606391467394 4.5605950961014345 9.340979794213492 2.1535081853742652 -0.5190278238378351 -0.6120631917289653
Ni 1.175803908642672 5.316180105422139 7.697514360127025 -0.7811021688399193 -0.3772265993969116 -0.10687921575275786
Ni 1.6719466680071526 8.612697922090005 3.5280697451422314 0.9863821305607787 0.4401749180946742 -0.04961046393827585
Ni 0.2909740460413973 3.8538116251041528 2.9584357463430324 0.9763064914923314 0.3098017329850342 -0.5183187135859525
Ni 6.281986409029472 2.2343760088376725 0.400859526661238 -0.3227873466114247 1.0307316032104312 -1.1616768587734574
Ni 5.337700875473472 2.2306385342640107 4.883868005952226 1.3761060910937528 1.0216766920970146 0.9521766883236635
P 1.0761969491196743 8.243135317800085 13.29118098177623 1.5856908508375531 0.30237998659966636 -0.3133305720738991
P 1.795693425898688 8.113749726698911 7.401811150497908 -0.5686850818536463 0.12033842658145728 -0.15827788193970804
P 2.2101336862289593 4.376265832651792 12.057854450125411 -0.03614945333736355 0.09845371069322398 -0.13516109341658658
P 8.143099620545446 8.15411631617155 10.762624714295319 0.9998007179595296 -1.915659031468133 2.0257225584861436
P 9.185836385826104 2.2701849298152488 6.388247191739844 1.2264858848290427 -0.884983735416934 1.5088894283067822
P 0.9435399027183621 1.4899941028524828 3.0586168416110113 1.0276750757722946 0.9241205535173955 -0.3632089449615809
P 4.032250404936453 7.67494597874881 3.312700801960257 -1.058275831377287 1.3418158024523148 0.3011918798288361
P 3.3359057656661055 5.0681180461253685 8.169694408446906 1.0029163807703758 -3.262024400964343 -1.0767939447861326
