# total energy = -381174.1904340183 ev
CRYSTAL
PRIMVEC
9.18264954102073 0.00000000000000 0.00000000000000

0.00000000000000 9.18264954102073 0.00000000000000

0.00000000000000 0.00000000000000 13.43973579971985

PRIMCOORD
 96 1
Ni 8.480388142702301 8.43567782160925 4.82573858130143 -1.0957141787294034 0.680332665529325 -0.7447889362311818
Ni 6.501214935376444 3.5399206185442917 4.820174813885066 -0.2708142959782433 1.331756361333784 0.7768238531795395
Ni 4.112366997049279 2.4637691767330394 1.9897396822656344 -0.9618309235839758 0.3120388498456691 -1.3507002494261382
Ni 5.217866187107275 7.2339260980336215 9.388515461416278 0.8354905137828128 -0.15727592303775492 -0.3179783552585556
Ni 2.5986163866840455 4.925701823538247 3.052190610815266 0.8975543729930929 -0.3586537214907307 0.3968063213010521
Ni 4.846786132539339 0.5008529323283434 12.230348097767829 -0.7559359539869369 0.08716785336675956 -0.627410620719313
Ni 8.220528340563826 1.8434995589073269 1.9259009837092576 1.4566160728243622 -0.06721686416612939 -0.6258671874915931
Ni 4.5662378207638445 3.165250147967447 6.277150019796362 1.2786761936793527 -1.0331528110574142 0.029609338226000616
Ni 1.4336503575628754 5.564511210985415 1.1759631703290232 1.7972836421503173 0.7837362640286567 -0.3236514943839329
Ni 5.4039066687965756 0.5422538264914424 10.015533408461804 0.2178400577740571 -0.7918357532073395 -0.9040484653578689
Ni 0.9322501393160385 5.560452479844908 7.184829225207946 0.3647924873986169 -0.7223167232705947 0.3520429010424324
Ni 8.642728205672942 3.730726895396315 8.004868304198462 -0.4841567229922629 -0.7737004770592095 -1.3781735151457426
Ni 2.8626267464594206 1.446212222269241 6.982359146784266 1.1734671665401661 0.3804551336365383 0.8837694033938586
Ni 6.90199167887741 -0.15121987425762162 2.9124040536233577 1.3855898622144718 -0.1512346019396815 -0.345127919090154
Ni 5.8568592275472255 7.943726549841105 4.712482535446972 -0.24745685219922542 -1.6455263349379468 1.2956665575897621
Ni 8.61086441142507 7.071457477968035 6.5435386858282785 0.24465100731931413 1.0582580907654742 0.4060661493364232
Ni 9.131015600235063 2.566100624311794 10.723780155950344 -0.23158466105365924 -0.9832001332883713 -0.02272289551881248
Ni 7.404907034314707 6.194560350676828 4.232442078525775 1.2787692676137914 0.1181020810517708 -0.9099668877248328
Ni 9.049409392891883 4.1455163622466324 0.9415843026742406 -3.356655909698 -0.8325491717663017 -2.0459712814328506
Ni 0.7303447938451673 1.0359314363917493 6.382383184661089 -0.7329428355258732 0.3927475778506462 -0.42102816996289427
Ni 8.923432622492303 7.70974345438577 11.612630338276839 0.15180281573832566 0.2849805601762963 0.6425248506529322
Ni 5.390022502542172 4.881331260481845 7.73733639828647 -0.62246176135447 0.2399425461000513 1.2257878303207534
Ni 7.859071702817726 5.916675007296688 8.481051130006248 -0.051332331725389015 0.3865324501788698 0.1599339294858923
Ni 5.514640240795159 1.1357284726700971 7.605774740376353 -0.6700158569843494 -0.4088863923940378 -0.8591104671945978
P 8.530286660841476 8.423005765107217 8.445355416063958 -1.404053725346614 1.8522206605078293 -1.5181585123135337
Ni 5.523051547864625 7.6052816320907315 13.272048074662894 0.8028927823524495 0.3456873911380498 0.16464573313926484
P 5.319407926817062 4.416643275492354 11.190959393786937 0.4327115198380934 0.4252614913179515 -1.1367811239730423
Ni 7.8889428620939 0.286600596152663 10.49905408959624 -0.19227326504854628 -0.6239193197366029 0.965850329156014
P 3.3969008504144362 1.184929109436695 9.246511294336512 -0.7689375084529273 -0.8527721836813958 -1.0060528695168287
P 5.031467582082046 4.5146772430399835 1.8492671811456811 -0.24718894324981944 -0.0999547207187827 0.5685801808446659
P 4.7327559893203 0.11510543149178486 3.4051588072349297 -0.8450282780699189 -0.8725575938384393 -1.669620913993305
Ni 7.770899900982549 6.063845333063442 10.873794348310344 -1.4174568861263974 0.6020675139688341 -1.3788648847858123
Ni 0.8098674579852224 6.168931575533944 4.735530986041253 -0.2645971114239379 0.08503435196352452 -1.1040412105378599
Ni 2.662555176121489 6.200859648329289 8.723934049491854 0.2985071339078214 -0.17999753300498675 0.48020545165399875
Ni 7.913910486462766 1.5075064086106076 8.660216561910714 0.15022364417666387 1.151299115083559 0.05964727934898761
Ni 2.9302845090007223 5.731782356812281 5.557398330574925 -0.19357989967511177 0.2516045558190118 0.7393618516783396
Ni 8.70714449289162 4.241107744990247 5.24409091621174 -0.11421560151317103 -0.267114735639469 3.507634172652501
Ni 6.265321848796165 2.139805297463614 2.991766021394728 -1.6565293709166697 0.6917787025827377 -1.0692724395981068
Ni 5.862919776309068 6.819834512555881 2.3862924069325877 0.6052212291064674 -0.7543464980126299 -1.1078528709744662
Ni 4.823590759550832 2.7329034550070634 9.097262934956417 0.6563653560804502 1.247383039993026 0.2324593503491287
Ni 1.4563774154197866 2.688679814344888 9.021610757639268 1.521781710888418 -0.1407992655389704 -1.6146674405755612
Ni 2.884407991403499 1.132900216581237 4.074309505619797 -0.2812462899448447 0.7757995256800833 0.051840638820375234
Ni 2.614419726713033 1.830368369923334 11.168151528613201 0.36182594857112527 -0.1107268716336222 -0.34264474765698405
Ni 3.0512200047484073 4.19743506330642 7.49931844657969 -0.5004618879101898 -0.08191277561540733 1.0394900661293516
Ni 7.631351174416295 6.265689154781731 -0.09446008030807033 0.692693243977207 0.01551352225456683 0.2662271908281931
Ni 1.6424913583062013 3.0900626127220376 1.9682357533406587 1.2278868789416273 -0.8525721518554479 -0.8474895951262178
Ni 5.354182621000547 0.6623463550022529 1.0588357193866962 -0.471990005722742 -1.472558969306864 1.7767891217413916
Ni 0.538851654800135 9.059629681940265 2.91020021770996 -0.5544977346096709 -0.9097110629602848 -0.4133318297599011
Ni 3.022441580779293 8.399902218615098 10.448373209707812 -0.35922604905443295 -0.15684526325823955 1.2975213514103137
Ni 1.9701558453802062 3.4441088522093377 4.81525566847337 -0.19841048829453573 -0.5988394939498396 -0.5777019406402761
Ni 3.467947010672587 8.256138655864472 8.213976520046288 1.8192730019372152 1.8325717759286502 -1.1379987984302273
Ni 1.1887215437376666 0.4501399131661764 9.387937872753975 -0.7477652452506863 -0.5399969698903345 -0.2547238181742839
Ni 5.644492089342464 1.049687045551205 4.9907517135820285 -0.21038180172379897 1.528876155841354 1.9126436416805768
Ni 6.507596876875658 7.6843993413817 7.486941153131072 -0.5531651318411764 1.0617445066521778 -0.17164350461333666
Ni 4.307296283589284 6.568027894150944 11.300130078816935 -0.21556206037315778 -1.5967247400542115 1.8917027777628517
Ni 7.894948314957908 1.8170351626472794 4.526086685216635 2.777696185391223 -1.1558684796217964 -0.06849675931981752
P 3.414090770538937 1.3928059319679096 13.695090907008888 -1.99886352931177 -0.7918604357976878 -0.64010492835753
Ni 6.85781395146343 5.7034997959236815 6.287256443989217 -0.11057131989236442 -1.0573571762177596 0.17993274120532238
P 6.3053582012228855 7.959768638760711 11.250913831545951 0.513788944036399 0.06889348053760393 -0.45767127510722466
Ni 3.2612914805433797 4.223623980077294 10.01539842351211 -0.05549083397845282 0.4111919005987628 1.1163416251717677
P 2.242136745042369 6.026508679630633 10.938708335139466 0.07947999780419861 0.3547011646008859 -0.5750598750317387
P 1.7936745019652665 7.063376746285577 2.774176710340178 -0.8224640196161577 0.34711049673782157 -0.012809493059842456
P 8.352593207674166 2.308325283641406 12.807168172295945 0.9019910686082079 0.03913193300445519 1.0062984098687315
Ni 6.316891609169665 2.7417830772081273 0.6110805403318086 0.6459382472098553 1.4231577931659167 -0.510837574717559
Ni 1.380418537604688 2.9840856532365376 12.932909866864767 -0.2961108657615029 -0.8655803911896578 -0.13735244464095056
Ni 2.9608994628976686 8.901669742847503 1.9799151654167013 0.6542369968835378 0.05937345686231065 0.802579879097721
Ni 6.949842466147051 4.041256558243655 9.559321009089254 -0.8471157567265669 -0.07755604130860837 0.5657776783988643
Ni 1.0553894709771208 0.764033180576339 0.8305853521010862 0.7246278879022746 1.543763871586464 -0.44526878767781375
Ni 3.8098905179354796 6.79155195166728 3.4840772530287283 0.09731496910309047 2.3496787285946885 0.6262076015501473
Ni 6.381023234249531 2.3610428752198005 11.318246528290027 0.6107349598358449 -1.3604053925290442 -0.9695627450105947
Ni 4.436064579479169 2.8791646984595407 12.366667286455991 -1.171125148670551 0.14680253431025686 0.765743684105978
Ni 5.053570219763495 5.400077503897048 4.796238401070678 0.8858285999157324 -0.0748350428330195 -0.3796830313572042
Ni 1.5916745752031118 8.399094145446853 4.9437668501733585 -0.2135918240206644 0.05853759122457661 -1.7010824749366962
Ni 7.100961331258643 0.5881698294821144 12.958701174906263 1.286851016180661 -1.1403878674876942 -0.1293776539655901
Ni 7.149427356054108 4.549718234063003 2.6009919381456954 -2.752153046814796 -0.05807016466985483 -1.2972351876284627
Ni 0.7214817004134538 7.7070804859904145 0.22916495918966984 -0.17809980176164167 -0.06459125361782425 0.9227545264078044
Ni 0.7986875820495499 5.505677974747343 12.34943696267308 -1.3718154341381987 -0.2689127080801562 -0.36976422958159544
Ni 3.0888872335682254 8.294265017166248 13.127396549692163 -0.8645794607289691 1.56229124096669 -1.6839920951133125
Ni 3.663895571322538 8.649468270508082 5.7161746072206086 1.279628530290293 -0.4679577446348973 0.6519623419167481
Ni 2.97111056929641 4.694868376909142 12.961670843799567 0.6608784134594554 1.1353240798115416 -0.3698423911176985
Ni 0.580685970026202 7.216809639106235 9.44383357937248 1.6706868933639745 -1.2988806936516857 0.8484223913531324
Ni 3.6536201863763216 6.678807379397722 0.9987912916612188 0.4239589704564441 -2.104078469988228 1.201985328584517
Ni -0.03171870838357279 4.232237305438822 3.2058475602871197 2.479708414321981 -0.5677378874490286 -0.35364598386349416
Ni 0.9195138042665291 0.4004039279256156 12.001281392929299 0.007697882864889968 0.5720465421267116 -0.5501366294274977
Ni 8.724086481475863 6.465209766141314 2.129445432140718 -0.558005233542297 0.791784845364746 0.8361374033381922
Ni 7.570745686797865 0.6030705150515727 6.6122699001123975 0.1325457672809266 -1.4623020674655463 -0.9434295382586526
Ni 0.6724243129812266 4.692526801251157 9.758068441349222 -0.13707965059553812 1.5992107397008588 1.0939696852344707
Ni 7.73226849395062 4.090861231594376 11.800437561756715 0.21981080834718272 0.9991581992795244 2.2671753705831343
P 0.7790853798648435 1.9264464330978235 3.4642803786716714 -0.44609694000606404 0.010930530869574726 1.1984490332964843
Ni 4.300335835162803 3.248004186515521 4.0104304034050084 -0.5011188047678983 0.8015226414778003 0.5877019892757814
P 7.050530219440398 2.705181035746451 6.746855404548688 -0.5546612567707286 -0.027194301026604778 0.28617432337408133
Ni 5.4804532361885805 5.16764627623073 13.284600756719623 -0.15669151128919467 -0.24500376267304255 -0.2578615924723172
P 4.6504243526556275 6.727594796930558 6.603439864219385 0.003752010843264506 0.6697458911524143 0.2392648033067363
P 7.800458850170992 8.231519972181895 1.0493022925313245 -0.2095914446120197 -0.2962540762075866 -0.027638330542558855
P 1.2342766685975197 3.4121073182168793 6.762565999816319 -0.6111864455509668 -1.2868756987710095 0.6337959554203666
Ni 1.6177900307768716 7.955076304795102 7.066492419308142 -1.1751892914375954 -0.15864195014734614 1.1539411806920965
