# total energy = -340871.8847704699 ev
CRYSTAL
PRIMVEC
9.26061364771551 0.00000000000000 0.00000000000000
0.00000000000000 9.26061364771551 0.00000000000000
0.00000000000000 0.00000000000000 13.55384415060251
PRIMCOORD
 96 1
Ni 6.753108174625575 1.9501371062387154 8.832633651465366 -0.10371573042311169 0.521338988469515 -2.0019848485495713
Ni 9.021699269815668 3.267024177044019 11.591234385296291 1.2242510819612529 2.2128165933265955 -0.2393257384516588
Ni 4.169174656736509 3.071467794448746 8.440724473484027 0.6447012894789607 -1.1293732615447454 -1.40622039398063
Ni 6.69599796903458 5.781642000292483 5.005055257682488 0.07698345663459 -1.3493915579170437 -1.8857337046636107
Ni 4.426869758241393 0.6574841358081606 3.1147815375313153 0.3481574499450972 0.5244235409321099 -1.2355886184612592
Ni 4.355201867683794 6.626645231938591 5.2064245275891725 1.3392799234043387 0.6824751657936247 -1.4375194612042275
Ni 8.46998893930016 0.7892145156509999 10.54891618048547 0.2842007445874783 1.640850269618516 0.4184200429160858
Ni 2.9605812042514734 1.8062734701342704 10.865723632294952 0.8481686234711134 -0.5691674208067037 -1.2629163597419346
Ni 3.674000373753516 6.31241408290119 11.893322091396856 -0.49449538591410963 0.016030828210617555 -0.6477778715217554
Ni 4.360582284328576 8.840293105177755 11.427598412568312 -1.6295579845341484 -0.2857925145546304 -0.4701352119021903
Ni 2.253412949095778 5.614913908601178 4.187067088749215 -0.5894811926633912 1.5724113601198275 0.5733256659494513
Ni 7.505051497728808 8.618844046267837 5.667119693099099 0.3158710791075657 -0.5503664860501167 -0.5557987128092814
Ni 0.944156624099941 5.803330357920846 0.3807168000865323 -0.6022456914179112 -0.8760319255402849 -0.7223077244095303
Ni 7.29148322120221 3.257365356802182 4.906220430344974 -0.30856837479856536 1.4809523355768817 1.0351189336448494
Ni 8.302232919471901 6.1253589438169485 11.857689101438524 0.051795130294420476 -0.3679181775117922 -0.20605232111050964
Ni 6.199295684766925 9.454808918799818 10.24625894663335 -0.49250098119190017 -0.8564038668967122 -0.14553446623111066
Ni 1.6622709248221288 9.248074975291894 10.216087866721649 -0.6942932414744752 -1.4862045851147565 0.016947169377299846
Ni 0.6682625642640321 7.055846901879545 2.4205809199447894 1.781553118788938 -1.6371440244115227 -1.0984197505860243
Ni 8.754687990781264 2.3013829288203373 6.706794918718145 -0.06578630236718992 -0.709582820643694 0.8555489750955847
Ni 2.061977539662171 2.7709516145179225 6.653202820327412 -0.04506423932849013 2.4833534672737363 -0.8438597116831145
Ni 5.37012810279823 0.29950584696017696 6.90640189380985 0.2752018835229777 -0.38661703947287607 0.3527047029961474
Ni 8.066078005773836 6.16980989027986 8.679434390542324 0.013805281314208481 -0.20219875169237433 -0.10561089056329553
Ni 7.144193157974582 4.254270437371446 7.388227927994584 -1.3500965544038683 -0.539650128073877 0.09625721726253746
Ni 8.799666792233424 7.9069250962089175 10.370927182356894 0.9717841781419457 -2.1267252608534664 -0.5977678581522157
P 7.306559500544214 4.670146083987372 2.9302601023954598 -0.5932941386515782 0.904882788333706 0.9435359819295299
P 3.3923943672971233 4.386132317930904 13.076816502173884 -0.4109545877769761 1.3668781447375813 0.0018211123691387991
P 8.330681525208163 1.2514515733663587 4.866236804001584 -0.00253176528291822 -0.09711493727714242 -0.9733967740447044
P 2.4113712394745046 0.7846703324365518 6.921867118933404 1.2868661856893127 -3.125047594495257 0.1497256214943228
P 0.937924230981287 1.417299906742252 2.5520807105028522 0.10389082254839527 1.083936983588817 -0.32440585605145417
P 2.5133398585376554 0.16980168942693868 12.288132619696286 -1.0830584376386057 0.33686645041231017 0.9973993076068888
P 1.5828704217027525 3.4746841819365892 10.01474545259512 0.6044082462868687 0.9237680552739833 1.4006375005762137
P 5.120999069101302 8.12038224536936 8.44469542470138 2.493392596677293 -1.55198600238594 0.7433591457631908
Ni 4.6978167981605345 6.578971591857118 0.3800454055826655 -0.6630803062067806 -0.1685869771752 0.6868540115876107
Ni 7.680160444951142 7.120856411081553 3.2771302849346386 -0.7016715362164174 -0.8226000309733899 -0.7769974026429264
Ni 3.9055620229837475 2.2511904017726323 4.9833826430976655 -0.6097617972892982 0.8656922341771738 0.6333323855203866
Ni 6.006304492207117 1.3042000298356808 4.907277992446237 0.12885931956827484 -0.6641593982035723 -0.015533576859224858
Ni 8.130911563312761 8.610750269766049 12.520160077802991 -0.30038198233303104 -0.5957562270388256 1.263956370970675
Ni 3.1653611582378005 7.907184393396618 7.322003426255922 1.2573427223088989 -0.06498437529118485 0.675103813030218
Ni 8.815409835772371 3.287592000396962 9.226928363573549 -0.01744647761122157 0.40751136642338204 -1.1902461857707178
Ni 3.9953714560665228 4.18381568722773 10.36264634145541 -1.2257613479581921 0.7033730922885564 1.439312034328276
Ni 1.69163633132919 1.2244568840039862 5.0168745791347 -1.4313495849480897 -0.808730214969833 -2.3211459112623185
Ni 4.593523765021927 2.7417065959908653 12.329023786196625 0.050800884701951224 -0.9146807482607345 0.6151716554509599
Ni 1.4475543321785715 5.184434273949416 11.357565946415994 0.16815040385841362 -0.015342801004657448 -0.07187004666742461
Ni 6.0276224252816215 0.7905582307201183 12.614400714611287 0.7853331762021314 0.5744111857041462 1.3201509158843716
Ni 0.18278692216241685 8.783229202655994 3.696539781794367 -0.38840729860407947 2.54054637154496 1.2974755857740428
Ni 6.99218018168527 3.0712084972610456 -0.1606309035348092 0.9268533790675263 -0.946101685774177 0.9224259394237919
Ni 3.0502517281265518 2.874864962488825 1.376650442263304 -0.7835498590494634 0.6203511427693703 0.8068949615333072
Ni 6.146612052594529 6.907723383405736 6.795491226016577 -0.19946361214939842 1.0716856770252898 2.6421111170633402
Ni 4.963364900207201 4.636520795110948 6.326812485309635 -0.7234580359638896 -1.2193618721897517 0.5805422383025486
Ni 5.140927910098841 3.069578629224072 3.134678892441776 1.170550250003687 0.12190705662015777 -0.882856661771602
Ni 0.22979379804694613 4.568890532190396 2.6341084497704634 0.4977306050219557 0.10029822010113049 -1.3518950410651878
Ni 0.41742494731243573 7.980204333575797 7.946984659585848 1.0221430902104718 -0.4254998325810027 0.3636979687828575
Ni 5.068880334373538 5.491599574621983 8.715908244237912 0.39438691322628205 0.18032020645172817 -0.45568226970165393
Ni 2.9362257898353366 5.372100613547522 1.768980052113272 -0.00968251739508655 -0.6921512554308079 -0.0647671170740562
Ni 5.213938589664173 5.606709004733231 2.52485080154878 2.2628114371874832 -1.3141846709986076 1.2648619135040795
Ni 5.682349698630953 4.89133584570959 12.056808968241906 1.1170504783133344 0.4895149019803828 -0.5775867552186504
P 8.331227901425104 8.10713956756895 1.3491140069909147 -0.5871643716047564 -0.09848224993831427 -0.07439564130275575
P 8.439753035091533 4.594181268605024 -0.1961555443111376 0.7906934120727801 0.759817291319214 0.7627627471007831
P 9.012531262107693 1.1359717187012521 8.5467020122813 0.500428463569093 -0.6239229192810286 -0.9375687086025014
P 8.342507329090068 6.427930980021682 6.418219374280921 -0.11512217248784044 1.0445988481108268 1.0858424281416459
P 1.453008833734125 6.7555992797502675 9.730155676357404 -0.9307457721433972 0.7083767161507349 0.25745278706967273
P 7.296678425570063 4.717810463454998 10.215180326564699 -0.4454893883290521 0.7126095232851599 0.21147991988398418
P 3.16104571218536 3.8674082939364154 3.5933135713708695 0.24686215603802 -1.2913465900581698 -0.6710432698075991
P 2.908684724256024 5.8672193328474345 6.376080803095465 -1.7911039957021668 -0.9251150562201809 1.4859485032398922
Ni 0.09416840402029415 4.5267825210306345 6.883658752264378 1.2021527074003169 1.1568200449017882 0.447948648502822
Ni 7.065653891942924 6.159623215048777 0.6966306026598317 0.805138898074149 0.18038782646486998 0.2252921431767281
Ni 5.144706240548188 4.014272368927107 0.7134969586583528 -0.412513961844296 0.7256856397428276 1.5880593510697296
Ni 5.6856001740910544 8.595229480959414 1.3149182643015502 0.18599385979773772 0.021939480385568665 -0.9357424540270399
Ni 1.9534616666095872 2.9349756069660673 12.433971544734174 -0.20893452775431112 0.4959920250642942 1.7069294206357761
Ni 3.6238911922304293 0.73242843154463 0.6597983632083859 0.41213369568674185 -0.5262261413584872 -0.9280422571693049
Ni 1.9384594721783546 1.853937849601897 8.720232024842815 -1.687151980898533 -0.08857990322293777 0.11876079768169226
Ni 9.151940542952 5.619155269742847 4.623989332453945 -0.43967946651549444 1.2175119634652065 0.4529242473405425
Ni 7.035223514843523 0.20694323338085552 2.9631547288393993 0.4393030570126822 0.669505235896518 1.2839302429894404
Ni 3.842376854709488 0.48477831787897835 8.921479054646726 0.16423487085409136 0.930671724372352 0.0956200978991708
Ni 3.7564476188283717 8.971043712075643 5.126714719967325 0.06781824519555417 0.4819558586862023 0.1375679030858663
Ni 8.058521344875139 1.0081937688480733 0.9751046695133587 -0.31267365521619056 -0.6245376700468921 -0.2689173360658465
Ni 1.5620896042313412 8.015718787676894 5.849798266079511 -1.5075997629610811 -0.45606047897667906 -1.9784219736279671
Ni 6.228105454443201 6.858558784494988 10.40763162533726 -0.28979520795612024 0.5647880607920853 0.5358243265698837
Ni 4.079244835673729 7.4767973648833195 2.8279821788298385 -1.4103570418568228 0.7798487560487924 -0.752491189971446
Ni 6.87613542957553 2.7006542948095964 11.141423219240085 -1.0367909220306337 0.24129520347320377 -0.9100885009043617
Ni 0.43452281865711784 2.8144394571408045 0.8891809900005502 -0.020889441854499508 0.1241259186483475 -0.6159483857159844
Ni 1.2452562227030903 9.151959064179692 0.9072401130624927 0.0706801401243815 -0.343846224164253 -0.5903651379302414
Ni 8.00745832012587 2.590499293106193 2.85427676578542 0.5895884076652169 -1.0688854885723333 -0.8300042938572609
Ni 3.552001046940516 7.361623110475145 9.622619576249773 -0.5710381554668552 -1.1519442048667259 1.3429326896655776
Ni 7.61513241452144 8.712524415938423 8.588258090855815 -1.8850806444606438 0.04719748362140904 -1.7802513692583792
Ni 2.3142459214530424 4.5751970102198225 8.09843551661468 0.15192545735911903 1.034808344382966 0.627324745873726
Ni 0.6138045984786572 3.4919181843048137 4.8434658806145725 0.7388067505058179 -1.114728772158693 -1.1818394497642613
Ni 1.3042555935187594 7.499930378271727 12.055900502023572 0.4636398339858337 0.7846729169103132 0.5024352095864766
P 5.742988198097443 1.7861131137905704 1.2472898535037684 -0.669301347415828 -0.7392847185835011 0.7307576549490964
P 8.496140912802506 1.5575056003773533 12.53633003564026 -0.3455495800086049 -1.3377544878987475 1.1760668089465423
P 5.779039767801633 7.895951268800886 12.647905615507709 1.312096421011011 -1.1917299694050958 -0.13122704846950303
P 2.5744413886964663 7.2637384221182755 0.6929013534638703 -0.35559719405259405 0.5712649267656806 -0.34759746367656913
P 5.60595889501167 2.438736353390735 6.923642378607767 0.8117744011127954 1.3733987194649186 -1.082868947335619
P 5.783938632526399 7.978537423083438 4.055689538293925 0.24438824057623074 0.5889937115040115 0.7427030002364305
P 2.2455692091678436 8.130874520857375 3.7009043091001943 -0.33657565864476874 -0.2887541682861156 0.9301603319535722
P 5.044626786709711 2.069413812580862 10.28323379953803 -0.7651692996597468 -0.27280664381792374 -0.6596658812085929
