# total energy = -340876.17571658455 ev
CRYSTAL
PRIMVEC
9.18395677738554 0.00000000000000 0.00000000000000
0.00000000000000 9.18395677738554 0.00000000000000
0.00000000000000 0.00000000000000 13.44164907228241
PRIMCOORD
 96 1
Ni 5.333729800816645 6.194716558128126 5.425573959863605 -0.4646469350941095 -1.0212342052429575 -1.2017323320334465
Ni 0.8542420595059627 4.228872257111186 13.315149318833358 -0.8777805328002753 -1.186946946194156 -0.8334380021291582
Ni 8.504040839981656 0.2733935336238526 3.137334205817686 0.7585029433831646 2.319888898926766 -0.654737333558724
Ni 5.06855223486275 3.608468429692626 5.656461386661094 2.509445279264781 -0.39658572064981373 0.6093938724269183
Ni 8.11608295681374 1.7318095322560099 -0.04953918087247715 0.9402765944519679 -0.1777539883864487 -1.2329822911866637
Ni 2.7739773874804383 2.92568716832107 2.2802680796243635 -1.303448515528026 -0.7781454002044405 -1.2430563875932141
Ni 2.4722752257033584 3.058312687124845 8.399027805412729 0.30336240511759366 0.9068602237750509 0.9667846680448254
Ni 7.731559873454191 8.59386912053146 11.944827669724749 0.54392690107236 -0.2486799259730491 0.16885642878650273
Ni 8.427483376873266 2.0392700348882915 9.092456027794547 0.33697700784824547 0.7524356541431623 -0.5709998460297521
Ni 5.4074402373459085 9.043763607730444 13.263843144690481 0.5885689652617669 -1.642310141993494 -0.782515247137362
Ni 1.4054025269374748 2.9044814122849285 10.943733224080415 -0.2206541301840845 -0.5635701292245842 -0.9170942427982334
Ni 0.7057485003040739 1.3879438252377327 5.081319771476627 0.4272852066161997 0.3361861365158339 0.48250504632145286
Ni 6.278070149199593 9.012510603056997 2.1982066712615516 0.48191677791815063 -1.4485566928549956 -0.508480387339292
Ni 3.9235975361751367 7.37918982252536 12.079929183256693 -0.17757092584136516 -0.742267969581541 0.08195262771440726
Ni 5.906808699324751 4.150790257189456 12.415836073392807 -0.5936286391728616 -0.9121368987929581 0.7044596404845158
Ni 4.36495094363674 1.0079025127511312 1.6088978844610815 -1.265670268337988 1.278041131198515 0.05943773444134279
Ni 8.40119889277823 8.88960171044908 9.165577772698901 -1.6787071925652897 -0.751723458567486 0.5278359090477684
Ni 5.02265081924186 3.9436093778393864 1.5037976023034387 0.0808452535828414 -0.847701711137024 0.1006337490636783
Ni 8.469968360599202 3.4285822696753465 1.5398887153700598 0.05382527335057182 0.028125297481306405 0.8676377879393187
Ni 2.6787856762138276 8.700375466460923 0.541837832978378 0.23675514951100518 -0.18883672856317155 0.26906208917382696
Ni 8.998697932169879 6.4749282612111525 12.806168009369445 -1.0789873528930256 -0.32776603077293875 0.19693518930058987
Ni 2.0819386977483663 1.0177752662110064 7.471177251296948 0.3650244009037649 -1.156645209886821 0.04006961432737615
Ni 1.2572469373423985 3.889616896359752 4.322471470284826 0.02943116077692351 -0.09241058982293764 -0.05805499516120324
Ni 6.552091865462195 1.6202244582676528 11.525219116557981 -2.0212280130498996 -0.5187164632450034 1.2337022000718236
P 4.642067653309553 6.88128160966291 8.661677946480895 -1.0193706696716573 -0.1802872963312637 0.8440180916378497
P 9.072812462794245 2.638284427136572 6.7828846975056045 0.2785386612056945 -0.4900391499149689 0.05833010319946083
P 1.9407629152505042 2.2646902522581867 12.89562250288128 0.21378774208155438 -1.1148604126405508 1.3025560856207437
P 0.872987433540336 4.259179314243825 9.245179717455617 0.7999923208762029 0.7452931295611099 1.9988933541084413
P 2.693792261472838 5.570290157671962 5.378971808345982 0.29140189032160785 -0.6807404424907051 0.8339848757715638
P 7.830682318191338 6.839430318949745 9.938687840260787 -1.3102128308350531 -1.1576960197488384 0.5018032324294326
P 4.298560120602844 8.04505423564288 2.140878576705986 -0.7931341603037888 0.6887059771946848 -0.5382007972218601
P 1.5639451715680106 7.450282831393168 12.032359042702168 1.9180923234999743 2.2364005512941225 0.7842273447324623
Ni 8.022663749191553 4.399390781287468 8.689004809662158 0.8279880347581805 0.8498974332367621 -1.3278613971547517
Ni 8.178901220688667 4.758171233997687 3.693778203542655 0.9556407356128638 0.19574348298533387 -1.0800978123483849
Ni 3.1939872795552975 3.9307885742766087 13.247390086250139 1.5341533450798932 0.5101055816475408 -0.19563729642477273
Ni 8.545726819474096 4.603844025495599 10.928733067591097 0.25391597756100787 1.0343797414859799 1.2038779176215395
Ni 5.853550934381666 5.4711493450214 9.876345305343275 -0.5499666795085367 1.8894409783118684 -0.9807953805016205
Ni 9.111862646711815 0.12607368408910055 7.10072582640365 -0.4940161322848459 0.4023079678455717 -0.8164553515282326
Ni 0.7844715404039421 5.700059465939904 1.7826041600103149 -0.15522572537694557 0.05231860689805828 1.648004107054478
Ni 3.5496727388553047 7.2571350378911825 6.8042162737486285 -0.7159822964121346 0.07725393668715727 -0.4727407678458374
Ni 2.9276341671429242 6.978273376444064 3.628143220145734 -0.8317701275084319 -0.6667873227447226 -0.5558745603525395
Ni 6.468260708641972 6.575409931540914 11.862564214314387 0.4680022247195875 -0.13856292000928394 -0.16007816837324046
Ni 0.6845124372107999 7.299316951045793 10.18384989096775 -0.17678751070812132 -0.01717471200707365 -1.366409175520963
Ni 3.7799604532798354 4.779009631765553 7.3860520749767264 0.9768891034686789 0.690909669714223 -0.8789282732514734
Ni 2.443905983435866 6.0092465524330745 8.739222684935273 -0.6736503684131431 0.818541801743616 0.6656066721730602
Ni 7.72015339922427 7.233973099076479 2.9537083386293728 0.02074983095284168 -1.3813719674783822 -0.4664369371149967
Ni 1.8728383714465624 5.484714049077434 11.080328048972895 1.1670918591414416 -1.3850051933555954 0.24128723305340377
Ni 7.725755612815456 2.612064230738485 4.952105174193781 -0.5800120768306914 -0.7882135830737199 -1.2383366135200415
Ni 3.2901708581462494 1.468147319158747 9.686898646394154 0.2490187973697066 -2.1419256227429884 0.733180405457976
Ni 0.23632432916795085 8.103308073034498 1.121560405768227 -0.23473631930876349 0.1197758692097679 -0.15214348690719606
Ni 1.1055738923285945 4.534192897830768 7.194924751950249 -0.09177218490799034 0.5648381973037304 -1.6931112838057614
Ni 5.051038429422766 6.130832955275203 2.803470746048851 0.16602487287497858 -0.17818619082786086 0.7466504149199528
Ni 4.64108496994192 8.365032471266613 4.702359410694424 -0.24435713022797917 0.45760391220439905 -0.795099768670592
Ni 1.7329758947577814 8.29143224221783 5.253977239169938 0.3938045583602508 0.35010788880324867 0.6716441366163918
Ni 6.938543579730186 5.360693897707988 1.54646167318516 1.3898000436410773 0.1479189073028872 -0.19148496481929603
Ni 3.810680788464285 4.1270405451455145 3.880052723845228 -0.11591098693772298 1.636901312273097 -0.031068182159714235
P 4.295841669417613 5.173377916714857 11.457338655746232 -0.676683498812512 2.7428389685027215 1.1088458310153548
P 5.005329876892722 3.5123583227553294 8.62176906261123 0.01582719684024371 0.03143867812525553 -0.2267337607192611
P 6.4920196046426195 0.5088159982431897 4.277388345206518 0.395670407924396 0.2038709971884747 0.48204507596589885
P 6.155703110037381 1.8641136125750446 0.464854234278789 -1.7205115301955851 0.6175154730927881 0.906053925823672
P 4.676149316648714 0.16141814147545386 11.093594274435954 -0.48435444082536583 0.8238318464979619 0.28310442619950593
P 8.471731680286918 1.2495691495354628 11.08941373734299 2.5516144564336636 -0.04342413262190586 -0.4197711576273416
P 3.0136694735727954 0.9765668524673227 5.502930427205492 -0.4133845373747075 -0.4246004606951849 -0.7629802624282279
P 0.3584388095207238 2.4010077216581194 3.1367565349408246 0.2697318615473419 -0.7481367696574922 -0.4022938267781846
Ni 4.31589024690869 1.834633111546022 12.579555714418998 -0.9473676969707943 0.27851577838755903 0.3613834617170679
Ni 8.480575830595626 8.279768617200117 5.046035009808869 0.8981500975955629 1.8902403342847125 0.2286065522619418
Ni 6.2061138484013405 8.369587713793216 9.905769784236385 -1.0825323899318067 -0.7411443975000591 -0.11681730080207624
Ni 4.400061210127069 9.189834439153062 8.23688137617042 0.12207957764228007 -1.0363913725993699 -1.0305359422598575
Ni 5.1652776668994065 1.044831202669418 6.090182926099296 0.25589906942930774 0.5097011471202705 0.25090058777345176
Ni 2.824434045627931 3.17312132991731 6.004761107977443 -0.517008222304645 -1.2679922316029453 -0.3618097506212091
Ni 8.59863559406232 6.780019303013063 7.732818993918701 0.010042986058298833 -0.320640475471751 -0.3074592008947866
Ni 6.841680388342925 2.7442305517069165 7.213379912952686 -0.5504204792165036 -0.38123314945314346 0.535784988691516
Ni 4.354894511042728 1.6294910705848753 3.899959868403019 -0.26329870432748853 0.8159179909675238 0.3227811759638376
Ni 0.5614373149864893 5.997959469640342 5.048293344763086 0.3953695888545255 1.8940391392055127 -0.08204955830358772
Ni 6.095483905910497 7.516039961414291 7.238139860234383 0.7911212436388181 2.1330522315127585 -0.10405331626818855
Ni 6.26245742279793 5.18770488917756 7.408888901724007 -1.285808948069392 -0.4775618433835646 0.26879829398947896
Ni 5.758891892604052 1.557406194392726 9.287278974999866 -0.002104962158144762 -0.5406271472751657 -1.0232707760570119
Ni 0.7775900016434915 1.302624867430997 1.2291449482150756 1.09836292920616 1.0230386054415477 0.6165793344317639
Ni 3.138525365002566 8.127939444922298 10.034755700997232 -0.801676136336529 0.021550215366949982 -1.2088265198760666
Ni 5.194087739088828 6.467213737577389 0.3752206536111703 -1.0551097749444798 -0.02844617115583488 0.8259692045559388
Ni 6.58092030556503 3.47072744700313 10.167223255745649 0.24041228664761818 -1.3829516532606763 0.8332999338893972
Ni 2.292967654958611 6.107753672070863 0.027608810652164553 0.7682695358516253 0.6072328602198575 1.0444348117291369
Ni 1.1735443559160703 0.49631571476948166 10.044406202704801 0.5875106992005817 0.8211018491613084 -0.45599388740480173
Ni 2.2641116629856546 0.6519222484408341 3.164513207295969 -0.377245368449989 -0.9919058885924853 0.11504375384142122
Ni 8.143910345635529 4.62797946372123 6.126515577227308 -0.35097100813449233 0.5216344082227468 0.03264941060390506
Ni 3.9924680275198847 3.292411743582723 10.746181723337488 0.2589116310033864 0.19623250680661042 -0.6139195282114137
Ni 0.874979433750054 0.3358150505690432 12.488031157065437 -0.10958350205779838 -0.15074326412555974 -0.44281775503416
Ni 6.406048585909697 2.1187112604026366 2.7287620134255515 0.7369457860376792 1.669304925414783 -0.24195237744122847
P 3.0782143213086117 5.101605295050741 1.919225618377245 -0.04296184827350665 -0.20443638277364146 -0.48157147876359
P 1.422870412593924 7.83093946897913 7.978116048789254 0.3438351684206595 0.9154250826259267 -0.21044633641314722
P 6.735642424205513 0.5174737142307473 7.407383651219752 0.9347518079789967 -0.33321908346771 1.7609446985099673
P 7.140921249722567 7.572153936893209 0.47509067242425596 0.3798750927633522 -0.3737147295889112 0.38964837010003217
P 6.204460736194105 4.282175941837805 3.7833135158735103 -2.0001796770200326 -0.8252436392438239 -0.2864499456329712
P 7.463746511925427 6.733208675678195 5.629819646650162 -1.4219061801470028 -3.280931265171176 0.6511755843493946
P 0.7439960064054657 7.68294000664807 3.228321501703896 0.23564391872469742 -0.05818946385653849 0.27698905733038753
P 7.859529126207588 4.511701387855667 13.108524987259722 0.9212758849797488 0.12790621162638616 -0.11476530336905397
