# total energy = -340866.09197678627 ev
CRYSTAL
PRIMVEC
9.26987783823737 0.00000000000000 0.00000000000000
0.00000000000000 9.26987783823737 0.00000000000000
0.00000000000000 0.00000000000000 13.56740322987212
PRIMCOORD
 96 1
Ni 3.9581357762174494 4.9843946579433425 5.028446043393935 0.4764151313736312 0.18994564535663416 -0.0642950625336441
Ni 0.28962064053996006 6.503736870173204 4.875608936090503 -0.8689256535128067 -1.7005044909460394 0.8094310976915995
Ni 4.314024917906205 9.44498561094126 2.9797678632534494 0.6154166815822304 0.18792013028617313 -0.7532342387850576
Ni 3.094915502118713 1.5155693720374428 4.463241211010231 0.9861836413967273 -0.6443894146654967 1.3879704466315064
Ni 3.573667601818065 5.846595245503587 7.272480405517421 0.6242846734958216 -0.868066390836305 -0.38201553614512274
Ni 8.058313887246754 4.683392461658293 0.9581058144564129 0.720823683664836 0.38036797323937077 -0.004129191677025147
Ni 1.5819787753261032 2.3303545355578352 2.509114855633007 -1.1145241123470546 -0.16508899132427052 1.1466346197283543
Ni 7.464745083313268 8.480260176874511 11.420252849224696 -0.7546755992172745 0.3671368192610774 -0.4251095391211195
Ni 5.3906285050007074 8.92289683335602 0.026992029661630553 -0.7125742991718502 -0.7051872626791597 0.18178342126081595
Ni 4.4237802689583745 0.7279588547678469 10.014710435653766 -0.05974703815164548 2.6617962541970934 -1.1095492848402826
Ni 7.197031017571153 6.934044589416589 3.6105162923558582 1.40877658474358 0.05265310741934159 -1.5411691142760942
Ni 8.20044892083484 -0.006106995377801431 0.13577033561237234 -0.7997429238695581 1.0579109918387006 0.3032567327776648
Ni 7.979835103293405 2.506482210388174 0.0969480881287166 -0.025550851885910834 -0.13268254996910697 -0.0876908157497651
Ni 1.6486199255553298 5.989036185053218 11.484467145492314 0.07327901119980927 -0.4105938620034477 -0.5453692899458414
Ni 7.031925227234145 0.06140366937242969 3.3104596235883195 -0.022371939937296952 0.7371139361844273 0.3714886684718699
Ni 1.6448100058524209 0.07959858517016596 3.278440539291926 0.2164094959751176 0.02372562575171398 -0.23432519991327386
Ni 3.032223319756735 1.3912603131177141 7.5294747847767045 -0.9132491580205304 2.122719482128183 0.3081893941925918
Ni 3.0115885721687174 1.0177120545578109 12.0045870010705 0.8753757800135246 0.6914182339195254 -0.0659757926701767
Ni 3.134868674672332 5.033580628609121 -0.12316052108228233 2.0376414214109166 -1.3587457454384342 -1.5010408787966407
Ni 1.0554497263596165 1.471537453329858 -0.09697404378606002 -1.285898679569721 -1.153926011183445 0.8927086148650174
Ni 7.485240782736946 2.9055689817984764 2.8778770763763357 -0.8884632093251021 0.8292671585809203 -1.75043274323505
Ni 5.936095913950267 5.145078716654347 6.759605886289097 -1.3867090634205794 0.7097612552030873 1.1383813785806267
Ni 5.898024526554045 4.013096880642138 4.363235917241564 0.8495464776552465 -0.16844993737670344 -0.14845035432632497
Ni 5.964508088863687 7.698540666834108 7.72894215748535 -0.18524206923337774 -0.19370022730305994 0.7215353650198799
P 7.855952458744318 1.2637346066629263 11.858588282489295 0.729761352474098 0.8785333518058999 2.210390500383606
P 2.1677701519341874 0.7727953988530776 9.697328365609495 -0.09849510545412068 0.17721662782573996 -0.37120199046938646
P 4.5101291790133535 3.179846120897427 7.69672006286902 -0.03497137386886235 0.4507521793898882 -0.2521051496045142
P 6.81648400140615 8.155749570938424 1.4590518551599116 -1.1918708658583343 -0.5795451644966019 0.570387923477366
P 8.784543909837979 1.4712593570011785 1.9993058849344927 0.8193717538440791 -1.1214100408336105 -0.8124840255853103
P 8.83489788508421 6.839797743627113 11.809732319466885 -1.2564096689716684 -0.9249983281366586 0.8014331670877876
P 3.2814995989074003 9.128326591351554 6.051278778350498 -1.688879505112601 -0.3337204485841607 0.5934008394327716
P 6.52167408337303 9.484753385942424 9.167372242885916 -2.387083137385076 -1.4676530473648144 -0.25812050256065866
Ni 5.453691482467591 4.703369047935103 12.016119655820837 0.40802944371038113 -0.6881958703274856 1.034452246595128
Ni 0.98383992172465 4.9816229645341705 3.0755674135447193 0.12859501016329467 -0.8020186072776122 -1.3868311908207407
Ni 6.175935457681075 4.997604233555618 2.2966761431669878 -1.6009431490109332 -0.07052895925849788 -1.7188148592194525
Ni 5.028324607997078 6.7573236424184016 3.343645785477405 -2.03123037567825 0.9841285586399117 0.17425883074899665
Ni -0.12488657229561964 7.758748521993216 9.8294204137812 0.2870148169975057 -1.3279848101064935 2.658800661903879
Ni 5.271881372654568 -0.1453683669028635 5.392445401014747 0.6999028743517688 -0.1943586868226653 -0.49020318629665893
Ni 1.8863552070657965 7.366743937086619 6.9685164833319355 -0.058169152141564325 2.0871870935495282 -1.826145303577016
Ni 0.4386487551282456 3.8067030553738483 4.957556508250248 0.2971976710677785 0.26304467933515346 -0.5389692999567686
Ni 2.9076825138964404 4.070635011045923 9.085669395495408 0.3181434200815102 0.38495816371321445 -0.025144360476111533
Ni 1.5776033930882125 6.372215846463054 0.35524210423069524 -1.9077505752543336 0.17986434986123218 1.1360905256639207
Ni 0.7018483904681303 8.5238842209667 12.043986761930046 0.5952049825210459 1.2968209829091797 0.2534117842310797
Ni 2.971227524999702 7.706911366327362 2.15888590122064 0.11287837075898624 -1.0097740271221576 -0.8217981038973847
Ni 8.229686114856674 0.874032659357794 9.88511476552584 1.1905935418078077 1.6003826485217727 0.5597656678768295
Ni 1.0275381248378193 1.6280593369882934 5.736976161652471 0.013902983234337345 -1.7608235995510706 1.1688484368212322
Ni 2.5850166136072597 2.894639796081373 0.5553908129446055 1.7905928603937031 0.3664925008088591 -0.418710320462995
Ni -0.225696491441932 6.876543538523295 7.869283469753451 -0.20124358686795663 -1.494841434854148 -2.3479244649077433
Ni 8.60852747353911 4.442403453102277 9.131567340568433 -1.079888010330424 -0.3357302799253379 -1.4487706086380148
Ni 7.133606514876986 7.54288088179458 5.72624442432873 0.8365410665345141 0.06658154457497566 0.955769033660612
Ni 6.038314854495223 1.3938558788520559 1.5082072352295346 0.5465275719200007 0.24225705316584084 0.1840285085412508
Ni 4.3787008540794305 6.637436315124677 9.374641144601783 -0.24544599241678375 -0.9575150698174414 0.8996817037487408
Ni 8.56107496998877 4.73607317618781 11.616640768587098 -0.06700860481006524 -0.1200787451621674 1.123366393229033
Ni 8.59946153322416 7.026224252496216 1.065805106651878 -0.7845803571965068 -1.2697051005289939 0.5446941182556877
Ni 2.580984216841407 3.37887039345571 11.59903078206735 -0.816862100048348 1.0956910388009518 0.8445441393446488
Ni 6.7943938830313755 6.867236581390156 12.97868613538927 0.40621115955471976 -0.6397855973448981 0.20429934297514493
P 2.7747524687876477 3.5210054270437934 3.9545863400757364 -1.3507105338387837 1.4585181749430816 -0.18780057398917333
P 0.6921215078786842 4.136701428862544 13.590467467887978 0.4181454490984605 -0.2659613387613161 -0.09863754456925593
P 1.2500059179037823 5.36299499980759 6.5096130455982015 -0.2950178898076403 -0.6137506067337172 -0.6384761345048552
P 4.779168837255507 7.0060066494012165 5.563558072051233 0.9125683299034218 -1.0140047773740537 0.47759423928339684
P 8.574757309359798 2.7507898351330993 6.745930035832403 0.07380197358281484 0.14707944212072732 0.6135855419107625
P 3.372557606794686 0.5360519942482342 0.8529473957173157 -0.0599684101338322 0.14905430645891105 0.0054134577060874515
P 4.524525298961328 2.9742773147375536 11.048546515348413 1.4227317613720918 -1.0974339896339875 -1.426733426332317
P 7.306239445843586 6.026022996767589 8.74577820860782 -1.7604754721830325 0.7090477740758305 -1.6587487471654916
Ni 0.9158713250198598 1.7394554563796714 11.24679397216192 -1.5658907853924902 0.13041303720863995 -1.636641373743491
Ni 9.070927509112108 8.541126193344827 4.31553312699541 -0.552038731546217 1.7762314494657088 0.4681042975150906
Ni 5.28315354384371 1.8530392668899944 12.837625480617652 0.2604095557051515 1.5516988101628244 -0.6123871507272872
Ni 5.09837707319144 8.425280532694577 11.270631462468561 0.2475018465045479 -2.1018593508497223 1.4286440130914686
Ni 3.349475611514289 5.164777206602477 2.5299952549780245 0.5101284644656762 -0.28966639568773983 -0.5458899383360017
Ni 3.40693031301947 8.579753773398407 8.42512665272604 0.1426435178365608 -0.7354751150294236 -1.3480579267072847
Ni 0.3456533428178267 0.10009521158160606 8.473888062996702 2.6901498656391216 0.9421321596034677 -1.678122009485781
Ni 6.366431442826521 6.487329186781115 10.532890105845532 0.5523014982893004 -0.16292026580772584 1.1493401915849755
Ni 0.718442398400435 2.4993444046187343 8.630401603765277 0.3073131622352256 -0.15589112687508636 0.01955323954157923
Ni 8.248541045941144 1.9724631003025868 4.69282919707815 -1.0441820722883823 -1.6853933463362134 0.6794469204902621
Ni 4.6885001642283735 6.490295547620362 0.6702325458483221 0.8629360115882752 0.7219158882877502 0.43910611051052767
Ni 5.383277492045947 0.8809164704803735 7.572048551734246 -1.624110588266332 0.3422364564749719 0.2140811049522571
Ni 2.84746538885971 8.201867212111104 12.899547336149187 1.3686658327656236 -1.3589884575768596 1.799074415502153
Ni 2.7925691735783804 8.050647698452824 10.587431284813913 -1.1199697088426581 -0.1760534607555742 0.05726001006373364
Ni 2.4732311593557306 3.5510861799292908 6.18353397636836 0.5779369394692175 -0.41425511290511885 1.4774751756615585
Ni 6.110128596437887 2.7138308330515963 6.239770615953926 0.7935568496635044 0.34122601293258653 0.9916202390312664
Ni 7.074733522095539 2.9893686755072273 10.836677900356188 0.2892064253321858 -1.207947716815539 1.9813502030183552
Ni 7.585466699593032 0.6628991456610442 6.870913014855298 0.9292668736050254 -0.3759431046987977 -0.07645766603810702
Ni 4.176395044842729 2.6852054509528545 2.462320513393872 0.4434543601768943 -0.3692479520668092 0.9251340823835744
Ni 5.951335592761903 4.229984207379266 9.476396591265607 -2.492681172432565 2.2699575613139613 -1.0635139398477749
Ni 8.059194525620907 4.8815917151081605 6.155299783105295 0.5137894582570314 0.07744111299729889 0.2957442264507036
Ni 0.9642897498184824 8.506447581158495 1.0030434002077304 1.6725447725083193 1.9239971190201832 0.6387741253612482
Ni 7.179835394581138 2.590152125810208 8.527492984325196 0.33913004963550625 -1.269156941335008 -1.5301935891011968
Ni 2.653567358626752 6.850958676284783 4.512016526097325 0.16870499081030302 0.9951292806257894 -0.2856976408479789
P 4.9736045203905785 3.7154689198117326 0.7643681531063269 0.08065627750048689 0.5978059104790027 -0.5714009381229127
P 4.091186329735336 6.351849925326093 11.774321386948365 -0.4864761151540589 1.361870407110345 0.3290068451585753
P 9.434139854122758 8.711747560867313 6.553733955130964 -0.7821450082821368 -0.506183106664683 -2.8114503990235327
P 0.8910632785261255 7.044003877776457 2.7660814252594217 0.46742141251545305 1.9637039506915017 -0.5152220769384998
P 2.090042228068272 6.515352026834384 8.90438117979254 0.6589439154409038 0.037135214289400566 1.9782203991401222
P 0.9284802125621876 4.077179544647513 10.343232117637175 1.8172886245173347 -1.1468091976330057 0.19227583615170757
P 8.01337352053215 4.996677245793354 3.3945235088093155 1.007031431380014 -0.9141971237560965 0.6419049576807461
P 5.821242130205641 1.6753635224966732 4.407655316833775 0.009322562952506525 0.8788989626754348 -1.9662719685289944
