# total energy = -340895.59051379294 ev
CRYSTAL
PRIMVEC
9.01120668291451 0.00000000000000 0.00000000000000

0.00000000000000 9.01120668291451 0.00000000000000

0.00000000000000 0.00000000000000 13.18881184718200

PRIMCOORD
 96 1
Ni 6.29525610912591 1.988719275106797 11.322133496260513 0.7277605199939854 0.08825183045955769 0.035290961991810185
Ni 4.438992562878053 0.2779668941401413 6.18494632211633 0.9198833755075965 0.9022458649314914 -0.6833280007122231
Ni 2.7369828547557367 1.508512064351447 5.0028201683214375 -0.2259305480916754 0.823308369894324 -0.8837681178422779
Ni 3.220632346511435 4.464611423830904 4.661967666356615 0.9132244754301821 -0.7369637837598082 -0.24553083882110618
Ni 4.882749442098305 4.553678191913207 2.4908525542654103 -0.1019961766288437 -0.01674250956566149 0.2188546150815005
Ni 7.135929614582621 6.173586794815181 2.705830211702587 1.0427227141340365 -1.196482910709049 -0.3765401148528483
Ni 5.030443121668209 4.547577604904737 11.296507426342217 0.06239913106251189 0.11274107385017358 0.6847703895857045
Ni 5.629688374346587 7.75575646360863 12.346745557307022 -0.7872928710316635 -0.0301163597694062 0.5382972135904084
Ni 1.9163322508246103 6.442237903358047 0.2725313341940421 0.07844050079609072 0.8600052110947254 1.1391588801765995
Ni 2.8298883969379034 1.7309627155938296 0.4178514618909313 -0.49178595740274667 -1.1206587644898829 -0.009536992956157769
Ni 0.4978601648906424 -0.16848523703614196 4.738120473963527 0.1287698451782621 1.260393593320081 -0.3446252684221226
Ni 8.48744843393914 2.3632430524273795 1.3159083322958511 -0.24500967621031355 0.16143005441544458 0.7743882471548533
Ni 6.844741477814965 0.708343032372391 4.807493249568708 -0.33521451663118396 -0.33127070149208754 0.48132413863947426
Ni 0.6931708634711191 7.687748885834739 2.4446782294646696 1.0664699371523052 -2.296838959085838 -0.0002550534335995607
Ni 7.627878427807745 3.8079557725838957 3.7346099558974237 0.3504087078731191 0.1793215899838847 0.024331634766829063
Ni 7.462225413071104 3.9951005155556936 12.556171410230286 0.7437761786959514 -0.3481980733750455 -0.07789954069095617
Ni 8.08042123366501 8.69587764738953 6.944951504235043 -1.1268170707817948 0.6214220072360459 -0.3553002316374655
Ni 6.562816861645105 0.7778735040966973 0.4084320474153718 1.8658192251278707 -0.40510429964378625 -0.6222928398767734
Ni 1.9138361465390177 6.326173559681393 9.165696738937546 -0.23186773951171682 0.6487955141529924 0.15634389814178878
Ni 9.072753349686788 4.889751149787494 1.423982438896567 -0.6101158381946074 -1.2577808382875821 0.40338243185667305
Ni 6.411707934695274 1.8569483979652042 7.068319431028928 0.6761623362017194 0.5911866053902721 -0.629339976531542
Ni 3.384221794889228 4.030045975553991 0.188582931578226 -0.9724482940885057 0.935722399422382 0.8164327258204134
Ni 5.944557962603548 5.423376794495889 4.799658906370533 -0.9452653059158108 1.022153374623117 -0.5314650211599234
Ni 5.3282995514731875 2.7705315776989186 9.265614802257073 0.07968491472615309 0.42777474465810844 -0.5824769934314162
P 0.22128730444357392 5.436677335743306 12.42255503793458 0.3244737331749121 0.14555143551197514 -1.3591347533467368
P 4.027108322134846 5.9202637490513546 12.621508066306527 0.017113005531202784 1.6725401445226293 0.10087980363621336
P 2.365198484304541 8.52049252930112 1.133334073416662 -0.6830045559345334 -0.02396396701476518 1.202023380911304
P 6.140822046864225 7.7165757364109515 5.813786428296873 2.0842166980672943 0.03912062015054553 -1.2511509916758905
P 4.635716218685897 1.01689666577819 12.606512517058674 0.3708302089522646 -0.1411795316965246 -0.7228898221652453
P 3.8594818531074293 6.160133063052042 8.056886664846662 0.654523417775705 -0.017236932703576763 1.162679331896043
P 4.794727974005637 0.9796263144236369 3.812661424778612 -0.8214144953057209 -0.5108303756287073 0.920118631446854
P 0.3132881214622983 5.5510385613334 3.4973430784226536 -0.8517098038551526 0.3170872109028539 -0.040437539189756164
Ni 1.4066223489825085 0.9810050290651375 2.487726566623995 -0.2445790164307981 1.0780833530215175 -0.12604061917255713
Ni 1.8338436637115596 6.478814391788445 4.667414940871564 0.41268982530052795 0.9726501256866668 0.4229241014340264
Ni 6.027614255745451 5.671157948073293 9.173926674114558 -0.38438557903919607 0.6128728321144542 0.026731759567889445
Ni 8.726912243633505 2.4715127022158114 10.147392927564796 -0.009831898488757262 -0.12312395974639442 0.38281952010365683
Ni 2.281628552374627 5.373770101022287 6.813379774763889 -0.59975994888158 -1.056986166031586 0.3895871778447936
Ni 0.603060597640544 0.20598357192291694 9.244908851255502 -0.15812567263255992 -0.6183567380471608 0.760706893013019
Ni 1.4960946213711341 1.1685732987568733 11.618591386769015 0.06426986572266352 -0.513139226267542 -1.5510429217463804
Ni 4.201457151440429 6.885318942067759 1.6062386021754622 -0.171106401162944 0.7704837698941246 -1.2439809562900124
Ni 5.712303118354939 7.912362226710848 7.897012537035475 -0.3049624026148619 -0.24821378496990798 0.8952894882183161
Ni 5.23058202485598 2.7685401009945285 5.042214461120446 -0.9227833227632108 0.22058702439157496 -0.2640993458519129
Ni 0.9903406393173901 7.497134828242172 7.09407706456661 0.22718961730975712 -0.8116538163745313 0.006691038866930413
Ni 5.0409051327713605 4.5098296595894025 7.2778110657618855 0.2335412705593978 -0.4857819173005118 -0.8308715269535626
Ni 8.36202144638981 7.165297137567266 9.167596301332503 -0.5711924216565324 0.15969687377442174 -0.8130010744310451
Ni 4.6005635009310355 0.18649323271963777 10.610188684527285 -0.024749953251170277 0.2893354947108823 -1.748497216775234
Ni 8.233143166633328 6.954534021553814 4.836311088938113 -0.9752615951675849 0.10093842478829067 0.0016521908914423158
Ni 7.146824163612519 6.062875107982001 6.888398071433777 0.3389418448841001 -0.4341767915297103 0.49724800895858234
Ni 2.299786134091122 5.369165374343812 2.4205164806525414 0.06170416187801631 -0.6435219244588788 0.19801068175295575
Ni 2.210440018597797 5.172324572847473 11.530107643767138 -0.17748479388546207 -0.6593768892132644 -1.8418380317219245
Ni 1.1305099612032876 3.1665200496342365 3.6363003929929834 0.13738175521698917 0.6010861238921712 0.5504698443972004
Ni 3.638968611328593 2.4405501956262943 2.7397646142971177 -0.8931845260601715 0.8860180902187191 -0.06030239643448324
Ni 1.2454569152358497 3.252234648784263 8.15763646255449 -0.7471888039219261 0.6921857082131692 -0.050814254438389904
Ni 3.513415466883964 2.607041252596004 7.23353540223542 0.7779551385705054 -0.10977530635363031 -0.13883262873090282
Ni 4.124050884966635 6.887193273083654 5.9729495718909735 -0.4556635006485765 -0.47428008730849935 -0.7477264215929509
Ni 0.6871910266338654 7.582507001533525 11.310303583964028 0.3933926676338128 -0.8569443127812144 0.296882710930521
P 0.09347414933170052 5.511091881557111 7.809570489540509 0.9928865073381998 0.571001645801965 0.4868656372829938
P 8.598980140591777 1.6998470184885899 7.9615850427744626 -0.4934810857169824 -0.11655376272804444 -0.20652668964376691
P 1.923946720576689 3.245791635917119 10.330559222731218 -1.5030283415403145 0.0395942173528544 0.973092612540724
P 4.069208680338054 6.307871798655982 3.63947864563388 -0.578875392123087 -0.8436457959000954 1.147134185072592
P 6.862619712120438 4.056358699430996 10.424463206627621 1.1621669110359985 -0.23392410782011328 -1.073807608464299
P 6.241927787240939 7.724271307024295 10.06713911973993 0.549049567010906 -0.0818397562856268 0.4091740988377856
P 2.3928719004094328 8.476229481464184 5.672323097113463 0.036038638791112125 -0.5635418470898101 1.0770528548744742
P 6.777923379339624 3.9668864270423705 1.628488172903104 0.5062666675174249 0.41254044420685726 -0.19673849990875147
Ni 5.350043593498946 2.8896867653104406 0.2568139872809349 0.20655959976423136 0.5605210579856154 0.6679234932316949
Ni 1.53467159771273 0.8912642227136574 7.191832438252409 -0.07276273368502308 0.884490083609967 -1.1777835345273329
Ni 7.072950290207145 0.6724396810904893 9.103564468001947 -0.782877001352155 -0.4304060116333684 1.182140783054764
Ni 2.7557261649146993 1.5265344779658343 9.309718351733519 0.4776140367777387 -1.0300278922751873 -0.2701254974413348
Ni 6.219462848670605 2.0406328375230394 2.635969028688457 0.9971470823867666 0.5280601092434325 -0.3491334407051213
Ni 4.096891107649753 6.736048301306596 10.439195628636702 -0.030339788634121942 0.33630492148188534 -0.30176703560601575
Ni 8.28098366357272 6.865106805199223 0.4400253384813928 -0.4907824558388967 2.08697909130378 -0.048567624496058295
Ni 7.523411507291949 3.9026815785411153 8.244379240401218 0.44387782086755817 -0.6318791980136279 -0.5929969191261336
Ni 3.112137416552823 8.281650492876452 12.317875452938136 0.17748813631957175 -0.18477335712707532 0.32644474085835395
Ni 0.09054010039527827 4.896635711788191 10.008316665064612 -0.09870619302366226 -0.31174471564401796 0.5745078591830106
Ni 8.697049104274464 2.2147924314856713 5.720238387069354 0.3413244861836638 0.5753660934182478 0.8331045300491394
Ni 3.811866636338218 2.5441430290817926 11.20055879962126 -0.4491020453809749 -0.09808347183799881 1.186657439978195
Ni 0.8818871609100916 3.1930760760950365 12.667920286966975 0.4022300634197847 1.2993890007466717 -0.9197640763209127
Ni 3.233013744664519 8.31081075810453 8.077092493870433 -0.19421007705994295 -0.3114996895127474 0.6462624633184935
Ni 5.773633391884698 7.937476460082497 3.5468146037941466 -1.1699586391662755 -0.006284547457131113 0.4836047071435349
Ni 2.999803712494347 8.419026340652119 3.558803113330437 1.0349111885094175 -0.2340457209996421 -0.7115291457367875
Ni 3.4743428741679723 4.3534852214845925 9.348836901604228 0.3422739945811267 0.3359125711394731 -0.6318537440923311
Ni 7.390721487056021 6.303294105597927 11.223837450166283 0.17128200750885986 -1.416914383359366 1.0541594952160684
Ni 0.20301798376266952 9.15006950409251 0.22628221637680138 0.7093539924623397 -0.35118003882150484 0.6336725424686248
Ni 4.619378900744456 0.4708716005030974 1.5662766033476005 -1.3018724292901578 -1.4278860518795213 0.9435146417732911
Ni 6.09643284213199 5.710969459747473 0.3764413621291536 -0.80890042199911 -0.4568238395052649 0.20910190657011082
Ni 7.669942741183725 -0.23591429533301067 11.518079484920897 0.16206408845501766 0.4320461183399527 -0.6457616124226749
Ni 0.09997032831900643 4.748058933951181 5.615717399312714 -0.3423333870641524 -0.31010666581996266 0.44945325807280656
Ni 7.9125154172265715 9.003826628818565 2.349758682561095 -0.9612750510805058 0.3130456938436286 0.6604266706340175
P 8.43831933442632 1.6822931876281766 3.632462520013799 0.2585120815721225 -0.5652434031619491 -0.8360510142719729
P 1.6697585989593702 3.2804757709180077 1.5102241936448138 1.04073807960384 -0.268638371372847 0.45159395856489326
P 4.882208769689873 0.9168632590115331 8.310679194485145 -0.9011806568917706 0.3569069140029531 -0.022440845502019417
P 8.27716291188647 1.7822454935335688 12.278744287377895 -0.14355883056197857 -0.8455823508011759 0.24207296217949278
P 6.346719111201794 7.723631511340985 1.4040018900429765 0.009276540205919509 0.4997360654877588 -1.0559898635565879
P 1.8684196642307618 3.301273636229011 5.997612343801581 -0.15960251428840255 -0.2890953536756183 -0.8205187229643288
P 6.836063685659638 3.887903199377318 5.982814139982808 0.7330549356237053 -0.33404029381742467 0.4468063073682628
P 2.4029464296198753 8.363165869654326 10.222489621733905 0.045119003825825524 0.3875755467314035 -0.1776819974979327
