# total energy = -340869.5157728332 ev
CRYSTAL
PRIMVEC
9.24494745731202 0.00000000000000 0.00000000000000

0.00000000000000 9.24494745731202 0.00000000000000

0.00000000000000 0.00000000000000 13.53091509738367

PRIMCOORD
 96 1
Ni 0.36005187849478887 5.5846324494518305 3.2621010082269923 -0.6871327191702941 0.36677249394312317 0.2285834123334902
Ni 7.141296718794161 7.703703858366387 11.832000982829038 0.8426299530410714 -0.4421302420488321 -0.06816328723979873
Ni 4.891455526711489 4.016180871976636 11.291995275677785 0.3248195465501051 -0.004168529555392821 -0.18714519979336156
Ni 6.63035620226166 5.399095596966789 12.48079476134644 0.7576750481652306 0.6916331781438089 0.8478971149772817
Ni 3.9224278588194883 1.6973723711322721 11.223908085923346 -0.16882146178350924 0.6616296898031832 -0.41834728069662147
Ni 9.206322164301096 8.998597437683607 11.378484533540822 1.4318308954598824 -1.6533401745554108 -3.0137311689067516
Ni 4.357698479612787 1.58979816138012 0.06924095920932606 0.38046953181424154 -2.1255340687588427 -0.0455792312916957
Ni 9.193480932146942 4.305390566345541 8.815309880938743 -0.07695183206570619 -0.8380770435630663 -0.37578858139880444
Ni 2.0699160227636293 8.95412923994316 3.671843555336154 -0.10201880233666301 0.5159003339524469 0.6602649482451726
Ni 5.512928636213802 0.03449659730742353 12.25193238663877 -0.7063828256491577 1.1111225428646734 -1.5336337251309973
Ni 3.2214666902376803 2.4128111275855026 8.373958858138398 0.46744352400264017 -0.411132251005421 2.3841433380304617
Ni 0.9181323826111872 8.045563529062079 6.074812511754405 1.11168330046415 -2.7739081791037004 -2.531929833520543
Ni 2.428832621698641 3.946973194578509 10.49095200284255 -1.295176248216905 -1.4955256054053665 -1.0405557883897047
Ni 0.9632033509322332 2.087638587226922 12.017969574364907 -0.0831096241369859 -0.6739568439099682 -1.4176499759738102
Ni 5.654182189909499 8.407392286476975 5.156956553075117 -1.2149843119473462 -0.30686321918200055 0.7999756087056545
Ni 1.7619021050674748 0.43674981240212846 7.317654262851658 4.279009858233276 -0.9171112120790978 0.00021905798934155824
Ni 0.9919089130910878 7.692915004569484 1.447022889316839 0.43361243438580804 -0.8552414711574948 0.8194584000206145
Ni 3.1262807102094783 8.803769412905604 1.3248823401967347 0.19654463873039055 0.32216642519797417 0.14942505953476845
Ni 6.744910347417977 7.718431059821799 7.518764229493411 -1.6874196327376227 0.31928576121606944 0.9116530171780042
Ni 6.837165679071186 4.591900736028331 3.777182336769462 2.9948397313188875 -2.892322649189567 -1.0661999713203703
Ni 3.114779995450826 1.7394553724034818 2.124949346570144 -0.8975034651504995 0.8143838137111845 0.775074988809233
Ni 4.116775146324622 1.5451173298459027 6.359584631296819 -0.34780649436358163 -0.16443053180466521 -0.5646499925523244
Ni 3.1313007167319444 5.229959281444649 5.466070619530338 -1.11199877482204 0.4584472340413008 0.11678721889508918
Ni 7.9271819756179145 8.009230885170195 1.7011609506403875 -0.44595681488377387 0.18935557718111906 -0.6369607263015934
P 3.1399077629058234 4.527944188841549 2.4852231038062573 -1.9883685433177176 0.010066640207382663 -1.0735669532084027
P 4.8271938962553875 4.741936989901455 0.02059866764771141 -0.3890847842870783 0.12088632866512732 0.15278857669036267
P 7.148064020404558 3.603754516592204 11.29348371223417 0.6089945801059706 -0.3510591969729244 -0.887791122958742
P 4.404551873822474 8.144475222955021 3.06264126472384 0.04413092888094335 -0.628510538651711 0.37467555084028376
P 3.339533915464969 7.819071558907561 12.970898090584306 0.9044518714438745 -0.326764843201934 0.227477323753505
P 2.044751275518411 1.483176181226152 10.054471218414275 0.3365772013066655 0.09263170469480822 1.3040627520732575
P 8.276779667417298 2.7528772784554887 7.405321327033226 -1.155777462569887 1.0838757913335786 0.9819613757852638
P 1.0045837361892487 4.337618453522921 12.300874214501174 1.039280778332023 0.7656120436241202 -0.8224077124569256
Ni 3.096456509396446 5.114304987529264 12.32033113112582 -0.616559536937422 1.439278095766547 1.7916876361197787
Ni 8.596432974085433 6.434141435350377 8.199409625822696 0.6831873613693008 0.4857986294710602 -0.5513131662341022
Ni 7.853823316767508 2.2269414569884747 9.570727488599623 -1.1916026997986122 1.614865672629296 -0.0812957108566987
Ni 5.289764847179152 4.073323892815245 5.567728062847172 -0.07496411221171606 -0.7116291616497615 0.5343503131275185
Ni 7.19108076137884 5.531825309016604 10.122072123927312 -1.066287388827854 -0.0032609301394589 -0.8204058515355483
Ni -0.12772542193819242 0.10063217863296238 0.030062720459956 -0.3170522438998604 0.8354450052568579 1.0199432543456757
Ni 5.783555985996782 3.750037321757923 9.0399907658672 -0.9224539644482501 -0.2705692698469727 -0.15833110377514667
Ni 5.840209024614966 0.31257445032512776 2.117858471795316 -0.03651609264816292 0.12064310230606966 -0.7382534491055093
Ni 0.14409175259513937 6.015456250471084 10.634189522283588 0.11560656832342672 -0.03246609094850538 0.26603127276730315
Ni 0.474217735853789 0.6461090457473747 2.437919480650634 -0.13780470168702072 0.05493444725435055 -0.9186875554272823
Ni 7.1866431865523515 0.0064538978882758115 9.728457387828174 0.3281666086454671 0.6165405107740285 -0.10692729538187391
Ni 0.5969952618604455 1.6758039084860215 8.585582179139909 -0.7444626632400146 1.6910898825003584 0.7428559808745271
Ni 1.4975243398318017 3.74299267172087 4.349715467398883 -0.5982987909550211 0.12388860582656083 -1.0565308236617224
Ni 2.6096083261927614 8.886650367737852 11.346524749842544 -0.6859952631317411 0.7535785094983538 -0.8909882897398009
Ni 4.461537730552644 1.0111661388485416 4.054728605302743 -0.8841854078853546 -0.6620582927001695 0.03028759523994784
Ni 2.4071624646292835 6.591897220432083 10.56503361659177 0.4061206567234425 -0.060294426014683246 -0.6165628793715316
Ni 2.0894690868428487 3.183164872516542 6.544660160898856 -0.8034838789692291 -0.028669857130866755 0.16212759470310142
Ni 6.54196525868652 7.056076792230451 3.28634773217998 0.1392810291222311 1.3837337828423395 -1.135285256153806
Ni 8.712882333490564 2.3987033376162876 3.7322731550306316 0.7904237033511613 1.2028124524715027 -0.05867925900876346
Ni 2.6010659946517682 2.9387839288427373 13.518290510832152 0.6226587078566244 3.709373211099637 -0.3545484410731055
Ni 6.125424901640029 1.4538604525286551 7.723513931987641 0.9922560728430525 -0.007956021622283073 -1.2909799507473703
Ni 1.2364377759257752 7.077192252446497 12.590841070074848 3.841902780430648 -0.4287134544222939 -1.3082366809452888
Ni 6.1330150035828375 3.0127897340220064 13.133038754291437 1.2999641565238513 -0.673550352500169 -0.29485771008069217
Ni 3.8029923813540316 3.343536977756365 4.024243390739515 0.44890072800344627 -1.553753378699008 0.09706660053771025
P 6.170688164870223 6.004436272985302 5.116241804042075 -0.11250761768312881 1.2837109278897827 3.2254615142386447
P 1.7908295459676538 1.150302599554101 0.341908668917735 -0.6364151382107686 -1.9230630372416877 1.6626100298931108
P 6.121662207985068 2.157780004328123 3.3281857423409775 0.9694218485573561 0.5262983893573193 0.4805353241895918
P 0.7487325860837243 7.816399769064112 9.314411317632073 -0.09855115550303672 0.024991122727698895 0.36237179377226625
P 8.698922462682232 7.051759401722179 13.247591050458244 -4.179586327427614 0.3786005969263028 1.9767093618122344
P 5.351632036218461 1.6609010530270607 9.627462807251048 0.20325161843692088 -0.701003049394483 1.200205353865959
P 0.8307454403405408 5.620900378710828 6.598486094554664 -1.2366294010209475 0.44825589533059573 -1.4301954167389885
P 6.029416121279416 7.578462553836274 9.929147633850922 1.4255828576676417 -2.0291135864455634 -0.5736822779579217
Ni 7.091817759478801 2.278075261916212 5.329719661523158 -1.7023469434714162 1.0265473899257547 0.47875200703692394
Ni 4.596541699701034 6.36889059550587 7.082649544988324 1.0476350638339893 -0.0827427277158704 -0.325339166499001
Ni 2.751999008437746 7.29597393633999 8.325112253235813 -0.9172767911226848 1.3759860205761203 -0.30113685822118463
Ni 8.677446449511532 3.535341904683823 13.417458641331997 -1.6157953835324173 0.015709697425772943 -0.6646023992782619
Ni 7.671642380244999 0.12525609644620206 3.9383892607735183 0.07428662652871723 0.7268223244504322 -1.2318080683729042
Ni 2.6033125169076787 6.606485747674168 3.1227731771070406 -0.65394132001999 -0.013741517955808592 0.9782307050982378
Ni 2.1703069082654007 5.095500764202015 8.048634700639912 0.9963796080931228 -0.9068509678036705 1.6209553304668018
Ni 5.095399069778907 3.0910482150766616 1.6466444194022072 -0.4237584244098637 1.1723747048069357 1.7619428007571785
Ni 6.365007717532692 5.257555449896881 1.489401728909815 0.6017067881953057 0.42910811875755134 -0.537870410465635
Ni 3.412051284087853 6.415355701918238 1.0605304608142163 0.7699955174037963 -1.5342682733912028 -1.120393169533322
Ni 5.4416593355108684 7.799389065562568 0.43490359637535775 0.3188584438706638 -1.186467692564892 0.7522435927370142
Ni 8.680404832729192 4.020581467012905 5.664528210718509 1.0835559461003146 1.3021061425675189 0.13056807472926543
Ni 0.12562219636938746 1.41647388461548 6.140234383128683 -0.2331628041740565 0.8131237160518383 -2.2455346523849067
Ni 8.81224702981371 8.880049475183448 7.546137594709563 -1.3509704723683895 0.10395098636236937 2.2509918188447364
Ni 4.7288276542682 7.009944503930068 11.509761864329718 -0.1797828458910194 -1.0955069478146036 -0.18751903819301252
Ni 7.822436719817649 1.9139814923502954 1.650907264719904 -0.8515511667901012 0.6968031523805226 0.4497653899965867
Ni 3.347761918789085 7.697602192979964 5.079072492396447 0.3416533302779923 -0.9237451724558478 0.0713779375223545
Ni 0.8668053582795462 3.054003710223029 1.7666641775531513 1.1652797456333674 -1.7283066007599717 1.0631177328506207
Ni 6.730127676277235 4.7785284923248845 7.20720117643082 1.195001441067516 0.8877574415073292 0.08303120549056668
Ni 4.565793004132484 8.706041072299724 9.03176368703784 -0.6669469882510385 1.6124089835586874 -0.8055978399884385
Ni 4.867261498959565 5.5527281354388816 3.4483672870741375 -2.9681048864272044 0.2943666293768866 -0.5787866890640224
Ni 7.832069955170153 7.441609595176845 5.4017581418626825 1.0698511949197123 -1.0450315647728712 0.8378281607770538
Ni 1.1809588456470999 5.150073689620282 0.9267042979843562 0.37066051614361967 1.164973527246858 -0.6260607915596379
Ni 7.686425051385743 1.3612445679207952 11.781111244516758 -0.2889621705318636 1.2833540587709964 0.1262625053753761
P 6.912049754268198 0.872858025443927 0.12291435123047328 -1.2791541617570357 -1.4191823534579364 0.39405961179385035
P -0.042134772977518754 7.7600333238201396 3.7566825900605907 1.2694431051168589 0.3525836040372508 -1.2993136674240462
P 7.272824587661802 0.3430994181628431 6.013003565884693 0.3170926102194926 -1.7318884045739593 2.167467989988467
P 3.7653654448044223 8.63744356144024 6.847076262850345 0.5036001764288552 0.4057635304943399 1.3164888936517523
P 3.985506135988527 5.265367430581014 9.692262493654862 0.13310575354945464 0.5561836069525261 0.243125057593091
P 2.184479412867502 1.741849813820275 4.960324839029097 0.3997301798160664 -1.1655975339841023 -0.9623561999598266
P 8.404775966318857 4.289849809505272 1.9349342414893704 -0.9007885636596744 0.36954285759940875 0.6477845563899748
P 4.068350111030555 4.124522412375868 7.362874999323098 0.6558382799323866 -0.027567110984991233 -0.7045038634588899
