# total energy = -340858.5655526394 ev
CRYSTAL
PRIMVEC
9.38916093977924 0.00000000000000 0.00000000000000

0.00000000000000 9.38916093977924 0.00000000000000

0.00000000000000 0.00000000000000 13.74198610629797

PRIMCOORD
 96 1
Ni 3.589382375784483 3.4550516487177307 8.606770705104763 2.8303084122702997 -1.0742981749474725 0.062016550912112556
Ni 3.738144243376963 1.0392111227512573 13.858793230016392 0.6888646142597362 0.029580027649961958 -0.29831867204609913
Ni 6.645019113659994 -0.11807808929834852 0.37742267892718073 1.3459583638657788 1.0968539487608013 1.0846178117059255
Ni 9.090181989569118 7.568865614654826 10.119818984803077 -0.1147827868705507 1.7934033332593047 1.494819580477277
Ni 0.48861945209585683 6.67807834969844 12.34137523476787 -0.3866442931663857 -0.3144484877284262 0.26112560793556966
Ni 5.391406498452647 4.68049678079093 0.1751397766315056 -0.3502482710358549 0.9930528577127351 0.3816244713542911
Ni 7.750113979462025 1.8227929468990764 3.510376341257616 -1.3144201840481815 -1.174346740931642 -0.38787019515368687
Ni 6.151862818947332 2.29197871346458 5.305313525169228 0.897090545982797 -0.30810943288427584 0.8413073775749059
Ni 1.8956903932502516 8.677838203968323 9.566649050524797 -0.9762180455435832 -0.0024916560736021605 -0.12414340214984426
Ni 9.034410372963503 8.25111961280807 0.5379942332817049 -0.7758764016646057 -0.1815353098057519 -0.9996310251508849
Ni 3.4872940277452855 4.241497166984188 10.97510583184939 0.21982726340741499 2.2696937661296137 -0.5823597511272616
Ni 7.488137607992358 6.175504726457926 1.4214851811902425 -0.3872009370008041 0.559174828370366 1.928671384567401
Ni 7.6762306712011545 5.337784999726274 13.1500092184152 0.25390080805235626 1.911490244802424 -0.8125375045310651
Ni 7.118185884508458 8.498777513684544 2.6323189008456547 0.5071503556739588 -0.23718580929052058 -0.005276160797274785
Ni 7.0547714908124455 1.303281277133895 11.996685049074777 0.037224174458781054 -1.5356911218806584 1.1262264883856477
Ni 4.854074201024595 6.120334016159174 3.046364941343855 0.06383560639872231 1.523935524006627 -1.1774896574359979
Ni 5.92443856012222 4.130141716993856 11.55251670211292 -1.8812131910854375 -0.12831193170523708 0.26309070208174046
Ni 2.788486938670207 1.6403052128339761 2.352903101651533 -1.2382224565396804 -2.2264971761374817 0.8545243904858122
Ni 1.248270182572904 4.583854146157669 1.6031260129291098 -1.4427004911845347 -0.8221207773441261 3.1899962314524997
Ni 2.6295190530221206 2.4226946135291163 4.7185031657838366 0.3879977218704866 0.2058785145368067 -0.24903833775373238
Ni 4.276190117044414 2.334567947963412 11.746388793944737 0.6798192162280163 -3.1171972452129024 0.8853195214897978
Ni 2.2684213084033877 6.237229071165889 3.850738123709093 2.077820307622647 -0.869152167701316 -0.6026061600811236
Ni 3.311716716209096 3.4118145621068137 1.3228417163383517 1.998802851277164 0.941438990191185 -0.45083574024263
Ni 1.9430587107208437 1.911642577865224 9.374233217571014 0.37469380567272886 -1.2768157434318463 -0.5008966614547632
P 0.33909706245875443 1.088513607397061 10.661637423378295 -0.13526239488114122 0.4279326103922115 0.4301648421568398
P 9.431506161027677 1.8689500625949005 7.249997499666913 -1.1663596089611075 1.0873586076758563 -0.16951514541642418
P 5.542515656306307 4.240004290378079 2.40384399489964 0.6789640673165727 -0.8263684968768865 -0.42877053291247447
P 4.28227429340139 6.414947111420274 7.088157469655247 1.3835178101767915 0.004086511364547801 0.4520922383575504
P 8.452667343793944 2.449819899787301 13.931075686319138 -1.1099339218732112 -0.4998540791228618 0.8315430990992906
P 7.489696208725781 4.470752312213019 10.252813634253167 0.9386922806839834 0.3221995924287548 -1.8671590269852165
P 3.757823924926688 2.179703125691866 6.841323937118499 0.8671989006296872 -0.5271581662544534 -0.2128138082040593
P 7.89852844809585 8.105737843191687 12.356038287571401 -0.7991669967614301 -0.05312336218754077 -0.518097855824398
Ni 4.707575121243892 0.571975484934741 4.604073704467464 -0.9554558732955675 -2.1271680048178396 1.4620889230134755
Ni 1.4277064392984715 3.3332178950014963 11.237192995419386 -0.5414856386207191 -0.8238349318217554 -2.1208412912688637
Ni 9.061657718315269 5.568748972265243 9.302060614452492 -0.418592306827892 -0.9650869686274283 -0.643964411312936
Ni 0.8226933133956882 4.021818966020968 13.14186036554449 -2.512397934135202 1.3951664501593135 1.772713151899805
Ni 5.52090180758137 6.376282546238134 5.227190071780565 1.5666027238578506 -0.8971990465362032 1.3457076813075535
Ni 0.9539105946600124 7.788365421558197 4.9556076496460495 0.8153693175529055 1.551886243583282 -0.8968455198515265
Ni 8.891291391158896 3.1606545041606604 5.07260692434036 0.5574470470459819 0.18640420786227896 0.6123023043229648
Ni 7.755193515587215 0.530803074837557 6.445390527191661 -0.6151094347544568 0.24765971223865094 0.04298010310595179
Ni 5.406091146326583 8.503697434071976 12.518248250528229 -0.5625756265217988 -0.8998488254542245 -2.512714951154989
Ni 2.7369310553736717 8.019817630471492 7.50482871958155 0.45801811692368216 -2.2336975505406627 -0.4680279357512004
Ni 0.14615168082204938 0.8123596027498737 4.943720971763439 1.3056087564041385 -0.18090667508281746 -0.5147515650599844
Ni 7.30704885892292 5.127561683935083 3.8472754011158017 -1.5439680171774701 -1.690463304659953 -0.44504587303373033
Ni 5.882440842769205 2.35941166808773 -0.020102193796736976 0.3490282825858247 0.03020737682131572 0.5980324246675119
Ni 9.368429777129275 0.8780245783483042 1.576233577864834 -0.9985367636454415 2.200855564309977 -0.7896508297408787
Ni 0.5571819227926866 2.549053942868904 3.146832720186734 1.4133055829621852 0.35455538305164097 -0.7707737903307178
Ni 7.8032378526530275 3.410997705095923 8.003484245918104 -2.5667837079749347 -0.0025927004278406963 -1.1883803362065726
Ni 9.253759953290158 4.726766566419291 6.858240388572764 1.3149932829428321 1.2114253909514943 0.10295751210084848
Ni 3.271897284218456 8.68272995687262 3.0241304690738633 0.9009803679555064 0.2477461013048701 -2.0156654313604574
Ni 0.10490227960429856 5.902402199150271 3.2670468436227553 -0.9488195989259723 -0.807008604293036 -0.950952071887943
Ni 5.908965222720528 5.587010890497217 8.552765189691662 0.09449344049389533 -0.7065705161799315 -0.07595578670102403
Ni 5.378665406914968 8.411242365264657 6.700180434797701 0.7184253586359886 1.2002603754736103 -1.7365901809250028
Ni 4.650320017193213 8.09276202262789 0.8669876195402404 -0.7805604374038363 -0.638705476906842 1.6932084715052582
Ni 5.163494003253211 4.014401528795642 6.594146761287514 -0.5327426023207664 1.0050331700030626 0.4101853137111193
Ni 0.07368238021451334 3.2145858452015093 9.392097974290795 0.6115595126196693 -0.08934403508247193 0.11395514876293278
P 0.6554347985451172 6.839440471412929 6.757154802933143 0.8474178613480179 -0.5060581510510446 0.9116638158112815
P 7.272299573896426 4.187781776647368 5.93377608078119 -1.283547405728725 1.0583478222658032 -0.11800540757290644
P 3.2146046235235985 6.374620664733219 1.6221174689742568 1.3087835545876942 2.271447258485611 2.610747515150394
P 5.318584165389829 0.49971650153460667 2.2609691312821965 -0.1544379393683276 -1.7590749922910804 -1.629683454368419
P 5.392702202676818 2.2115981057607663 9.982673387255119 0.16534790141261202 1.6847670256061242 -1.1469166697451474
P 2.3827343441228046 0.3479087900992204 4.64400768422285 -0.6599304477238892 -1.186113651659583 0.5624645548652313
P 3.115736757722739 9.320066208587944 11.104349511462118 2.5439983346493027 0.7263926931121812 0.6422255742449585
P 1.3690147936079518 4.317708987184148 4.100911380829447 0.39209734586115697 -0.9245797525420012 0.5721653270927629
Ni 5.28205093976484 7.880961327781186 8.8237016375463 0.4612073132849412 -0.6261291829037281 0.7827880411827746
Ni 8.133210528408526 7.01924290541924 4.604514056120461 -1.2449150380685077 2.6351830224849393 1.4620848092484175
Ni 1.8252716854148814 3.233664620444372 6.778894466416078 -1.173800638620185 -1.9823578183472637 0.8572155641647302
Ni 3.7762360697353765 6.444053510658893 9.997831248845708 -0.7044465278583932 0.20604872156608386 -0.744671179706395
Ni -0.16348313319449068 8.745778173287889 7.987117060384955 1.773704826389113 0.06886931216788783 0.17910767420086574
Ni 2.5277687147805334 5.273309630832209 6.568944375211288 0.04959272332646298 2.531744199872298 -1.0294069708617368
Ni 8.101822563036041 3.7001181411458632 1.843638762250555 -0.3708906298765548 0.6505454069645634 0.5326227889134505
Ni 3.727750442100463 7.691553782026131 4.906974612182734 -0.3992892356239059 -0.12646536541480152 2.0865222062720195
Ni 6.388648071334025 6.48979750326875 10.906451347374325 2.0195760792687736 1.0236255882932694 -0.8893494685847974
Ni 6.016057993596559 1.5381323623453764 7.955758201411707 -0.06611411802025388 0.5035554392338489 -0.2999670062827995
Ni 8.070772607461166 6.791198961965178 7.404333712171641 -1.8868282232793698 0.03141913774122976 0.01664043677015844
Ni 4.000111225685584 0.5693662370804146 8.60083393857619 -1.7528675779287877 0.3011867376225136 -0.4833866775954579
Ni 4.919338259446416 2.2326486048230194 3.2953279356055445 0.18858784577715906 3.739508597032437 -1.643387948438705
Ni 5.53941723316155 9.577132048831222 10.387897372035704 0.08024335833278438 -0.6584615764878466 0.36196016015614435
Ni 0.7658344319410969 1.6477602067034807 12.993803623946468 0.04998301678634618 1.0154325109595157 -0.610619003083271
Ni 2.6179985524202545 5.280051048462315 13.858105943427919 1.3902661846442186 1.2538323951627954 -4.32807781940452
Ni 1.3543770915392395 8.983934243187111 12.328746813162725 -1.2352471759614403 -0.1533004833297747 -0.556203661557184
Ni 1.8717480325862257 4.7146076028663835 8.778188618298143 -1.3016240607247778 1.0337266812830133 1.300516943703528
Ni 1.4069376150675599 7.672578287554759 2.15533449711641 0.11854482501614422 -0.08874291116336329 -1.4211096523876363
Ni 7.993058521494051 3.4749003351662604 12.166467370414168 1.4558941070566733 -1.7035890434086338 -1.3948553466767977
Ni 1.649797654650184 0.5432268127319252 7.082907989715146 1.5209990670861224 1.1688317246506839 -0.8174722228285212
Ni 2.994935811721423 7.443332531486973 12.308944133603315 1.3018333485221063 -1.095205357413785 -0.003412882336290897
Ni 3.8879858644895857 4.402079988331966 4.315945702739951 0.12518264204763604 -0.31397746162927864 0.20149118410238845
Ni 7.6359417811582775 1.8797194303131894 9.849005534958124 -0.17295013923990213 -0.9165836217104022 -0.14688455250110186
P 4.704429752293911 6.058421888230317 11.920857245561546 -1.2503812033894015 -0.431846857844953 1.8362453681254955
P 0.1935716386783876 6.234825445938442 0.7042340241589242 -0.5332457672094301 -1.6532247320234688 0.5474230871510766
P 1.8125869288434702 0.32147830175834485 0.6936045549402012 0.44270231250221814 -1.0679136115773673 0.32295781075101804
P 6.730657651548849 9.178149039397061 4.648983000660445 0.024124403852029422 0.026880883551244027 0.9423188216929772
P 7.234470644047266 9.045123405715525 8.44710238804274 -1.8449503520986614 -0.3875390370665132 0.5606526984674731
P 2.8281937007283116 3.2956330833394976 12.92972447764849 0.2645955687620411 -0.9271089467217583 0.9542451408169178
P 1.6227474816803573 6.021719657706523 10.654422792031534 0.13052230909299456 -0.18877193676350715 -0.9489332416857011
P 9.354524429622051 8.893516622326494 3.078864583384035 -1.9019591653835375 -0.7944487653501543 2.2445319221520053
