# total energy = -340887.9239922444 ev
CRYSTAL
PRIMVEC
9.07580151135444 0.00000000000000 0.00000000000000
0.00000000000000 9.07580151135444 0.00000000000000
0.00000000000000 0.00000000000000 13.28335290794662
PRIMCOORD
 96 1
Ni 6.726257898222906 2.097944088996938 11.297026588974562 -0.3775125060684466 0.07646383668569412 0.3317432702531319
Ni 4.764105949059209 0.48185698329744125 5.874921411552443 -0.22833632931969064 1.2480384141888379 -0.9843784698671885
Ni 3.127457615396057 1.9789512574668204 4.592851930602093 -0.37641387368762913 -0.561648229611523 1.5769177326306132
Ni 3.3936145658538575 4.632071190985824 4.856380528988265 1.2688553509341889 -0.21436675451347595 -1.2979764366698614
Ni 3.7969159505463925 2.862943384983025 2.5819919707408268 0.125754455390706 0.6749793716372118 -0.9051319282300346
Ni 5.447350426463701 4.712591700583506 2.1560873027803673 -0.33595936521700853 -0.2455701766994738 0.31618758190671997
Ni 5.5871903737000705 2.897050246465 0.3982724831632205 -0.3595438374051679 0.34481090207036746 -1.716316261167315
Ni 5.945457632082451 7.929119230451119 12.43315173869898 -0.9185795690945082 0.15501952290341042 0.3050991853030423
Ni 2.180007484824512 6.483661728075699 0.3517980271784541 -0.7024225554498289 1.3878123237870872 -1.8718985985527312
Ni 0.9804406684871871 8.94719724714633 13.260265819140267 1.7563113135030142 2.4260898576655765 0.9446258725595988
Ni 8.179420755946436 8.909450989322078 6.985224091269273 -0.6671112817430447 1.5253002655646377 -0.2373143644485848
Ni 8.956881127189243 2.4012845975951462 1.3204873480746722 0.5408986557689975 -0.24321376065215533 -1.0233201412377086
Ni 7.226470689755392 1.201844842476754 4.775697562546378 -1.0441198515918793 0.21738857205893528 0.023436119535753187
Ni 0.8718795630314132 7.701861164589313 2.181538572512646 0.16312055474399004 -0.6571104617765908 0.39343226262249664
Ni 8.002115900727736 4.1367774837862905 3.7783695504829495 -0.2778310936157086 -0.6597201314852961 -0.3036825074611738
Ni 7.845903207851801 4.092269753954569 12.355457433642407 0.46873036113486377 -0.2310411298453634 -0.05019050481146195
Ni 8.370929240281498 7.309713939758765 8.95486629928903 -0.7858517677097627 0.197493375796905 0.21851805767768817
Ni 7.121499971314591 0.7134160714201062 0.22685419270162815 0.6270470667323071 0.5921268578163544 0.007560585956077301
Ni 1.7190475341407607 7.118985974340001 9.07314123493218 2.20252035360691 -2.2729559818206533 -0.577190034000864
Ni 0.4111356164198474 5.203365658709591 1.1752409459727318 -0.475930992648361 -1.3015340721141326 0.012127636501469434
Ni 6.73590547506041 2.0225695587660155 7.037919101500911 -0.44897940376018153 0.7965678685756862 -0.6546123779450854
Ni 3.6166433082854876 4.283215538605789 0.36273527538812117 0.00756084306639343 0.09439573857376647 -0.5021624155410642
Ni 6.006791897621351 5.549888830142083 4.296075041541875 1.075747248689173 1.3472711691399313 1.3103537272882917
Ni 5.445553417795943 3.4192264772700725 8.975295928133077 0.40631143257800995 -1.4611882655760773 0.11911766680047874
P 0.26828613345505187 5.8666978279471165 12.277683261533936 1.1424982289624777 0.005891940004402756 1.0743524252241756
P 4.261224871929145 6.129859763958655 12.445704479549358 0.21691266086378125 0.3085588617168686 1.146066148819394
P 2.7487062733615173 8.883702940885579 1.3574122458765394 0.14760908937195225 -2.078715051522775 -0.32473264326325363
P 6.370141604761024 8.20093948095276 5.696631831887019 0.9623181476330394 0.027173217980682233 -0.3755867498006435
P 5.126057982790626 0.9853052980120245 12.636081211455787 -0.5014497057447558 0.7556299927107438 -0.6660766698309432
P 4.016123780608701 6.6759507313270605 8.035670953487493 -0.12588815275509288 -0.44680142227225633 0.8171210101366895
P 5.252166242580953 1.4029464488412067 3.7253822994477668 -1.7918645280172751 1.5764788453209815 0.8766284214737032
P 0.3456491717622651 5.821781687054542 3.62941023804778 0.38381813657150027 0.3132554958615896 -0.7516005598363765
Ni 0.2778293385770043 0.09603377684918238 4.695107169278283 2.338110049920483 1.733185011898196 0.19942864514640493
Ni 2.0496245225972474 6.968953902184989 4.400734459996291 -0.5578779639358133 -0.2202674362686271 -0.34719662869372464
Ni 6.211106337664522 5.7697319662990525 9.162511558428498 -0.4759248220007739 1.8017632751882262 0.18527806467763572
Ni 8.857845982832853 2.629096287339443 10.193831169296727 0.32917242420216214 0.1745161981754414 -0.4190070257678074
Ni 2.3714433627487557 5.645284578156198 6.603725504165389 -1.2840307731230467 -0.6270763773083459 2.8952922733408526
Ni 0.9242160791096358 0.09584772292146006 8.893802492630428 -0.9451382934196433 1.2929260187301477 0.0863165611100578
Ni 1.5908972190461643 1.1995577405359723 10.984336189823205 0.014187861464607822 0.5516754346695273 1.7607207554246191
Ni 4.227844074555354 7.047278067855412 1.2698806797341997 1.536944020451153 0.9300371761121466 0.648037038720413
Ni 5.642661671565381 8.368669365744774 7.778757706707018 0.6123850938447583 -0.2939377693695841 1.6264490065915216
Ni 5.423871328365278 3.2694576033542764 4.790109935093843 -0.037278424735484185 -0.8997827481029795 -0.032551708683776194
Ni 1.0491717121282196 7.778497231208206 6.606315737871338 -0.21021185180483795 -1.3220404195976005 0.7623020054142807
Ni 5.315351971595725 5.13570555962813 7.020730441319774 -0.951698206025348 -0.1865574456106916 -0.28142215340107657
Ni 1.145747314318135 7.789424496036386 11.330221332420631 -0.9049987450862801 -1.7875350474039862 0.36314363894128426
Ni 4.962693558449072 0.5159139278719791 10.347944629319873 -0.4653290487627986 -0.2944931276524218 -0.510993640679449
Ni 8.207909696391333 7.363388228956318 4.7086691392390385 -0.28879119217163807 -1.3629402431357558 -1.58319328122668
Ni 7.3809136013676255 6.690562771504277 6.698436029177404 -0.25548589315128906 -2.6449740404334317 1.5958415661183099
Ni 2.6519763825486127 5.491132092187237 2.333592733208953 -0.12204975284560916 -0.489583293324473 1.3641810575213924
Ni 2.4258527918558457 5.439481706691248 11.451790783954669 1.3147300019791164 0.5842299715667809 -0.48470513929656517
Ni 1.5221389480010747 3.7559840864474805 3.5431619902166567 -1.3007390870166633 -0.47945417531027107 0.9259478365341215
Ni 1.681101608686759 0.978080960135587 2.727310979253585 -0.7504291652360947 1.2455848104420226 0.20544502654381394
Ni 1.8363068876125874 3.7332310524572434 8.262790159588606 -2.3796444217188437 0.07948256890735989 -0.3534654924215719
Ni 3.77642279109288 3.130951798916696 6.983470646448007 0.8770076591899929 -0.34546319094238565 -0.253500487290144
Ni 3.9369646412138652 6.9809067325659795 5.880101878964341 2.181195623987205 1.8652605244109228 -1.1674214745667186
Ni 8.473367810145005 7.548216923496082 0.13731505930015778 -2.1702098143996627 -1.668309137160417 0.2506100531162264
P 0.42200570369950735 5.736060743281988 8.031274635312434 -0.17076675843533815 -0.7977544326846197 -1.0732234538260548
P 8.87737710734302 1.804269308838938 8.071669211971289 -0.2644664993833445 0.37544919578151464 -0.7906065087859288
P 2.354743888260508 3.470087268048409 10.344676433252907 -1.7864204741835688 -0.7349925189660503 0.8373121403725837
P 4.254172974278401 6.326595909872648 3.548674631958049 -1.3472536856384347 0.9049578645460157 -0.5682914459596535
P 7.1891782219987554 4.152124663873044 10.165297757425204 -0.312636631330668 -0.2817332568835922 1.3998456008025375
P 6.473406072547591 7.979326563532091 10.126829973393445 -0.7055654719541848 -0.3543584365494865 -1.522031879226011
P 2.4830212645740373 8.89483894914486 5.497581356628187 0.7324892929282223 0.01904056157121882 -1.4621506294893465
P 7.466271513086087 3.9832421523092867 1.3310978674356562 -1.470251918440242 1.7870668495183157 -0.24074190207289506
Ni 2.9411404894345154 1.690050348820135 0.3105857208177563 0.00886953457548795 0.4833177720307354 -0.27991677250014374
Ni 1.6927730892258275 1.2406620448605776 6.8649034700013125 -0.92562516308738 2.0325508942618864 -0.28162269944765694
Ni 7.205950302897822 0.9292168456547577 9.092640594137615 -1.017986130619305 -0.38474810458493736 0.31183856090940487
Ni 2.9564785937199165 1.5953262101060908 9.02225230916965 -0.0771732040478929 0.8211987797504889 0.8966346893923011
Ni 6.654531840135612 2.1938027028800207 2.249628864578206 1.131208772091587 0.31095024476718064 1.9346309445849454
Ni 4.465475781362849 7.129586510319498 10.506374540466174 -0.3230441998172372 -0.7876062885070242 -1.0879908419432165
Ni 7.489968430416965 6.4357324211341576 11.284938529153422 0.20935567445212977 -1.35715011881654 -0.24572495710978326
Ni 7.643685277921016 4.173026234387411 8.012890692093197 1.7374515004840334 -0.041347195488219114 -0.6505788313056602
Ni 3.385954589512509 8.52449179916256 12.34487051136494 0.5873325217515046 -0.062419699887802174 1.1292506199239518
Ni 0.4337842786945334 5.048777534275718 10.292153863246961 -0.7569949913790706 -0.5378740100100607 -1.5544210941899939
Ni 8.974896592873575 2.561844599318837 5.826237905518525 -0.6761222269924033 -0.4136221073068102 0.04954850035208886
Ni 3.9046003335915334 2.475433894643507 11.345391534381015 0.3025795042049821 -0.5274289034173368 0.6381079525321591
Ni 1.3259655017709258 3.57883351985177 12.460541599600113 -0.6251063980661686 -0.9476754580192002 0.18898919498063582
Ni 3.241876243044611 8.82539999299835 7.620938596991724 0.4278243669491213 -1.846235389458672 0.7147682214993755
Ni 6.014161448319426 8.5749714062841 3.4822043704338768 0.9051902922717959 -2.626865503758179 0.5828945405848089
Ni 3.642990359611239 8.72098289844004 3.5408767034361457 -0.7016265419110949 -0.7717502953113742 0.3796580916565397
Ni 3.6281968034069765 4.771992820434365 9.286856390016071 0.6116698129452885 2.197985956071666 -0.53396567609459
Ni 5.141468693486845 4.405911297087648 11.324549864155573 0.9755385029780554 0.9466938108322213 0.28729918100714397
Ni 8.134949329320124 0.21422339995962036 2.5285926783242485 0.7179751584724473 -0.5888178480477795 -0.38415469397531254
Ni 4.830558966560812 0.710843989316862 1.7188260845877645 -0.03002200028338701 -0.7139405833917576 -1.9301186585368888
Ni 6.2775775067688295 5.67611507534999 0.14956648354563906 -0.21519439262109394 0.23792525855970637 -0.24680944842321362
Ni 8.160189132880895 8.818093972909741 10.940116162894354 1.150289185761806 1.3946928529570046 1.524711225830387
Ni 0.2451691598305868 4.907703278055434 5.8989505032128156 -1.674468986114226 1.274250039587199 -0.1332402222447899
Ni 7.6185180807710635 6.238987199418813 2.215596424667319 -0.30626080971131125 -0.13533258599744435 1.2956660433691298
P 8.919715720651539 2.009645617640328 3.556564226073611 -0.1447042570203314 -0.12824945389841783 0.4677034625322461
P 1.8495303301829007 3.3701899225635494 1.4540223361115936 1.6355064888080995 0.2026443238702252 -0.9711653136110241
P 4.854074367864643 1.4988958207378125 8.111266933271411 1.0544554291899324 -1.091950340811597 -0.4031574603300605
P 8.838069811686172 1.4919709843060012 12.280725470147228 -0.15197302276760277 0.873302956644896 -0.18165769431622908
P 6.629854736258685 8.011618264743603 1.4185958531129923 -0.40503487985843145 -0.7254275009854344 -0.6408387211997609
P 1.8814680751416744 3.463225962226064 5.982569491392175 0.8553168044801206 -0.5695772546506126 -0.6931177331091354
P 6.923583971224799 4.333985571370603 5.900585055036366 1.792266391441384 -0.45206601310530525 0.03476002918900465
P 2.7503671450089895 8.557609398297133 10.2902279782 1.0712647874377874 1.683768923358913 -1.4647464152409806
