# total energy = -340855.93788984633 ev
CRYSTAL
PRIMVEC
9.34177471697021 0.00000000000000 0.00000000000000

0.00000000000000 9.34177471697021 0.00000000000000

0.00000000000000 0.00000000000000 13.67263157934587

PRIMCOORD
 96 1
Ni 9.276700009890545 6.994719283836822 12.512604860868452 0.007950365195328244 0.7465357437189595 0.04775155635266615
Ni 5.901993200382564 8.26801253265619 12.19485279819344 -1.2667251919650635 0.19629138506900387 1.405738569248205
Ni 8.408970572813162 6.982266698010774 4.967554149363836 -0.6867162004581656 1.3001929847052058 -0.41983697786827046
Ni 1.9648087875946132 4.839487758449134 6.984513394853358 0.8277147264921358 0.9112272424944953 -0.8446418412647776
Ni 0.9608482484157562 5.164497445976552 4.96308317593822 -1.4495195709888973 0.3260418489929804 -0.5405291882447207
Ni 0.8852947762587186 7.241809227647009 9.14292953127488 -2.7086389255822447 2.027728790282895 0.3194168874772951
Ni 1.686545341232646 0.37418665849927374 7.860081515176532 -0.12478232128542381 -0.21992830776165348 0.6031154956173742
Ni 2.8769490221341383 8.881925948057855 10.459440632912738 -1.0716147145780384 -1.881317834984102 -0.30631737398085956
Ni 8.674323686383232 2.14845873864809 3.925576323405019 0.7763751956778951 -0.0743951270821235 -0.685636851351058
Ni 3.455447769218812 1.281018896589916 0.8894911015048257 1.3095114338926543 0.139524769701921 0.2857876294586239
Ni 0.5557468545270288 8.626493799339446 3.861150773405512 -1.4947025952834387 0.3463427653338616 -0.6565499612874306
Ni 5.9809965899781306 5.889503247457262 12.330307598807932 0.34618618515133925 -0.37678565520475105 -0.24600752134720863
Ni 3.756570538548776 1.978998943535924 3.2199182717400094 1.4551549148978034 -0.15062293649761158 -1.5326088834109088
Ni 8.433119060705385 2.2669778357036603 7.6408543489243135 0.8101615480997209 -2.967776299443192 -0.46688096663095074
Ni 8.921862035384454 1.7077511700586998 12.264227620489 1.3457945845944048 0.6785110389395541 -2.06629688036408
Ni 4.861767891378711 0.9863232683314606 5.1984987037643 0.4675954761994721 -1.2646675381050867 -0.6147595076142057
Ni 2.5348252031488654 0.06094573888157497 4.7961269764760015 0.6408466916195609 1.234260900788771 -0.6382352221386427
Ni 3.074705053155607 4.211169326285454 5.118869415256246 1.5486872770300102 -0.5421081026960664 -1.8330759692585785
Ni 5.500876073451683 5.483846017967147 8.838208310286856 -0.8896780555688096 1.1224695924463766 -1.1699406414441464
Ni 9.01297236513798 9.014317580711086 8.556223100839293 -2.1310727391888844 -0.2689096227563627 -1.4066613381727904
Ni 3.336947355712868 4.0086022812351665 8.841927270840007 1.0009435733147214 0.4455007011829618 -1.2747249223410886
Ni 0.9846604324147039 4.454298357574826 8.92883006521765 -2.147831446704462 0.21075923966787574 1.379856302164804
Ni 0.26163695554936334 4.349875998712435 2.619046908155108 -2.4589171886082424 0.0361993327386925 2.757252315714574
Ni 0.332510198524968 0.708993065273336 5.97532333013405 -2.187141042937362 -2.2637226361478433 -1.0992414751563715
P 4.115425476224561 9.11249029222342 8.298781536358556 2.9854001831725423 1.8530920073691892 4.190548225755758
P 4.4939915587562815 8.01982025941804 3.845892852603048 0.947931025673432 0.5697816573519349 0.5191412094872477
P 8.09329331832417 3.818375720713169 12.290903058468206 0.04436772748209778 0.19150039143826375 -0.9136777609175166
P 2.3432627688285743 6.125270960193802 8.626336857522583 3.19580795303827 -1.2485199818109465 -0.49251280826644217
P 2.040654657303305 2.2377847894122866 4.090782808444716 -3.114063584679927 0.6848300391790464 4.853822136030582
P 5.30550219500759 1.0439059682802692 13.324512522549323 0.08161195654553685 -0.2349682328139115 -0.4372202063417244
P 5.806510920016442 1.7709856437695184 3.2175800255042555 1.6006757542821595 -0.7138032864829448 2.151911530311107
P 7.7266660240037695 8.669409912831467 11.363324606872322 2.264143011514714 1.2607568901967705 -0.7337550470145233
Ni 6.5743954678899215 4.20792773042526 10.397940926784736 1.0204559323160363 0.5953667049098907 3.1506578388641935
Ni 7.152296341386548 6.941032103985134 0.7109781924211495 -1.4327721763272292 1.4679394682569817 -0.08162815449545298
Ni 7.1114447601282516 1.878360003472894 5.688402861052654 2.119701778347782 -3.3361061105711056 1.4960475393471073
Ni 2.060842232674716 3.2797756938558416 10.608457822201093 -0.2028240439811991 -0.7278132276087917 2.0318983482795523
Ni 5.996326442446656 3.3860290405816285 4.928505530644494 -2.889267407303011 1.4002243242981949 -1.4515504853759968
Ni 8.65240788267137 2.917043919632562 10.110760756363533 1.4810045289710558 1.8240035746436654 0.9538221943468862
Ni 9.319298503038919 7.9970356706485495 1.2059904321773824 -0.15343675179732286 -0.016276625672836484 0.7372874856478141
Ni 5.712074918429402 7.927308663442529 5.824035155388598 0.18209632451554444 0.06475966087488848 0.20329764118350796
Ni 8.114013374859935 4.3130133552993914 8.093104614472942 0.10215507080421116 1.6713116714321667 1.6954972675394346
Ni 4.931578974558049 0.4866270626838692 10.681812240567092 0.4501052898345087 0.9995698328956464 -0.5154151667859123
Ni 9.040969664253259 6.191111789077516 7.112120170447248 1.2223255828037658 0.40031767688842024 0.18947539058843496
Ni 4.758587988566479 3.410411072844184 12.567295347335081 0.44850272123407925 -1.7342551050339228 -0.6392744620364345
Ni 4.116266235957753 4.635267219256904 0.8482004568303069 -2.4974228008826085 -2.644717701448252 2.628136657161119
Ni 1.5743319421760122 2.1529614741080714 2.1596604608266454 -1.4251221159811394 0.029093317821530542 -1.2322456701309552
Ni 2.481380909442322 7.125270586851846 3.8948269374297597 0.4183022863912989 -1.2740888314189864 -0.19030148603415611
Ni 1.2373087322387684 2.6231516840080453 6.296082510121444 0.8372625180815709 2.0066976806442085 -0.45009989051787
Ni 6.364803408180078 2.3894298199556046 1.3254371674719077 -1.486505661294943 -0.28626893997041664 -1.180375206513909
Ni 7.531955411571418 0.39764198670035567 13.375415853506667 -0.9607531171387648 -1.3294786210432006 1.682605242068115
Ni 4.1633674645661065 6.48753564567642 6.5824975891854445 -1.847773680480069 -0.8055764998321998 0.762294806325429
Ni 2.9589230961203152 1.1435359966634693 12.366553685083302 -0.24766382600370895 -0.25958860246575294 -1.6784523962420062
Ni 6.2023873112770955 3.12584192848328 8.552969360671844 -1.6702935145802975 -1.4024786675500105 -2.0219489503763244
Ni 3.164105838118309 1.626066691091733 9.216010235638853 0.9152528187141205 -0.3391051099348418 0.19551774012777293
Ni 8.543127800906095 5.302933206933949 0.6807491433029875 1.174934495114312 -1.5336254976008814 -0.9858020896875926
Ni 4.7228650416806515 6.624187127644488 1.1384064281135193 2.28214304763656 1.1781005515471195 1.4113746844880597
P 7.390380814276772 6.371921840587766 8.461676866309459 1.0501313478932817 1.0695858570734675 -0.019600804950063017
P 6.032254908378376 4.573032315451101 0.31184992934800737 2.7766656872441797 -0.3188291332946251 0.3248897376664082
P 7.757755450582231 8.753756797620207 6.216329910185856 0.5869985354508536 0.9250528355236779 0.6158200876682361
P 4.993206663000991 7.217511271357774 10.479935552675505 -0.6838936434077061 0.39123576919181 0.7086294555914893
P 1.4017706778258507 8.741995503130338 12.211710965021412 -0.2548171492190386 0.055936406156303665 -0.46345085790347923
P 8.462274739897508 3.6252718935486943 5.9959546398090895 0.4459825259153868 1.0131141472389842 -1.2221214372127598
P 8.40804573710665 0.9600822228810706 1.9608740320432767 0.7779255708841506 -0.7363773151287188 0.06193736093474494
P 4.5597856787659286 4.30983715186289 7.062803072853194 1.105681060134128 1.2119861485509709 -1.3520989295458778
Ni 3.6583417763875623 6.877909731572076 12.50716327703974 0.3570123292325658 4.039921175493087 -0.0689245908858555
Ni 1.1664233449559063 7.740669344448816 6.129303804380678 0.6013766585493966 -0.21548698416084827 0.19646442031175843
Ni 3.925469827172148 2.3794341209054384 6.659652241545471 -0.7635137663341948 -0.29962427823140014 1.1593014165627455
Ni 5.568211586305513 5.633024819959769 4.799749716748575 -2.0075340605025747 1.9531925096372165 -2.30071001200547
Ni 2.0228492345092706 6.5307133288632135 1.3381214293133243 0.44562719945849705 0.9716365968204879 0.32736879533452007
Ni 0.6124635719506503 0.7898704148964389 10.456814660012736 0.7325792815388673 -0.5628335081688758 -0.33436271015384994
Ni 0.8624447950655345 0.8021763348579194 0.44644715503464444 0.30654465950031723 -0.6026493546142331 -1.3870998711010951
Ni 4.072574755156231 5.298701382943551 10.713163236840323 0.748748177989246 -0.30758621339095416 -1.1793966446507236
Ni 6.486097012355181 2.0086030279190803 11.72242243069325 0.6861844963244118 0.2990290678495624 -0.3945990292370882
Ni 1.6433116073969734 4.282372333911966 1.0982265204642947 1.8259005345560617 -0.2838114795688596 -2.059418150966376
Ni 5.568211586305513 9.088659424674846 1.7577259285996063 -0.4941290037136264 0.024854597149834613 0.09726637525334217
Ni 7.724816352590747 4.902058966148213 4.332569426693427 2.041839261542348 -0.9811355374498586 1.3349604700933784
Ni 6.865232943150509 9.163561775127402 4.241673957760606 0.49510730846649575 0.5514111252645472 -1.883803063299801
Ni 1.7523768283415453 6.18152712811913 10.932978000728294 1.0774097239932605 0.5239545717154911 -0.017672477579098594
Ni 8.455492611383095 2.622114747003776 0.5312854171785609 1.2482636428257663 1.7255948582557636 1.556656668388732
Ni 6.74588242813656 5.497223439499706 6.656164957007689 -0.8969625050453649 -0.2814056983408444 -0.6170156506382342
Ni 7.649063900630189 6.663927037700009 10.520939404863256 0.744211466461157 -1.0733851762148998 1.3776898906411046
Ni 2.2415868917612753 9.090434361889363 2.2299376985691652 0.20837428437546696 -0.7825676976418522 0.053034916238792536
Ni 6.625074596251746 4.5927808274062905 2.4744455758209725 -1.291411124747518 -0.13788414877470448 -1.5958089131081614
Ni 7.534982146610907 1.2417273917254306 9.437971739378908 -1.1711428892823637 -2.2716830286455005 2.058284037361932
Ni 6.102990827264226 0.8904402258258509 7.727566571095766 -1.1626623626151784 -1.0943977739108248 -1.2361753442026646
Ni 3.0994140475366256 4.890325696982784 12.570549087502533 -3.0887176497159707 -2.0888158874022027 0.9867479985406297
Ni 6.561316983151386 8.333647842494011 9.353679971061565 -0.6126378332855126 0.34328315257193137 -0.747214772063855
Ni 0.8404673356399072 4.639489701472488 12.207937822174344 -2.154731259148089 -1.157865198336851 1.1056908303261408
P 1.0912967919078338 2.2710134824229797 8.577374747371431 0.19270829570343584 0.9522697622581019 1.3284486371167896
P 3.5696416245358527 8.180302608934683 0.6646775539142901 -1.318378397364981 1.983169001394649 -0.028098043787796775
P 0.44946735083176487 6.507517702001939 3.1400703857013252 -0.09586769513360263 0.2323696188487998 -0.35436357875580904
P 2.1161922484431606 2.9510106128535014 13.184696047274528 0.09316238038729761 -0.6145445633899222 -0.3105463244605426
P 6.826819565118468 6.745583491342536 2.9074302991722574 -0.049110384373405744 0.4207286364446045 0.49037005089182645
P 3.1939528086466096 4.888971139634863 2.8966424176179286 -0.42092249762296535 0.6206846148493891 -0.2026062715434382
P 4.677389281889801 2.9819599128097645 10.208191730955697 0.3277593459047194 -0.954329473000608 1.3995370684231832
P 3.074209939090505 8.72705800520397 6.700751379836318 -0.17562562918953625 -2.5658249436060907 -4.254060901597422
