# total energy = -340869.9004325474 ev
CRYSTAL
PRIMVEC
9.22651751574462 0.00000000000000 0.00000000000000
0.00000000000000 9.22651751574462 0.00000000000000
0.00000000000000 0.00000000000000 13.50394101497283
PRIMCOORD
 96 1
Ni 0.8741128745500879 5.566256438458927 1.1949004305180235 0.4220941493335634 0.15745050094240626 -0.49690759490002806
Ni 6.1121341122189055 1.3674252335418742 1.6485609084545925 -2.78560541293597 1.2172242570214586 0.3309444285009204
Ni 7.878172575756257 1.427545220733748 2.9703130357046903 2.2940035465195723 0.9022206681205107 -0.01529677825807043
Ni 3.0433113958435283 6.930332446194993 8.322654514211782 1.276311035881286 0.016572559646700492 1.839595001324019
Ni 5.129223990129049 1.9800014013795169 5.046719549142484 -0.6778888319745229 -1.1896931414807252 -1.3980342586254115
Ni -0.1753914819711365 7.72497548132196 0.3988485061884466 0.7889342632898284 0.06629486657249227 -0.12960031149935744
Ni 3.7284541228070283 1.869698386204739 2.7495916738879926 -0.6203100051187898 -1.5191537863472677 1.256698146746365
Ni 3.1033206648269456 7.059088496112518 4.4757457481323675 0.5428802049754006 0.20209385068339386 0.42910451921312553
Ni 5.713539335258172 7.447072778096172 7.793232334183649 -0.5735876613615865 0.6113355695343213 -0.4684020312611675
Ni 3.1838589349616706 5.327483395405135 0.2948342852539974 1.2627973176655671 -0.3476357731136723 -1.1133627450491022
Ni 8.291557460063302 5.172136522423309 9.952404399049616 2.233523486856644 -0.8767664897134642 0.4931748673304733
Ni 7.117427765451717 3.602752050139427 0.1018266136656963 1.4448455625519954 -0.6362855546114398 0.20833031851140896
Ni 7.579584020583847 3.258704443878257 8.751849958686416 0.6580206322956861 -0.6648060306486357 -0.938495591292145
Ni 0.633400417544834 4.033722676556313 7.93163378536121 0.27270637079463356 0.74792439653637 -0.3762290113703327
Ni 0.6603150913688693 6.212804643257969 3.5814203419768105 0.3023049103873568 0.9914232925291119 -0.8376409844669122
Ni 3.7120309218859826 4.159738450814541 4.319546344945426 -0.2855122643100502 -1.780080905118786 1.1842583436183993
Ni 0.3114004971942997 1.911771305418205 12.36157448800339 -0.642148698260436 -0.9929494993656512 -0.04874245951102573
Ni 3.9107516530306383 0.4222838603117368 0.5384780068281368 -0.3234028687082366 0.387972525059506 -0.2100110486479415
Ni 8.205990737961178 8.016330446875214 4.957891253149579 -0.6162844288991643 -0.18506723421841031 -1.0055057387641069
Ni 8.84789800452242 6.74613425339288 7.72594242034248 0.43854689557294796 -1.0562927395089874 0.9793087686537649
Ni 0.43725480739852846 7.215330341279367 10.415886504728014 -0.49112286989745096 0.4393143698665917 -0.5378454707649706
Ni 3.945175789343235 9.315184203313034 8.26600554285502 0.7095429685446941 -1.6004554107412372 0.04785748580291113
Ni 1.9389341725595306 5.488320046222929 11.1211974760136 2.709103009702857 -0.27786451795680533 -0.5275800842832203
Ni 8.646436997718466 1.1716200818865725 10.040058159381147 0.379814671839062 -0.3692458951842802 0.5922309874943865
P 6.165906255459275 9.624733861122637 13.396652261962736 -1.3556989881923103 -1.8393067806596386 -1.8804752844781487
P 9.334375359445492 8.65263721739203 6.606883962617153 0.13324047935510602 1.4194510337382908 0.8333462137463002
P 1.5254754761135132 4.319163444474515 3.8497034781912043 0.36784207285821807 -1.4611841518110191 0.7133260897362103
P 4.4232939195278425 3.4399962837083877 1.3720680170831498 -1.653282581844598 0.055659755456149304 -1.4717187327937555
P 8.517570229592485 3.1998023569794047 6.256524495822226 -0.6116279039637595 0.8794165257418017 0.1932042615032479
P 1.3734962819722383 5.734658833521248 9.058281053624494 -0.12150596452699719 -0.36043626731245026 -0.7619209679257781
P 4.721919380769738 6.856040528320688 2.5285722955602 -0.5578738501707553 0.16931768469363742 0.48298507128166496
P 0.010450876226555475 8.173024391393259 2.665151509556914 0.6830814319190558 1.2986690918615118 -0.4387016759832573
Ni 3.29766802673757 4.152440275573784 9.126624635749472 -1.4715901776356914 2.1150599087003963 -1.8200574455117238
Ni 1.0310356366989448 2.076483093531976 3.7143403191840374 0.6525596091811148 0.22564901229551462 -2.4298266990001895
Ni 1.7724047605235989 7.321490650154399 6.696252932528019 -1.1773086517734432 -0.214468827308979 -2.7863834287525755
Ni 7.190944655866826 7.861398767175099 12.192964496300215 -0.7338550629274974 -0.34015720534844 0.7052191443583596
Ni 1.304832539694472 0.9734621683015703 1.0382101766069254 0.3853348303263428 -0.2237890762686404 0.1827558124764143
Ni 6.016372088421414 3.1163023747684693 10.478612060425563 -0.7091444475546949 1.4649346199923867 0.20847610006065384
Ni 6.285509600144397 3.7686817385462192 5.748695134398319 0.8466912675946386 1.773366469213088 -0.3647870880819782
Ni 5.738506291265111 7.628373844443673 4.769888967235249 -0.23331655614310143 -0.16937656295603087 -0.8715407225381505
Ni 8.106030648759711 0.8322826127434889 0.8789134315384138 1.481371168281855 -0.5644517604985891 -2.497080072831209
Ni 1.5336593970219219 3.067724760808184 5.669859156718613 -0.797243554486472 0.4918993430521593 0.634488867722333
Ni 7.884741856124674 8.792206745668807 8.247788706956978 -1.4650184379554447 0.9327520039401485 0.6659056914707177
Ni 4.368119345647025 2.140358273293999 9.033920279808854 0.2960725563243998 0.23242901133182553 0.7768629339475911
Ni 4.152661711990697 7.472390341763222 11.526166853826217 -0.19333590198510572 0.8771243872735152 3.6030542387257234
Ni 7.930542288356176 4.937478506117151 1.927282003771222 -0.07927868042666991 0.6916717446912282 -0.7585492232400678
Ni 1.972334165443905 9.013827692929214 12.25833713983161 0.11871940292079555 -2.001595840641269 0.5315012737144975
Ni 2.1698831288823963 3.1579785537349663 1.831823532395248 -0.8366734783473204 1.9642788493583654 -0.5663978284813664
Ni 9.285105756682356 1.7406839938008145 7.847153947005434 -0.4092512319326242 -0.6504353637492605 -1.7336339265101564
Ni 7.9509697978163985 3.7133872199395745 3.758700492053867 0.4839407503267149 -0.3438889044767304 2.4245662219321984
Ni 6.087877598049563 8.635236005629618 10.170817286219997 -1.8452426865280995 -0.21553069291459007 -0.19791966470104624
Ni 0.15435871297135204 5.563977488668197 5.730897182388938 0.05364812434275922 -1.4373027172077313 0.4375783610120916
Ni 5.032419369868591 3.2099792056400305 12.806340603193954 0.08122089175470527 0.9224105128048243 0.9780224457421738
Ni 2.294182770909549 7.8073867344830745 2.1416306100395115 -0.1590471560055648 0.7876404841790693 -0.5961668322136829
Ni 4.655571494352186 1.2594934333315395 11.6792070974652 -1.1772911682719467 -1.578573265956165 -0.6748276765506958
Ni 5.601557093921804 3.1613646856102604 2.955809873048627 2.4411698919271507 1.335817675887351 1.9301153161027793
P 9.079815745169281 8.757348963039755 11.765254521122372 -0.20161151173033665 2.2600138198376882 0.09150890394427466
P 4.928916297996516 4.4709304287162475 7.71548969881245 -0.17041117486813231 -0.7558593351127305 -0.6950702288498158
P 8.222930623855023 3.582748960478288 11.726903579016517 -0.12244827383560848 0.13323276604562218 -1.10943589919087
P 6.47218972611941 0.5291573789795748 4.083429616242854 -0.5472171417878575 -1.0077258863438774 1.9776192752210133
P 4.379504868083301 5.3375126197878195 11.594699579557311 -1.1092577217417927 -1.7396762760494942 0.8915606173035033
P 3.190686557816487 8.687817928129078 10.269436762447404 -0.7802187377937014 0.9233726196077774 -2.2860135863355597
P 7.735521390677441 6.180641003701359 3.799684682217511 -1.1326892132918556 -1.104489353818872 1.0169378918604486
P 7.390385055366449 6.024648274503536 0.03771154445201748 0.368923478847855 0.3807441256318668 0.12256320214691796
Ni 4.974098553564135 7.4163023426626395 0.28352442026016705 0.42520235594524186 1.1695598610659599 0.5337167933085776
Ni 5.60529383345721 5.344607811646406 4.000717578615434 1.0503470634485137 0.7961325808104806 -0.7997902321677258
Ni 2.21167002605735 0.3732218541894549 6.775953434885423 -0.23741695146472014 1.4802830774239992 -0.42951178195387324
Ni 4.707415295461938 6.399853829927836 9.759608937360857 1.7013203019791152 -1.6758121304056814 -1.5438831707731475
Ni 1.507742109725732 3.9164720938008903 12.988293061667875 -0.06403460978340585 -1.6080926155715207 -0.17674071663058594
Ni 9.321458235125569 5.644820233876178 12.260457393523554 -2.3923870660964925 0.28734443242278257 1.5730189117968392
Ni 6.0040085551437725 2.1861679320428715 7.208160414630073 0.26153107090410443 -0.6523541780385281 2.4149451539026665
Ni 5.518094017780354 5.284497050971904 1.031312432220086 0.5020847682255933 -0.21824706340448866 0.9411692814695661
Ni 6.510230657241586 5.2872834592180595 11.491961385975323 0.32697824476432075 0.5047594868442791 0.7566322087230131
Ni 4.882137854923649 9.04537315582194 2.857447816655882 -0.9361553731947426 -1.4666572591104483 -0.05301460452381838
Ni 3.465240035236467 3.371000386805252 11.175132005959705 -0.9138705936546131 0.1570406670984973 1.0236320160511725
Ni 8.623324571703174 1.3036976780577931 5.079844591809191 -0.9936030737892501 0.059730325981097135 2.9011451325772035
Ni 6.151522114877302 0.049241923211023726 6.377736022485179 -0.0716695006208443 0.42537179164357064 -0.4973662797040015
Ni 6.960244815512987 1.42091135474373 11.64810727536151 1.303487596296078 -0.5272622959324855 1.3248681188543827
Ni 6.724331992844323 5.484269605096896 8.314537946880185 -0.5916473470767747 -1.122998211256337 0.34549610106285017
Ni 1.2028426166713027 9.04644343183702 4.58763941490197 0.6370504578019222 -0.8278643646961227 -1.0104054900585695
Ni 2.88002971792232 5.502030651036791 2.6330386158458463 0.6563044209355277 0.23335306580799167 -0.7830382095203676
Ni 7.125519421186412 7.394232513110312 1.971818403122845 -0.50291780564985 0.18261054514780165 0.08469445212560252
Ni 2.1739335700084297 1.4526228949491429 10.552506315401162 0.298988187309298 -1.5490099504767516 -0.6700958182926653
Ni 2.6898435153461855 5.21061109986194 6.32255868064915 0.5830796600124216 -0.670137213053562 0.4617151061592951
Ni 0.9922289046349452 8.969079083678048 8.774050804785416 1.4348845946845417 -0.4802113651912698 0.5980933598124344
Ni 3.5473468133243258 2.6022561859397304 6.710918481889818 0.3142839371261039 0.19476569245309683 0.8427574797578712
Ni 7.01740309062865 6.013299658136747 6.062864509455768 -0.012273932271346604 0.24776435613731518 -0.8187384911354545
Ni 0.7116542019784066 3.284418747792277 10.301251639647376 0.04121504078572902 1.033032483429466 -0.11602951479345823
P 2.5641691222306986 1.7996783458733807 12.660363258602759 0.7268554916812127 1.6623400640611758 1.6942790788616175
P 2.0703197799278983 2.135615843365113 8.563605015365217 0.3095343382562605 0.6774198627579042 -1.598429895670776
P 6.469209561008457 1.2868316043029213 9.328900344037319 0.5314531940853815 0.870533878540191 -1.1828738045660467
P 3.156963636824115 0.9839896246223082 4.947843575732152 -0.8651417609903421 0.946865303413079 -0.9136168257725943
P 7.421635269703294 7.072199377297241 9.787210986729061 0.09310453056616867 0.13897815316983164 -0.7121428680613864
P 4.098843436163471 7.800023973620718 6.286651842994973 -0.11560194033773638 -0.015937754276179 0.9461489940723448
P 9.238604109130629 2.9403342354616213 1.3467292324261448 -0.4876945609421924 -0.25639246412595845 -0.04030229916347253
P 2.103415297739017 7.099740531650792 -0.041780438612793465 -0.475233195250388 0.43289766770697063 0.1847281057114367
