# total energy = -381163.4692431988 ev
CRYSTAL
PRIMVEC
9.29378641314093 0.00000000000000 0.00000000000000
0.00000000000000 9.29378641314093 0.00000000000000
0.00000000000000 0.00000000000000 13.60239584596941
PRIMCOORD
 96 1
Ni 5.489412099370297 2.3754360355240993 12.94888200126745 -1.688695414126253 -0.4930380846422928 -1.5233724524143055
Ni 1.7057443766909675 2.4851491837175703 2.598221106308087 0.2612150823255824 -0.10930299470290208 0.7912456850318244
Ni 8.867210877131619 3.0645145327419483 1.6727003192236327 -0.23989909445662552 0.2971035686920754 0.04646394788949417
Ni 3.5523453797284192 0.0888848435415109 5.688018455513019 -1.8682586878072986 -0.9158053487834807 -1.0166159897446554
Ni 9.004823972032145 5.854815898398055 9.345648494225745 -0.2191243238031194 -0.20821616153104788 -0.2191487492831516
Ni 2.052458371312367 8.714662667521486 12.64830979725604 -0.09799322611703769 1.7590251128897512 -0.5226034570042354
Ni 2.1734541761688515 3.5321964508606984 6.933209248237239 0.8709709660776096 0.10084123708879408 -0.6168698690889893
Ni 4.288636311747016 8.522931854541282 1.5923508890917688 -1.7508245793568298 -1.4701441892177842 -0.609161444701138
Ni 4.783920775408722 7.917181445989478 7.083909853115406 0.058421120251370355 -0.5496105817206987 -0.676693526114841
Ni 5.567944594265241 8.303719315241036 3.7453104075396344 -1.9975905761366177 -0.7398436764107645 0.6534139867616101
Ni 4.294184702214742 0.3072265550581284 12.248113779543226 0.5120498498581053 -0.697265950949554 -0.054592747644215664
Ni 8.665154667485346 7.980667300738278 1.8632155049455812 -1.0440499175858922 -0.16530162155570885 0.4264830224298784
Ni 8.404491840938775 5.467488057304358 6.130286514780853 -1.5651559641089947 -0.0040962815565606875 -0.6994303055907244
Ni 3.5852918524387833 7.0898114074655 13.164494127724819 1.6770182348986409 0.7576336534043339 -0.23169316160706552
Ni 7.787105611841589 0.5609562169666373 0.6374217737710932 -1.9124214983674415 1.3944473126051016 1.4885697429128235
Ni 4.774190181070852 3.7057764990444726 6.35472680891878 -0.1140641635369713 0.6762106729411516 1.4076545553239952
Ni 6.436393168580421 5.737221619355956 7.678960325410103 0.19537067302694738 -0.41794773126535756 -1.128164843058941
Ni 3.107674876681845 5.974166703065616 1.6564584981492652 -0.05654370072299939 -1.1207099294427925 0.17414930175432589
Ni 6.352776972536655 2.2626466440394775 10.314819407792221 -0.8070435712960294 -1.3158497174058565 -0.22378187717978879
Ni 5.382970363981916 4.081013124060261 11.113374991029536 -0.8298070902447903 -0.12434523374800521 1.204942354330312
Ni 1.3787146216183837 1.292170882865516 6.9640051387797115 2.2137378195892845 0.7270763494427671 -3.33710935502464
Ni 5.826302561790044 5.61364214188636 5.326698346219797 -0.1853999349674807 0.33285141571564614 -0.7469196094209394
Ni 1.716106948502549 7.564231320708372 5.396342263822727 -1.8055775067279936 2.985543393618626 -0.5416424759135575
Ni 2.7785075507422983 6.421987799694366 8.446448639542707 -0.2878666234748397 0.3185542823666836 -1.024834520999706
P 0.8173160204201486 9.401780175813554 8.569509523732405 -1.3033076190747876 -2.0513793398222995 1.8577770715496844
Ni 6.589926519546633 0.027995672706750727 6.91179915255801 0.28408915871027846 0.800868295723253 -0.18647234209605307
P 7.413690568955908 7.358095138842114 5.918348222078747 -0.9454725368306104 0.5870144762904536 -1.3943683797380502
Ni 0.6829167168491685 0.6510102188345132 10.90223875209186 0.5821617761838426 -0.8391851890255805 -0.9120489670648422
P 7.105657313240161 2.588031398923138 0.47801103229937014 1.7627586117902543 -2.1560993431402093 1.892142436403432
P 3.2067745208315253 3.7952570742928193 10.92464142415627 -0.9306961498523841 -0.25725841167067953 0.36450426673423675
P 0.15816351533978198 4.156618076246105 7.332003762964236 0.2594556764323145 -0.586051598156552 1.835849675348974
Ni 5.586374172653015 6.204745543106277 12.342202214077835 0.8080866678485631 -0.5476843112322631 -0.6133058058868147
Ni 1.5834009728096585 5.400349744508964 11.233375431364925 -1.5689712240900269 -3.073462009108481 1.8337385425432418
Ni 1.7570367837117016 8.15758381823179 1.3032369943059199 0.6180638893970904 1.3318219244643967 1.8648483765741688
Ni 7.847989206404523 2.3702779840842543 6.899774851742023 0.2668553113304953 -1.0646621945196049 -2.285855977711773
Ni 5.760093627632459 5.892279151288176 1.522719982789768 -1.7663499286859385 1.7879788198096238 0.7819961414090983
Ni 3.5737768511163175 1.1762866605169868 3.0085919613476446 0.20919266651170426 -0.9165327138678085 0.30171304243962876
Ni 0.8722292866137905 7.355046776910097 11.0255440628633 1.0523067582780459 1.7578963986019467 0.18671454001384616
Ni 0.5949036304699233 2.180192171292974 8.766471809064841 -1.0953411116607008 2.32681545084327 2.09325309723795
Ni 3.826214676718271 4.758111930636739 12.760434683014628 -0.7886578696999901 -0.8636363800894095 1.5374348440446426
Ni 0.9758661572732595 2.9183883295190816 11.384770282085537 0.8333081614195132 -0.15708077630781334 -1.121193296837114
Ni 8.227891312182116 6.87737403843489 13.317194755431553 -0.2696912381173936 -3.025343042114067 0.13605995108177213
Ni 9.115921894395953 4.124061942563621 4.078324431661077 -0.4519459425876733 0.08085399533358979 -0.5401962303853343
Ni 6.63753858716164 4.456417037230856 13.69067578420052 0.31798324035456205 1.563810505824694 -1.5388528074380916
Ni 9.007863040177785 9.22951984529547 6.57942454093938 -1.3427033472635908 -0.44129489063173033 0.14805234755695793
Ni 8.923875092678895 1.5973881213086993 4.582103416072367 2.4106737802208227 0.014353440508194634 0.48583539624626654
Ni 8.239406313504583 8.219601254732853 10.708376873895158 -2.8306470265566412 -0.16025788848421432 -0.6065728580383554
Ni 0.6232357382435614 1.7345737020358338 -0.0231805619842571 0.37961104046868815 -0.890390251144486 -0.7056693445219008
Ni 1.460137484076918 6.591673751385716 13.462467789064911 -1.9848062798877562 -2.400831340209104 -1.0457247341851539
Ni 2.9214738665966107 2.222432430381439 12.732481761725216 0.7241568618031271 -0.8676748118248412 -0.7564635443556327
Ni 3.518748341971587 6.095478496658955 10.609242842735878 2.257343986315009 0.3339117386593604 0.27919943471814496
Ni 5.156053275774226 7.32167279002634 9.265272112113383 0.022860963758573532 -1.45148055137001 -3.052593650299904
Ni 6.904010030194525 3.810721934825978 2.794135981915711 -1.1637144580287766 0.34718942960487303 -0.0720381968141727
Ni 4.457104777422835 3.4347603944726974 1.8826125664953135 -0.7343595133677417 -1.6594285468413357 -2.8155394814912413
Ni 4.688204069500671 0.4508536591239241 9.71481720611527 2.497192430039357 0.6631628386182579 -1.06300023343615
Ni 4.850482873448676 2.6772052792210075 4.139249848262712 0.2696662984167291 2.897209287857907 -1.951543404069568
P 1.0954307190275165 4.664151750354148 2.1495050180511255 -0.5974516124633775 0.5328793850089468 0.36287007356492346
Ni 0.3243466389452265 0.7178065202911937 2.113975802106287 -1.536645772484444 0.6955176007998796 -0.9619939315244014
P 7.108240985853272 2.6783855900910263 4.592875843863223 -0.40623172838001 -0.22110767278173532 0.6962295392652397
Ni 5.677090821489648 1.1257470501928788 1.816423149289123 0.20935773133465882 2.1791415696716534 -0.14415429805413238
P 8.40479853588925 5.64113316199278 11.603129651796273 0.46106127462538016 0.6125247047464162 -0.4278865876456243
P 2.9091874810047624 0.8402530852012995 0.9189156931055381 -0.42726720889407055 0.4558779306522278 -0.6213597865395427
P 6.3510576220567065 8.429046024549715 1.7293273596253964 2.2271661771800484 -1.179911122393297 -0.10894278315000593
Ni 2.026723876831408 3.6469468312710993 0.5716096842918534 1.895784661141709 1.0571049509976376 1.0771091620337063
Ni 0.7692429810007884 6.503457131084791 3.173153319230111 0.060378758198373426 0.05697461761283091 0.3458300873635012
Ni 6.469506929445592 8.210279586995618 12.917066582359299 -0.5231924967384861 1.967837256133585 0.3711832214163091
Ni 0.5824592505096474 7.169208224493609 7.263515992386741 0.3850682069285175 -0.5265542141218674 1.5987263438652726
Ni 3.7605819573161283 1.6358643969140334 7.564169981718277 -0.6160751411018357 -1.19778851689435 -0.5487186660340485
Ni 8.027387164860988 5.80044724808617 1.7764728791642221 2.1190350912980604 -2.0922107720163643 -0.7438191161187447
Ni 2.742717179400235 8.73978377210149 8.005281893960676 0.15432275394670197 0.13128464118031583 -0.8810684595229278
Ni 6.628021749910466 5.403593275954921 9.899701286670728 0.6351383283808739 1.5283940739986128 0.9154345957076235
Ni 7.502771511389997 3.5663789971593505 8.677525626533235 0.016011544936907908 0.963470773180244 0.2639509931995067
Ni 7.137572175662555 6.56842069786771 3.6381102991828014 0.6689701893286544 0.4569539373252259 0.8976973263288605
Ni 4.184889774408285 3.2583364476572245 9.001875053614375 1.0548477795323448 1.7521733800752406 0.13867064923174183
Ni 1.686301775587982 4.426546807811643 9.163811846223666 0.05872348198313758 -0.9516454984105416 -0.3549199654799113
Ni 8.846058219335063 8.39076491845832 4.454186528500112 -0.8365228117020689 -0.8746574137902615 -0.7127344788987983
Ni 2.8826444271089087 1.7797693851925342 10.135008805220568 -1.6764659619395967 -0.645207796801734 0.6041498504191596
Ni 1.304410799525474 5.396251184716221 5.530734132364604 -0.0717214369047023 -0.19622659326933947 1.3450487075673159
Ni 8.072434147435638 3.697495735381585 10.916630180298348 0.3465628517644677 -0.28087965063404535 0.5228613386513125
Ni 7.768294988212315 0.735238875400596 9.210426690560302 0.5587881344549086 -0.10464441288496816 -0.73106490177687
Ni 7.9424605449379095 1.3495414261775276 11.937693879485584 -0.6039007105228309 0.9263275884710434 -0.32038567914846755
Ni 3.0237148105420895 7.349498386442371 3.535534778927712 0.9939180339265077 0.792950326427757 -0.40078741743598717
Ni 7.084579005734629 0.5745112043990963 3.772951057606742 0.007882488071870294 1.0026541282479249 -0.48353785846134145
Ni 7.6535539015882925 7.671156332988414 7.978825272278139 0.6284894556057885 -0.4841762633762888 2.4102289793739198
Ni 5.243981788697431 1.4411409847200816 5.753935564778331 1.8946474622134724 -0.8173212990729537 1.2669581339114762
Ni 8.974916567467421 8.807842169748316 12.883305044583574 2.883854720927872 -0.21764388260285097 -1.242870239724337
Ni 3.521332014584699 6.55501905791049 5.645239156814624 2.1568133384880985 -1.893972804743951 0.7363261501758093
Ni 2.974364804874378 8.494706625310991 10.264109721177393 -1.4181156027563189 -0.8882158692009865 1.3872525946288754
P 1.9026982976156632 2.197692371042937 4.988461214153862 0.29422599003396427 -0.10229159638207545 -1.2244308020722268
Ni 0.2351959931133019 4.112398240659105 13.126448154428791 -2.9958923409531177 2.174194767189339 -0.5695039782105159
P 4.486686899464328 5.204957179695788 8.153003840304663 -0.40052053692784567 0.4967109055081897 -0.6927176694572392
Ni 2.4272303070092507 4.33562569567469 3.955617640732384 1.6500069964171198 -0.3074286047671673 -0.5194525700800796
P 5.345256178859587 7.9808252951067065 11.046383520058916 -0.21208875711257666 1.7030871640715506 3.568751608789112
P 5.842492337660695 1.9137857847647366 8.02506000075191 1.2253132046771802 -0.23536829646580756 0.5405070767575336
P 4.626363214940793 4.907147088995951 3.171153296401544 0.2928010846619796 2.1637794853932864 2.3709659201082394
Ni 1.5401569847923593 0.08439036844906171 3.697172311615627 1.7453501865058199 -0.5335499287134101 2.311629487131451
