# total energy = -340889.36830134224 ev
CRYSTAL
PRIMVEC
9.11170665460778 0.00000000000000 0.00000000000000

0.00000000000000 9.11170665460778 0.00000000000000

0.00000000000000 0.00000000000000 13.33590371443878

PRIMCOORD
 96 1
Ni 6.392809765865112 1.8966563896776791 11.693146872702103 0.7620608359377521 1.5365853515601537 -1.2985906732150925
Ni 4.733677342665064 0.34120151951452377 6.077864539959686 -0.5786599336781713 -0.1166352666982572 0.6672298095987799
Ni 2.837412756369253 1.6042161677926259 5.304275186410094 0.3603491069152826 -0.8915351633822065 -1.2262431726906173
Ni 3.3494542179381095 4.184250549100745 4.910426226420362 -0.48630436546288514 0.6813173980400975 0.27983012632360843
Ni 5.067411818657707 4.441975169010972 2.9012794411257232 -0.6500437847377966 0.3681696314009659 -0.8601458504376478
Ni 7.322431627146388 5.884449433744506 2.466555365529935 -0.9731880004680079 0.39759513575093464 -0.19985493405054613
Ni 5.059001713507374 4.399350605746342 11.609877720007264 0.757111976572909 -0.19805670449954274 -0.9041004016417268
Ni 5.73436140336935 8.046165367109245 12.194936753225848 -0.5325891074620376 0.0474759340937763 0.9666265452004063
Ni 1.8039903340125913 6.700512096229912 0.6514350819603225 1.1454997347929625 -0.15219619452200242 -0.37036586772133634
Ni 2.8555541641204027 1.34155300292955 0.4462020923432131 -0.18487080193688807 1.9478993795590773 0.010015218144156946
Ni 0.35340938395701 9.110859166362916 4.751088902721152 0.6138678490378718 -0.2940051322724098 1.0674127606815487
Ni 8.503081004019911 2.5135462585757553 1.408191468820073 0.6484622991832897 0.0156670171132956 -0.18618566409356968
Ni 6.704020103253615 0.7274030241925843 4.781801732006335 1.1321662509088501 0.33465298770075913 -0.05275800842832203
Ni 0.9107970755384958 7.3790153248533885 2.8092612277967013 -0.3248470573539309 -0.5952229802431749 0.11539188120945933
Ni 7.706909196944229 3.6842274284780294 3.786409750469235 0.19137826403810265 0.14016908815413925 -1.5257543223829206
Ni 7.631664724212439 3.9042933651961413 12.55541955498156 0.7512871423610158 0.0417652568622442 0.5685393003044015
Ni 7.739957356619477 8.873544769136052 7.165234643316966 1.2693106933040526 0.39701612331901304 0.35230386801330293
Ni 6.856786975355961 0.7793679978468184 0.574506765857156 0.372678575014913 -0.7546881976227647 -1.5425554531006593
Ni 1.853585352791851 6.7288039450834125 9.328611640786693 -0.05070498255403525 -0.11083588640766072 -0.7737169321194417
Ni 9.144235347474147 4.982882516946297 1.1692898123113151 0.7279191570590368 -1.8643930342043054 0.13090694612592293
Ni 6.3943496442729195 1.9769396361344231 6.949073072857702 0.5196230342196728 0.6786239103683345 0.6857026715919868
Ni 3.1169508017723238 4.380507596590453 0.5836831655287695 0.4951792993550117 0.05081374021775765 -0.5754242003496929
Ni 6.378486163160538 5.677786817368905 4.688330201481779 -1.1982418023816848 -0.6306062448384752 1.0560772810640715
Ni 5.013953436299095 2.947345495956203 9.55193410142759 1.2845251962609618 -0.25546789542916 -0.35556454104244567
P 0.2786760779629605 5.927292677966457 12.585425315838071 0.7174768786797902 -1.2086154323065248 -1.8536051995601819
P 4.250091740667699 6.043694729207508 12.57122289883068 -1.1121923788900845 1.5447930841819266 0.565543193790555
P 2.6776845404588316 8.554844608959279 1.6429035626548083 -0.4952464051475213 -1.3595175906074521 -1.6818377677744711
P 6.456828616121052 7.905972650052899 5.779874377611938 -0.5239075205276397 -1.1433083835685989 0.3467387152206996
P 4.869295983030764 0.9509888131529207 12.676963342231641 -1.4763652304268315 -1.5640059096649517 0.5065091225455342
P 3.9548906716964596 6.166720991114098 8.070622098673715 0.32879498625808534 0.5415234338371899 0.17401380461772611
P 4.635398475762052 1.1164118456602625 3.9861547592282243 0.8384886771791882 -0.17090508378541533 -0.8576567654672068
P 0.1289534270206641 5.353938542988518 3.364128621345054 0.9795915900015065 0.5087356978832077 1.3277595814695649
Ni 1.1533689274476369 0.6001780879054174 2.617211055223471 0.27230296470862786 1.3682536849288696 -0.9029192368494321
Ni 1.8688565729781528 6.366732061704495 4.904958291316662 0.2511566696483158 0.358882292561769 -0.5401327241372504
Ni 6.115030279827171 5.704538787814599 9.159578550142234 -0.2377439957868357 0.2170982945120261 0.6717834904077334
Ni 8.792805937351554 2.470648344114473 10.511679264579936 -0.20520359995696916 0.44322090400984954 -0.1657165976059404
Ni 2.002707542272168 5.308288893147603 7.195053614189096 1.8731710375072517 1.122836488867492 -1.719055257365033
Ni 0.49522671829212545 0.3430202161429163 9.3993585751629 -0.24139161984175203 -1.4169992297636886 0.6838237094017191
Ni 1.6575105394332452 1.2038751168824038 11.550306293720853 -0.99303923086598 -0.43356898274238237 -0.3375889304006315
Ni 4.180378073814839 6.585057662470588 1.3881876282490666 0.24846138220433983 0.6917884727747504 0.7620765196670359
Ni 5.589594609622358 8.041427279700606 7.968255720210097 0.3508342254463119 -0.42463182815375256 0.5391685604517683
Ni 5.349264237525765 3.0637384354907 4.767171975961511 0.33742463690862534 -0.9587270878476712 0.644344163249858
Ni 0.5337136556100963 7.300636425066654 6.794829193122778 0.4006002411258456 0.9456460862939972 0.182897223150285
Ni 5.376635804017203 4.863382485476522 6.922134312427629 -0.7430729819813395 -0.5970222382354428 -0.11905518899365947
Ni 8.539737399490969 7.240216698899968 9.346521611191346 -1.2446422440230953 0.6654678326023507 0.3864095514477603
Ni 4.737832280854177 0.5304534870046914 10.29283703005217 -1.3111114313899226 -1.3284411809176218 0.7344955247249737
Ni 8.195159992697791 7.118721203694631 4.7464346430128215 0.9867991634935392 -0.051725710509065756 -0.5929989760086626
Ni 7.477640436605494 6.138392695434377 7.126960008761728 -0.3427874438824354 0.07714235080995747 -0.33745883258067044
Ni 2.332551319565794 4.824885525281341 2.777988939729037 -0.5125596996149882 0.9659146067350461 0.054516642990641594
Ni 2.3794492732047523 5.710652742913052 11.400836948220789 0.5626010804430956 0.5877122736884266 1.9922550228563174
Ni 1.405744975610036 2.706286187335204 3.7799285935966123 -0.8936282984658093 0.9545194775242273 0.11126603196654387
Ni 3.59506026813009 2.3237038525008185 2.4759440679642815 0.38240762937721884 0.8379587728176473 0.8925466353658565
Ni 1.361516751991714 3.4576921801058162 8.18749795865563 -1.9982577774069716 -1.271186827280843 0.7285213094194098
Ni 3.7309522596924416 2.9097505947099744 7.128826997434863 0.3540105662917645 0.24022922410253464 0.7442451479125699
Ni 4.171521495043309 7.1062928359535125 5.89871016567385 -0.18923242133969345 -0.1817386840658096 1.0940923268552643
Ni 0.7526579412512787 7.872031543135253 11.561468134250818 0.7034173152629305 -0.7355651036400687 -0.48042913762903067
P 0.17616755687708344 5.615736095728861 8.22583910866872 -0.39520092448714517 -0.7147867334421367 0.2134581266562775
P 8.49725862353122 1.6194600528592624 8.153691704995 -0.3379350008861406 1.1471529541256695 -0.8210974782859344
P 1.8887929869206515 3.307831942394538 10.201672583627358 0.05254563530719983 -0.7622235867678615 2.539456480914891
P 4.11389906278903 6.1472037156731325 4.042992673548111 -0.4572686403521673 -0.8011038087728267 -1.827388431955498
P 6.959949716972493 4.078609423301234 10.508172168726889 -0.30710901664421947 0.0681242064717472 -0.4082325608601228
P 6.424445611024325 7.939585735534561 10.064686276107741 0.2515680461541216 -0.3477363032472785 -0.06218058729380259
P 2.2731338811201662 8.649451458120597 6.004117120614895 0.6923422883956916 -1.9528996609871463 -1.1485971427713637
P 6.53632825581406 3.8176957060967323 1.3942824487637546 1.499453993925495 0.4405878372623767 0.43898424022068266
Ni 5.044787451281461 2.8733948855552347 0.166378850524969 -0.08558533937098808 0.6118099380675786 1.4307829138113424
Ni 1.2385451603244548 0.945503565806767 7.077710323660906 -1.081149907761983 1.1954482987969477 0.7241758879665205
Ni 6.836148960008722 1.0628714579426564 9.452888940003296 0.4510853943595909 -0.19998811719430074 -1.4151773460636015
Ni 2.5051361534254233 1.470693219934593 9.113423200587514 1.8381101892483762 -0.015148682715980362 0.5858122284522363
Ni 6.431343172886515 1.8525921767773483 2.6245988268983234 -0.96111538557419 0.9519805131524574 0.12603084898054426
Ni 4.164040783961594 7.004688196157899 10.411979882624985 1.0206302531103713 0.0975931624651416 -0.3184318978562064
Ni 8.561195468428165 7.247378500252255 0.6097134888153009 -2.0815795175547636 1.530722207911157 0.6523534067075797
Ni 7.829753224719717 3.7606290879423128 8.517121232650624 -0.15855376130891405 0.24461681164726903 -0.8435817754313795
Ni 3.218892574710475 8.454962081702574 12.689605835076803 0.5434944415206318 -1.3069495867027492 -1.1820947603081768
Ni 0.33124789127376253 5.016541160960736 10.506651424902847 -1.5022138160588192 -0.4324168714158102 -1.0255729418276271
Ni 8.759129069924006 2.3159862370486723 5.524077794808764 0.023087992167715076 -0.44424188907519624 1.4712374222819629
Ni 3.604873576089903 2.509409543799752 11.589860211876424 -0.1774004617017719 0.3187370878014511 -0.5176186021951343
Ni 1.4420551262319998 3.730359998766362 12.313693269440732 -1.105475371881225 -0.9135592330617816 0.9107323051359476
Ni 3.1863911174285313 8.333603262095563 8.062020647685726 -0.17644966775272838 0.396064300928705 -0.23201814904665205
Ni 5.70290779234124 7.8042404463655135 3.6591182987242163 -0.9471218995085753 0.1701934024303714 -0.4881398760097271
Ni 3.0875564364256594 8.574589677064122 3.7079944038562807 0.751445522315751 -0.3596862765203031 1.6462501004778487
Ni 3.45063971923219 4.615753636429315 9.538131688337966 0.10888878998361894 0.5255208877613465 -0.8079352298723634
Ni 7.5190440311917435 6.552774886145966 11.557747824464382 0.3974812358808897 -0.9300500316279531 -0.4969456472268151
Ni 0.9221684853192263 0.011195553844217627 0.2727753367978955 -1.1433173824296632 0.1133015743393339 -0.10067900047931692
Ni 4.7610944676892775 0.23717954396984917 1.5979746488024014 -0.3137517187717177 -0.8947292448394719 0.6396465006638725
Ni 6.205473079092821 5.736858010965441 0.14648526160327915 0.34752393012615634 0.4445457934688602 0.7187089513146784
Ni 7.8520769057796445 9.128745446330523 11.395356256727911 0.6748986389979473 -0.7355620183162751 0.09244170017118918
Ni -0.08139669699777399 4.776538810300125 5.596932266911158 0.7926993867592155 0.6755321588168882 0.21339821995261962
Ni 7.812349865199528 8.776978903065393 2.598594016390147 1.0059847352830547 -0.5594982731480558 0.6664330247290974
P 8.516593664841086 1.504616103439128 3.4816842146359774 -1.1672792925618993 0.9915166235738666 0.3886551529488274
P 1.6435878518170943 2.944010611357047 1.5897066862743285 0.09928597678653224 0.4504135651035469 -0.8525143020343189
P 4.670724562076068 1.207009543937349 8.210915955672823 -0.039413983021248246 -0.08613889788161294 -0.5155686616446411
P 8.518206436901332 1.7199712878682674 12.57392998684819 0.7092560334318946 -0.17463626869307344 0.8030596469476169
P 6.391561462067067 7.75613063575473 1.4191400954166482 -0.39525671742574503 -0.9373254822434438 -0.8915058528061679
P 1.7390512013945894 3.246956630900099 6.111484914806592 -0.6135791141528594 0.4335327301878082 -1.1228868824894533
P 7.043431172430067 3.861905706301944 5.869677535077422 0.11116601605356984 0.21805088823328253 1.0541116726972686
P 2.594066409402931 8.501750694862872 10.377920323522124 -1.0433174102952418 1.543364579265516 0.1791120450762399
