# total energy = -340881.41330619896 ev
CRYSTAL
PRIMVEC
9.10997356656106 0.00000000000000 0.00000000000000

0.00000000000000 9.10997356656106 0.00000000000000

0.00000000000000 0.00000000000000 13.33336716490077

PRIMCOORD
 96 1
Ni 6.484925525798751 0.855434710599405 2.0085113863788546 -0.1618720270488696 -0.2783980218627721 0.4932031494652473
Ni 1.469930664073043 3.5604782728141826 4.570451840870706 0.7357404528756684 -0.06350290564965193 1.8845497116578382
Ni -0.02776993221918178 7.440388656422378 6.130682384267626 -1.4437502726052878 0.707325134957769 1.291357645801763
Ni 5.3670862275162 3.564987709696542 11.81524298927275 0.09493875556143004 -0.41600680548890295 -0.24887044471730044
Ni 1.6722813954487168 1.4855633785985543 10.336585881584329 -0.5397635137232897 -1.3414604759954252 1.102422443987514
Ni 0.4492802070748534 4.849047584454896 3.0561146109733017 -0.7567407092764192 -1.2449353497834819 -0.7435743470977904
Ni 1.872172433979467 3.345519338114903 8.919342749246889 -0.6939541129675016 1.3392894364860355 -0.3919651911586669
Ni 3.252187659610321 3.8760750847648158 2.5508463287638983 -1.255474558751909 -0.15916439830971943 -0.35839301163017634
Ni 3.5293312734186566 6.600221350411146 9.008329881389457 0.8718137736938791 -1.4778325590009775 0.8794064984394726
Ni 7.984563813454366 0.11868837874368925 12.987739395561542 0.38520730360954303 -0.6280479971929958 -0.15524860819508102
Ni 6.517293261643239 8.83579973726775 9.649184632187172 2.069127922054972 0.9698136846791363 -0.2319623561080521
Ni 4.438087569909245 3.905600508877393 8.464568317154358 0.737161244482595 0.8400285108624823 0.12101282694066255
Ni 5.486508870123966 4.022618118481234 1.375136834821757 -0.2672720871529397 -0.2382798136856477 -0.7074434057031881
Ni 8.437539025780703 1.7713159173641204 9.01082237013898 0.4631631514597314 0.48643086373842026 -2.101077992599007
Ni 9.089011450692334 1.0116625571433706 1.645697581779198 1.1834476747916458 1.7084990791157415 -0.9555165513301737
Ni 6.318413430170957 1.8760259527698466 13.282820547190816 -0.1907758545674134 1.3136863912059504 0.332223295213344
Ni 3.979090665099595 1.2029173407963911 12.185791161373666 -0.2390408602213883 -0.5571984213702855 -0.6473826929658657
Ni 2.2439049026353453 0.363575398384233 3.1970613879688448 -0.027614162172842766 0.22890762844212836 -1.1067185002597069
Ni 1.5757521162457346 6.119515378751675 12.401150934906932 1.136850800868713 -0.4222720696723244 1.9498459617624875
Ni 5.558213471540224 8.322316080956305 0.3997957420217505 0.668395547772107 -0.238932359667982 -0.7016957045861334
Ni 5.526328564291221 3.8592945135783405 5.883947862001341 -0.3894105430576132 -0.2964931888015862 -0.3042090693886051
Ni 7.739605736020524 1.0182946178511634 6.725750408255772 -0.0572371272455982 -0.702400701072958 1.327219649805695
Ni 6.031549474638425 7.691213556790037 3.0845140423613135 0.020846247321389906 -0.4642296450510328 -0.8196144659825045
Ni 9.07672209644122 4.736502971839414 8.13603352083943 1.0995561781833127 -0.3074214056783157 -0.19941193297585658
P 7.34856012354525 4.029760337705011 0.10704218862165336 0.177908511686442 0.6457662404083653 -0.06302288068943986
P 2.2502545541646466 5.337988972158109 7.839633245047396 -0.2055213883077041 -0.3993722822560154 -0.06611823178531194
P 4.250677195073104 8.603404313290017 2.1139784605824072 -0.21740425578821915 0.36242501560770485 0.8025487687494695
P 2.772301585565825 8.719009877001403 9.28395668461009 0.08092084401578321 0.3378136448169279 -0.8624187056322246
P 1.2841874143873504 0.6765084540835492 12.576205452685409 -1.0381659480012895 -1.1654198707556573 -0.6541809468346217
P 5.591765503939675 5.418329828452098 3.477635817797173 -0.21224662284667964 -1.0351747265834494 0.5614811079060394
P 8.284992519527972 8.528921169956346 8.413581617471152 1.184589501705573 0.3288752046767175 -0.4724294072530058
P 6.021355414292244 0.48583306474511057 11.715709240809561 0.0060824587486540405 -0.9358964631064011 -0.516987910589671
Ni 3.2841363366738228 1.616327938213466 8.32088763711155 -0.362537372815853 -1.2994242248599814 -0.686674805697269
Ni 6.923188130923049 3.825942900595883 9.756691429457309 0.3434669864479633 -0.737820989553781 -2.0657515493835716
Ni 2.8690950540002986 0.7845982896576698 5.763107707517019 -1.003070646960053 0.0769492609625449 -0.16673963955381607
Ni 3.3933375890149082 7.462334582583192 4.519371308460453 0.851347021199095 0.9046038236407065 0.9651862132094537
Ni 3.976949821327162 6.423679173960166 2.4324731551032994 -0.43146222081202473 -0.47365170969588105 -0.8354594034345612
Ni -0.07390830400583927 8.970053416733053 10.573306720979728 -0.7329919435962536 -0.6550360957460654 -0.003760238373380621
Ni 5.674265423953097 5.901267743618999 13.114233199599788 -0.6409569919451801 0.12191656970185456 1.1212994833976755
Ni 0.8074415482082056 3.962874912270102 0.9664625126271839 0.4953572196937727 1.6864464701910764 -0.10994397072101067
Ni 7.875954709390761 2.96277291149787 2.0188448293195815 -0.4643075494768197 0.20740266449081698 0.44452111087851187
Ni 2.0403607647312088 2.005105167287311 0.707379421282034 1.2179053422488832 -0.3851689941724398 0.016024657563030467
Ni 3.190531358964249 4.700700775985534 0.14247543054879555 0.4742960281480993 1.7151165844322593 -0.4919710768303592
Ni 7.941838037740701 6.468117624691776 9.319397214516032 -0.9460924298027964 0.33671989753211684 1.019797729906747
Ni 2.1351409290222456 8.011538444987021 11.180815324779086 0.059346974499749405 0.685477185844742 0.6588924933776782
Ni 0.7937355930778841 7.987670314417768 1.1305294913676545 0.06865462505392048 -0.5359564812723737 -0.39491553203624247
Ni 1.1592805677327556 0.39589667336387246 7.964593840545639 -0.7604919487887355 -0.8733703195477216 -0.04485495153116146
Ni 5.109893455672241 1.4395944523189914 6.570829842909015 0.3542291100604738 0.3046795812671204 0.31578597559292715
Ni 1.4022617809171587 5.375713372420431 10.271759310160357 -1.1572643315280586 -0.8329057837747721 -1.2081693459080418
Ni 2.9690132433451746 3.5504390820174967 6.606256707854707 0.2721139886262733 0.18503329565668133 -0.09933328508469991
Ni 6.4150155891619365 6.4543069048662085 5.239546598520187 -1.393896068087322 -1.6545110549350603 1.0862915998639227
Ni 2.787077962582363 7.735970856594138 7.064937496583917 -0.013717349586092505 0.9493775283119714 -0.7185963369962141
Ni 7.098309151508073 5.184394818952911 11.527562780114645 1.5741576533869728 0.07058063843203972 -0.20487475586264073
Ni 3.638359436263248 4.820241848248796 10.815774131658747 -0.48058726047344974 0.09158783681132614 0.3801082918200809
Ni 4.47981124853794 5.986828614728323 6.684669893756156 -0.03260313074700192 0.3161245898792685 0.4664009416707387
Ni 5.376779239319896 1.8247368019664503 9.235889731433543 1.3437788397159567 -0.2623489388197095 0.5991565109696263
P 8.676539180545731 5.231429612131941 5.761934342930255 0.17605988851347745 0.6542092289693959 0.5472125138021672
P 7.640771633522114 7.700961228434732 1.242770741865595 -0.4572233889365287 0.09325982519711036 0.699639079167421
P 4.900974433403272 8.413552465555952 6.061295360109696 0.10188021987626969 -0.9880296934665307 -0.29404575570235814
P 6.693917427855717 2.8789338253799914 7.587885504364217 -0.40096790887790945 -0.7145604763639436 0.32496841342314353
P 4.0458758808260065 2.9031936848097324 0.11673337843065038 0.9797150029532483 -1.9436493460334723 1.1774534048814238
P 3.5057273320808946 2.536954530174183 10.399386394901967 1.3203311502159778 1.3458339224727724 -0.19798085695628484
P 1.2061513813887899 8.388609358113733 4.712745071949508 0.5718218277104151 0.004789450968843365 0.42670696551522647
P 2.0750424338446245 6.078055889354471 1.318456401701229 -1.794970934856741 -0.005745901344841717 0.2276642429533305
Ni 3.038422131439505 8.469259953506711 0.2973741319591527 -0.37011724204564 -0.26482002606802135 -0.34077272744525183
Ni 5.555926868191795 3.024893820792428 3.446568986168444 0.20844987480840876 -0.5762839772468269 1.174392506567913
Ni 6.8979443943553385 5.043572848594314 7.453245562022526 -0.5850923195670762 0.5266298045548091 -0.4261330952896274
Ni 6.702553682733447 7.5294386473820945 7.429018498497384 -0.14430522180969987 0.014738591761755262 -0.9317320473160663
Ni 8.275199298015778 8.81759801021532 3.1576079147362783 1.1148393295946284 -1.8462659855862913 0.27810723009523075
Ni 1.7597371410459823 6.033517228914365 5.81324171368065 -0.30055527468610177 -1.493263291733751 -0.5325150596909926
Ni 4.548382019070297 8.125367563865963 10.598973160317827 -0.5018579969267679 -0.13894267194620585 1.9214486415667167
Ni 8.126597410288426 6.59976585173616 3.837316702510278 1.7653903929861468 0.39672507444115546 0.9666414575987415
Ni 1.4159722910342303 6.748531718986509 3.2540479161989633 1.0001884403162515 1.5418720538803898 0.2654504605631686
Ni 1.1364145342484704 7.100194916022515 8.771142611350873 -0.6245770079252598 1.1483775705613901 -0.4192260837571489
Ni 0.32176972999403997 1.3865379666566504 4.685905268024646 -0.05302051806108933 -0.9311640906277383 -0.13227760122120444
Ni 7.33001221749983 5.379320921926317 2.1381116913805025 -0.29230100509710955 0.4133012336322818 -1.4675633158644854
Ni 3.526634721262741 4.9167437975312795 4.639144685047959 1.295128168587789 0.2789312686584228 -0.6389597590094932
Ni 6.770113246207335 7.490402410935815 11.524002602470954 0.8666553694213913 0.08893857211393716 0.7249053099333773
Ni 7.564165866363009 4.177168818903902 4.243343666405833 -0.7362680432443641 0.0814512625979565 -0.09706094411075541
Ni 8.623300495413396 6.037753366591732 0.1458552307171899 -1.1227300451966147 -0.13303967619820958 -0.3971156250113548
Ni 4.094632458996482 1.669457303663805 2.059045320379125 0.10070162618713624 0.26443873146920266 -1.5454415163992028
Ni 8.877988024544933 2.4626991361780046 12.866152223250245 0.08340427255926926 -0.21810950938535986 0.2369821779201467
Ni 8.48596764490519 3.0591199912308578 6.108948720489355 0.719652031954238 1.0755202202800316 1.162657991739804
Ni 7.151247207514919 8.632337589125113 5.166892737865259 -1.5166703578037815 0.675995728716868 -0.20595796162449048
Ni 4.75586166552631 0.5680059367098915 4.024090290198788 0.6630551093958 -0.18033974683575393 1.4660101124447527
Ni 4.770401183231854 8.514144792939808 8.306834591990889 -0.9669610457216894 1.4985451089579807 -1.5146026766414755
Ni 7.641372891773095 1.7932071836839358 11.031187654035662 -1.691044888195036 0.19227583615170757 1.2233720217904092
Ni 1.743530498189989 3.5250404759002905 11.843589582814465 -0.11660698456348305 -0.46579261866277843 0.04906976094345743
P 9.162082548133549 3.521505806182401 10.322599339270218 -0.18290905022482695 -0.22592823409883026 -0.07023585349811129
P 3.7532635320151555 2.541363757348045 4.7492651337151655 0.9506682220989369 0.7625963967262479 -0.3931165311542907
P 3.8496743815626413 6.661604351852227 12.28448405928283 -0.4067410639162608 0.9207770909664594 -0.4829740155380715
P 9.113890788320056 6.873593435190599 11.202548077560007 -1.2635164552197786 -0.19127824812512864 0.32326788579226906
P 1.2181583264614146 2.532281113768829 2.784073493322157 -0.33943215425695733 -0.4478735722905125 -1.3831887089721469
P 5.4035170115415605 5.485415673304001 9.78771817720264 1.47744586508552 0.48412869796780494 -0.0370825066745942
P 7.251529795799783 1.4568031922599536 3.96038333451793 -0.36749831636555413 1.06323600359604 0.5659160037489415
P 1.348002778752855 2.21304942239181 6.957817873187516 -1.0142006954349436 0.4002734539140461 -0.7333313292135435
