# total energy = -340861.93022923375 ev
CRYSTAL
PRIMVEC
9.29504080544728 0.00000000000000 0.00000000000000

0.00000000000000 9.29504080544728 0.00000000000000

0.00000000000000 0.00000000000000 13.60423177589706

PRIMCOORD
 96 1
Ni 8.525188091385814 6.294396954726751 12.608564460656739 0.8384369980056464 1.27352807381951 0.06635374483488572
Ni 3.028826136238228 2.172817968885404 12.142470230400289 2.5331151120778954 -1.208345723584906 -0.07423340469327859
Ni 7.520951912731637 6.780471804102367 2.102098512035584 0.07425834439394308 1.014387100414137 0.29153070258998826
Ni 3.69963991610951 9.149861290075687 5.100294701221617 1.1761786519340582 0.16495863639399333 -0.5570382416433375
Ni 3.021464464139986 2.896083662456663 7.848621610931701 -0.13749462664576964 0.17104083803233122 1.3511339945294474
Ni 3.758273031760663 2.860381411788293 10.171421565266108 0.9855966585450058 -0.4510008050655846 -1.1650159504490194
Ni 6.2616133467842 9.368750199471535 6.024511734977626 -0.946943464949182 -1.0088286324897529 -1.0473368158672802
Ni 0.8964806328202066 4.009843303653252 2.379910542347059 -0.47199026283305806 0.6955425405005441 -1.0632817692323107
Ni 0.6853391397045184 8.473991008157128 12.893532742670784 -0.4902597505662073 -1.547089593525587 -2.931550484341938
Ni 5.134041275362878 0.42443292910552227 3.0148333822272506 -2.5008205137102477 1.3799154375375138 -0.1666103130648034
Ni 0.9979713213382484 6.862863043343302 2.2831705490429206 0.5089483281146461 0.4224366202746467 -1.8460970641085948
Ni 4.506477319068771 5.068827271017842 4.479383205433459 -0.516036345309679 0.054961443837544054 -1.5743628274192434
Ni 6.922323417601454 2.4062815018292856 7.001268055814576 5.045171603713279 0.7004996273955032 -3.1427732939097943
Ni 1.3081003485577654 2.9014469008413672 9.51470464385972 -0.6150490138301666 0.24036420701850214 -0.4748151338763629
Ni 3.8355055235085116 7.104227360736054 8.165368707007215 1.507419528629475 -0.6465180309727252 0.6567993582940753
Ni 7.7565626000375065 5.986052575288627 6.852288075734501 -0.7142802261193634 -0.21857307928533973 0.3576980424456807
Ni 7.97972722807627 0.5158756788127054 7.824650630913826 -0.9123621274298868 0.009680974733189778 -0.43452337623585163
Ni 6.443099013095036 8.042924208626712 7.915663020244558 -0.45194517125672484 -1.8448541928404292 0.373706244948479
Ni 3.2749402193408317 7.162181938428657 3.820367620504474 -1.134737354070136 0.2844606831170843 0.8265430747815378
Ni 0.879442823532229 2.0301576868603735 4.477424740394191 -0.6139817489079168 0.6983386151884424 -0.2811493593556642
Ni 6.355809287495801 2.091783805561569 1.1899780440228231 1.6756537504509466 -0.2452349048472422 0.7661257500357451
Ni 5.063306016944161 4.936596024465322 11.330950915527035 0.5818113348229593 0.06736187438442592 -0.5414079913052483
Ni 1.8372112355784092 5.99656526612589 0.21636623539652414 -1.511956754378196 -0.06188079666519665 -0.11415595191982919
Ni 9.064653653554744 3.644111343994737 6.293371711756504 -0.6349799484261387 -1.4565389397295239 0.20765668948315205
P 8.177823131810793 8.040572563373107 6.390411005365646 -0.8410739214078613 -0.1371182171429574 -0.33138562980339703
P 2.488561200583884 3.250921834616263 3.756836018495021 0.8257627449720876 0.24235218398280844 0.24618055658996316
P 2.903696300649164 4.273422767908125 11.924585185381478 -0.43457814073318707 0.7690573218602432 -0.03877506388566871
P 7.334911676562039 2.7431802457696843 4.354578696262878 0.06247137906134402 1.0941931140991865 1.0689597934536945
P 0.14163039153451892 7.9673276440118075 10.692789683526858 0.2672029244779011 -1.2168720158883624 0.16779276340867877
P 7.026325626070184 8.270234424741002 13.23188337194167 1.3094553838437384 -0.6913066480423256 -0.11542813376403346
P 7.218379753461453 4.0742114593102325 12.370327924401684 -0.4597137594585502 -0.28230532733697833 -1.3105252198691495
P 8.79719815739966 4.921240617512928 8.417672357597468 0.8046267343244208 -0.3846923116463375 -0.35411829551422236
Ni 3.2794576090374807 7.476698224777429 1.5953821661592524 -1.1426218990245354 -2.161297599511697 -1.6482244505954
Ni 8.480404586121507 1.566177148820013 2.8826002766666248 -0.8844859698449089 1.161505880413232 2.8093256393710453
Ni 3.336835894217342 6.295465884387482 5.929717193656016 -1.1561381883434154 0.5451456039708096 1.2248439783502456
Ni 3.208276188673415 9.239335350199022 13.532945087126041 0.20370310415204276 1.0822439121571104 -1.3105856407934398
Ni 4.249720414561511 7.8620891951528415 10.559291522950359 0.007790699689012389 -0.6967635573918387 0.7866431532628064
Ni 6.736069395499711 5.487234225349008 0.26956825886711755 -1.0226048603382387 -0.4221059764081053 0.037797530463747814
Ni 5.842611509859237 4.2042583713386525 2.4587882562683783 1.0885767963536737 -0.6994570450636018 1.0539581778385398
Ni 4.031630878651081 5.340558485815845 13.550372358612144 0.09754174040191588 0.3167449970720867 -0.7125796984884889
Ni 0.4765251247370625 4.256096812363777 12.88413173868068 -0.3046183890118818 -0.9718134887179843 0.055936663266619786
Ni 0.8269741787593015 5.630638110616285 6.376520496800477 1.0855588354629562 0.6526177161125598 0.23811860551743508
Ni 5.397341888401909 7.202838445698497 5.793144233672827 0.5681886018332021 -0.5085042985986921 0.43715361476984715
Ni 5.717230708175914 0.5266867404509196 12.579084310117866 -1.2060160470104648 0.36944772678244114 -0.5578810492596069
Ni 8.009573603211948 2.7171727223721054 10.725154085141593 0.5499718217148593 -0.4248128338163071 0.9033894916176313
Ni 4.614011642938173 9.380090148915796 8.57017608754174 1.3335167956683165 -0.021747418979420615 -1.740145759486745
Ni 2.539488727637255 0.7999758040414291 8.514943097715761 -2.141564639859144 -0.127849904467154 -0.41728978596638455
Ni 8.27887881243212 0.7746644791794042 5.3278112672356315 1.0275004978676434 0.5502546430626007 -0.6075606758729214
Ni 6.5425094715428935 9.160439046196649 10.229334315276335 0.36031593968450204 0.44333866053463644 -0.10496708633170955
Ni 0.23676884935566817 8.78589538811751 3.4065542752022875 -0.41192646477194217 -0.19233702840694616 0.5790756810593511
Ni 6.451854941272492 4.778310779312582 5.215793945319533 1.9254747320069743 -1.6147245190657415 0.7376158155215103
Ni 4.601398272941562 2.5107019871217795 4.570259887172482 0.45090413158672027 -0.10277882043113913 0.1131496221425019
Ni 6.975593294867903 4.134183060797429 9.336760387990081 -0.6953029136859122 0.9618615197115951 -0.6502890679793834
Ni 8.247824082027792 9.326085963447628 1.298041255698273 -1.273206428814033 -2.1121149671394592 -1.8608050597427308
Ni 2.000906194318494 7.842606790205978 9.235953814454906 -1.090447016793193 -0.6748155923658379 0.7524168850900848
Ni 0.6789144076915069 8.56459906322489 7.378485897053644 -0.02728146142377237 0.6468998397921762 0.37186507797468216
P 2.778650120424852 8.386255120612544 6.904528062510439 0.39330319324380003 0.8398115097556698 0.5616032353062006
P 2.8540700792697242 5.058816512369096 7.636490195999772 -1.5079795148980029 1.2035133351932692 1.0051385852326753
P 6.902264720141849 8.857039628319463 3.196109910126206 3.6351637176657587 -0.983623593979035 -0.01721096456164778
P 3.1763012492568063 7.279485349893076 12.72202437286279 -0.40728073846981466 0.1913414972628963 -1.723788401174644
P 0.5798961999539355 6.295735440562796 4.115130086722963 -1.193823875819647 -0.8538713302828456 2.8085604790702474
P 2.940867167720971 9.060480180357633 2.6898425147073803 -0.7099877693915967 3.0213758299362032 2.22243149070854
P 8.599539120569956 2.1300793725372746 0.967863755563732 1.2269373705441644 1.2837122134413634 -2.978515797347883
P 6.7234746155841565 1.8621684193963142 9.166544958319546 1.2550804086372835 -0.6789051890541791 0.5193422697544605
Ni 7.507074417223208 6.8178936372684324 4.547813293801212 1.0190667652779932 1.4423127688278128 0.41386687632776464
Ni 7.815790598282457 6.789153371955598 9.416631741743853 1.0336629179246133 0.31927804790658565 0.08228018625715507
Ni 3.0970517337143635 3.9278796362766086 5.937362364490365 -0.5392096981023489 -0.9118309375167652 -3.1557972169732875
Ni 8.118920459984327 0.9125508283892109 12.269452567566601 0.7113311707933685 -0.7690899748703915 1.1173579822514241
Ni 2.4395019766766572 0.214421712918049 10.760320941475545 -0.571883534186286 0.7232927140306189 1.273482308183239
Ni 3.1290824433741404 4.938613048259916 9.750995728132242 -0.4133518843645591 1.579336369374435 -0.5419463803072215
Ni 1.2857178909661395 1.7738934195011022 13.179044784555725 -3.5878685321242214 -1.3248740323916537 3.320368645231192
Ni 5.084424349023967 5.108916780815468 7.730550429119663 0.06580455719963506 1.6290725602572975 -1.8852138276043984
Ni 4.024817613943995 2.7104988832729413 2.2066881670656886 0.19199121503175323 0.010850055340626476 0.7251899310533316
Ni 4.993100575835543 7.4993688286254265 0.31420769100324014 3.5801490519927763 1.1497960481754714 -2.271983590605055
Ni 6.509707273519285 6.9089385592410135 11.457660908005872 -0.4444984851706925 0.2693569947064265 0.5620642341030191
Ni 8.961534473936181 5.029472069421936 10.63312202986493 0.1724397752623869 -0.8620052722438897 -0.7545555286996424
Ni -0.07064137850938429 0.5488823677279311 9.684430224894422 0.8323275426737988 0.2970657734756045 0.9480716650163543
Ni 5.292456651083011 3.027441175199544 8.049596188717771 -3.4298711575394094 -0.7312983579439147 3.562848098820483
Ni 4.957110178910803 3.3021746880881175 13.11355378800295 1.6211106250977436 0.04247745243792039 -0.2663264354102188
Ni 1.528383514032824 7.811468404436897 5.252307653026006 -0.5228466833632931 0.8449915112947125 -0.21762022845376716
Ni 1.2989819137997152 9.156144737472673 1.1583544571381765 0.2992260143517169 -0.6627005542698587 2.871391555463855
Ni 2.324513030303732 1.43148271652755 6.083676526946985 0.03336314884147802 0.06698212244750398 0.8801557179006713
Ni 1.6793442672494334 1.8908343243849248 2.0492599246496384 -0.01948536241812128 -0.7544760816119587 1.168750220680471
Ni 1.6246429537416602 6.274161651497113 11.175413284354395 0.2913936627914917 0.5027576259229019 1.0442208959461177
Ni 8.401796428375501 4.763392239265007 3.6636606732334034 -0.6234398089970231 -0.5878014909681232 0.40654283186252566
Ni 3.0305364236953953 5.202062381947396 2.6795166541847326 -0.3452150794873216 -1.022437481522439 -1.4696561938377721
Ni 5.464563621501012 7.193153013468232 3.3939427642137834 0.08210278013902635 -0.01718268242687363 -0.6153840285720821
Ni 2.5649850238057885 3.4839485006553246 0.5775334006516967 0.0014827551931135754 1.0289724544274794 -0.7500506988507535
P 5.797688578987008 5.956169019990837 9.467578788382333 -0.7515915609753121 2.0085609591051927 1.2025021203199355
P 0.6599618200547439 1.9008264929526149 11.281499440909522 -0.05828793710761575 -0.3069858608027939 -0.9301017108014948
P 4.984614203833403 5.8937807079663385 1.7077257439978848 0.5545589268649095 0.36000509331230257 1.696773563148697
P 5.099398659314709 1.6681995136562608 6.500850029400074 -3.597766507964223 -0.7089914669165983 -1.1436629386945398
P 4.565733202435305 0.9400074486051176 10.441778043570007 -0.11082251667122206 -0.8763396865886908 2.2253661478568323
P 0.5142481172162379 1.6391896921681115 7.50616164424335 0.7421504701670703 1.0025677391817056 -0.22112387073165143
P 4.496243479447351 1.5126841905808905 0.5472761847246781 -1.1719041929284204 -0.7022739456871067 -0.5059565924761737
P 9.000657299518886 5.569420973698325 1.0968937901583806 0.1137332625601138 -0.9435997452879297 -0.47627269225849583
