# total energy = -340889.976151548 ev
CRYSTAL
PRIMVEC
9.03984777749404 0.00000000000000 0.00000000000000
0.00000000000000 9.03984777749404 0.00000000000000
0.00000000000000 0.00000000000000 13.23073098417968
PRIMCOORD
 96 1
Ni 6.644279236049665 2.0059603496574727 11.18868675756704 -1.9208518885229824 1.6044992417933077 -2.121184790651211
Ni 4.759787323893194 0.5552355996803845 6.056168421167979 -0.6759520199631263 -0.9057145402063821 -2.3791170884604638
Ni 2.789968286517408 1.7820613945317134 4.479767184448486 1.1921624289568242 -0.8224082266775579 0.714045484400738
Ni 3.277613846728324 4.474616279061267 4.492639927992538 0.3598701103963351 -0.33576396137675074 0.6756943954263654
Ni 3.9803897095104133 2.83602631204897 2.495990621769317 -1.6715752095061984 -1.1602216143841697 0.21749013063380607
Ni 4.998927462737544 4.824810950517048 2.5013620994476002 1.7256771335569245 0.019064215720302653 -0.11077932213811244
Ni 4.795720719671009 4.546103397001128 11.376986791290781 1.817778676779876 0.2694259002711489 -0.4270445513603033
Ni 5.639400693142101 7.770852212658093 12.091048904293901 0.5764968645885813 0.4430234432870628 0.5337059946753001
Ni 1.7448804997306697 6.751591271591408 0.36950288278706017 0.8781433154563327 -0.18794404154557307 -1.045710850228083
Ni 3.003426217209614 1.845720004108409 0.29281875623520676 -1.0668082943283304 -0.7072230621622659 0.08216345817363269
Ni 7.9476897191249085 8.880900347132723 6.822082198282286 1.5091768776402137 0.07724210961261535 0.709780538476797
Ni 8.81151951377556 2.5371146982655257 1.1176488386683372 -0.3620092682265249 -2.0413242695791425 0.13418561687719469
Ni 7.392281458347831 0.5840645789193848 4.6757004658187125 -1.0801888294002946 -0.1695375140139274 -1.646166796735423
Ni 0.9627438114055793 7.745043446634027 2.400253207599627 -0.2547482436543161 -0.7820442210382145 0.7495074247527737
Ni 7.458145790835165 3.9627529660733027 3.7096724776367607 0.8774403758520372 0.1734409628333916 -0.2621789889007485
Ni 7.845412878916058 4.0840586863104065 12.36280843064131 -1.1530868031116013 -0.6560501388328766 0.1289523935027134
Ni 8.476656424518312 7.128670450982591 8.872395658139574 -1.6886360216432275 -0.5661507454675668 1.2192909097425
Ni 6.742072311653285 1.2391552435309163 -0.007789637016790494 0.9631830667364961 -1.399625000151299 3.304728881811405
Ni 1.9615023772209224 6.53125401657545 9.252779805957516 0.004712832094637045 0.44183713628844545 -1.7432040866970944
Ni 0.20871833838873238 4.725155666226578 1.347986877520521 -0.05959071507943932 2.0122553772376444 -0.2914517697229368
Ni 6.494027922534434 2.045202329801244 6.908571847953685 -0.032113849815409205 -0.06899246800931344 -1.2328781615086315
Ni 3.425650397484923 4.693913951557867 0.6132641919261562 0.15996606827540838 0.19532542161130878 -1.3833257487706434
Ni 5.984225694889198 5.8151986170895595 4.564060151057241 1.3122185484111724 0.045140086871748066 0.20445823715051237
Ni 5.297802917129011 3.014400592674838 9.02744713093984 0.35186163826956174 -0.5950985388501686 0.10540468808976042
P 0.37315678934640417 5.569956580848978 12.11278702676608 -0.1636669141657633 1.4753059359243816 1.1332065192479064
P 4.076519453083061 6.231384178904597 12.464182190035519 -0.5440960796603725 1.366395291563892 -0.18440568937501145
P 2.829535701188978 8.689002453907205 1.316631260767081 -2.6422646119220685 -0.36790480777535345 -0.7837259796160115
P 6.401893791775319 8.007045361056262 5.707512331840847 -0.06918195831230022 -2.042418788194902 -2.000664329965935
P 4.906106303530854 1.0311393013313503 12.284310910581777 0.09578104895706731 1.1760909773162582 0.9095254293120401
P 4.046217882605769 6.16565544413718 8.253185054202689 0.8418041147056664 0.06761409960454808 -0.8438275728935984
P 4.804055459521863 1.0727587614976535 3.634190650868165 0.30556661185776407 1.322497561739677 0.34428228326040705
P 0.20796712702039621 5.679266422797487 3.3370680230028156 1.180948819629192 0.41129268784268513 1.2804751945613047
Ni 0.9543186730747811 9.108550839176166 4.7597556844252145 -1.3170069709387513 -0.07948951088589537 -0.5691599646075359
Ni 1.858909142332266 6.606284754929124 4.746233879795163 0.6250218087721623 -0.025242062396240397 0.16967198270926262
Ni 6.3519305519101685 5.682204373395674 8.9844337262128 -1.412723228096154 0.6862981390841407 -0.6225306669191923
Ni 8.613257567561972 2.616312806544627 10.134396405521986 1.1876401156064385 0.1921071717843272 -0.7394520973993006
Ni 2.6939651008166825 5.139442859962787 6.852989438575202 -0.7766852707191463 0.7010894384607023 -0.3752054552018248
Ni 0.4961023380096947 0.06225743313756079 8.878323086469514 1.2237366042186795 0.153652981573187 1.2141777568856509
Ni 1.462692604736899 1.1726400419879843 11.484909920556944 0.7651261051266371 0.31066510942659403 -1.8914394967991361
Ni 4.1792663653876225 6.875003276411211 1.5545446922385875 0.18689991655177488 1.564308785617351 -0.5439945210855017
Ni 5.896204694967544 7.725833769645888 7.745825393485545 -0.9337328797961789 0.25227818484726877 0.6604878628892561
Ni 5.185265849446495 3.107953979569076 4.720380818515926 0.8109444490123324 -0.7841934061707333 0.13284658635079702
Ni 0.8832473881426622 7.442778049244653 7.087583437863159 1.2330915630710184 0.6074084665657732 -1.8483997440998425
Ni 5.179543625666028 4.790134093610458 6.901942927419378 0.5571336295706211 -1.1097382609226372 0.4384178261942514
Ni 1.001868273525423 7.6961378689842235 11.189705548436011 -0.8719888658191628 -0.5303309075554802 0.779554107626509
Ni 4.80206669296309 0.2388237441645446 10.293350380701442 -0.45067993139105617 1.4549142596419071 -1.9583203177820856
Ni 8.485967467952564 7.154452097462673 4.828158406229381 -0.927214876172003 0.3513990968108464 -0.34358885673780826
Ni 7.520737698348519 5.970846719857458 6.804552125051509 -0.44982683936214146 0.7352686554455724 -0.5535723945819241
Ni 2.3410403952665866 5.521304118943017 2.4864119988344306 -1.0382142847407216 -0.0248517689363572 0.5382715025587956
Ni 2.407275361521691 5.449292689819479 11.398711353990967 0.21375148952698028 -0.3209875743985246 0.16218081653854005
Ni 1.156666630581847 3.5694562993801333 3.772584395769117 -0.5165320539991749 -0.8068134575630944 -1.973453316768782
Ni 1.5094195790200489 1.0556734487882022 2.5627399553753043 -0.22781310982636896 1.4564867463353497 -0.8530848298258084
Ni 1.4798502362303054 3.5406915030618937 8.069131941066727 -1.361600955499042 -0.7907281219654576 0.5414468149629836
Ni 3.8036697210675245 2.7951842788101873 6.916365100909673 0.0873804835981979 -0.24214803839180235 -0.02303785565607
Ni 4.406817419103127 6.717718961156322 5.96477103802041 -1.3997697532592794 2.232427168468672 -0.022789229980373655
Ni 0.7412196243479535 -0.012917942784024156 0.21160295388375133 0.6604922337646302 0.7059472807736358 0.5154275080810865
P 0.4042972577175773 5.507183876375735 7.769098482147175 0.2589738516998895 -0.7243856899844815 0.24669811965632996
P 8.724736973029142 1.7011185955896893 7.906552986841508 -0.634294749433656 2.1119051651214984 -0.373654308664621
P 1.902969361457062 3.157844900650272 10.339049524267626 -0.48944419664344746 -0.0719230113925471 -0.9574939867715188
P 4.044039279239115 6.342483910756001 3.728723957284998 -0.25716533773624095 0.544026659875018 0.21591558705783462
P 6.8103683632511185 4.10110783962788 10.21334411001164 0.828151042698606 -1.040308448265589 1.2688427525286985
P 6.42910373423852 7.949118015108027 9.842182415117605 0.9774789145338777 -2.121691297973985 1.0825583580737357
P 2.752624674452465 8.569712619772858 5.736342215064647 -1.0812895186636409 -0.14105406186225383 0.9836858146755381
P 7.04697734465703 4.221744611113396 1.3834709928530124 -0.9153739176730171 -0.6358785489810082 -0.03573987660377071
Ni 5.08015953681539 3.1683401641717923 0.40158078339525455 1.891307856317278 -0.6745636242560318 -0.8725377963440973
Ni 1.4157757936458666 1.2431508563444493 6.7951452592285175 1.3180050731859625 -0.2734895288175612 -0.11071941543445447
Ni 7.118943574540596 0.805323898430774 8.956636193629961 -1.4145106590138803 -0.14001327930256532 0.9424358068868156
Ni 2.7616012435109223 1.4470898270985326 8.814339946349818 0.8299101914815579 0.42141974897435813 0.950616285815079
Ni 6.4603544887552244 2.1714799664352773 2.356525654881026 0.4327755403068095 -0.019453994959553595 0.17089891313782826
Ni 4.025136957082785 7.029738354531673 10.231787207889854 0.8645084982817176 -0.2755286707347771 0.5900656044119515
Ni 8.32120719840629 7.2150281188732714 -0.14320384801878255 -1.0413931966893353 -0.03093577034690801 0.9733057569927948
Ni 7.656959167776413 3.76028749054231 7.880289516463324 1.476584288416173 0.3479324784184846 1.6325600045852657
Ni 3.272126658995712 8.736624373141803 12.14444819038173 -0.7576570504431016 -1.2516598129915089 0.6717804050839399
Ni 0.4470864742143583 4.982149504859903 10.005912141992514 -0.9690888906979698 -1.239863334577213 -0.30226402984709233
Ni 8.537847155592532 2.3135230979715766 5.701347155508654 1.0187528335820004 1.3175173349162663 -0.3617405879461706
Ni 3.711399992588494 2.5676061055506993 11.319129052172102 -0.015187249263399651 -0.4656380953627851 -0.7197469056608895
Ni 1.1754062354742765 3.50195575440581 12.411113762384286 0.4122023441411482 -0.46190871022734 0.3774171181411629
Ni 3.2666756306550777 8.1995579639454 7.812363194648463 0.40743551888012414 0.3755330137445726 0.20567745426959413
Ni 5.796088378429359 8.17289945220986 3.3379946074222437 -0.2626541287649541 -0.3630639347432844 0.13385060213527913
Ni 3.1101506626317197 8.398760054350408 3.6357256170576173 1.2853834304961993 0.09430497863217306 -1.0764972394813201
Ni 3.46519069261251 4.413353229203092 9.330377861141605 -0.3618524309336865 -0.12852019106130125 -0.17451902638891878
Ni 7.473359855009772 6.196164931118342 11.024030446272704 -0.10213938707492731 0.12728991819862595 0.5164703475233041
Ni 8.060968054342968 9.102313344060017 1.961350507774616 -0.6850310994462588 0.09902269582281654 0.2426643159065885
Ni 4.692268699222883 0.6170979914605891 1.4307846532709998 1.3437091628202857 -0.9484958970379666 -0.1650673940577157
Ni 5.99662836633754 5.7430335105501165 0.13960508453220452 0.810797639021823 -0.5104493381402048 0.4277819437469601
Ni 7.810473866417629 -0.16216492918707556 11.24266820986571 0.9707799052471474 -0.31947242330557885 0.05514604904452438
Ni 0.2615327463113235 4.803585387426153 5.519093876108381 -0.2792997077414351 0.2971120533325076 1.0849808514722992
Ni 7.4169150441326215 6.3553385746040645 2.502923281196236 -0.3442496302502588 -0.456910228571484 -0.6018343149121054
P 8.53602110629766 1.9186354180313892 3.3760460395851495 0.1417945395727042 -0.7560529391807753 -0.2671802987700818
P 1.9886942399881333 3.3838139809667536 1.4293952286342577 -0.7789316435511617 -0.5734681050645865 0.8720726837822207
P 5.041875780559027 1.0482065343448126 8.010241851307088 -1.5547545662700126 0.3527826074219344 2.634707625510417
P 8.63395881946919 1.6669841295627648 12.213235105725662 -0.7564170073884133 0.4398267907266361 1.0093330829299973
P 6.3724238873135155 7.715564502324228 1.121361504239645 0.5011452871304595 1.1771361307513213 -0.013264835429706188
P 1.9226039113009392 3.192503677860873 5.8496901571122635 -0.34084189012029037 0.4480260387079768 0.12146328421451985
P 6.956334788816995 3.996137124716691 5.850576062215716 -0.1434701275029142 0.48699984886801295 -0.8629246987343654
P 2.395541638824936 8.658294090270164 9.90602091766939 0.7799045489873924 0.002136843837344707 0.6585700770412528
