# total energy = -340866.28448399354 ev
CRYSTAL
PRIMVEC
9.28533750567206 0.00000000000000 0.00000000000000

0.00000000000000 9.28533750567206 0.00000000000000

0.00000000000000 0.00000000000000 13.59003001584992

PRIMCOORD
 96 1
Ni 8.638632346168304 1.3179608096882998 1.6777026417987253 -1.5870982727080407 -1.734458736404297 1.5983221664483183
Ni 7.986560232450039 4.854606596627344 12.567054379712804 -0.796157520511145 -1.7322090211381718 2.298711750628519
Ni 9.105331981341992 5.015521496105281 8.274805894076325 0.9052730817935893 2.3470749724232545 0.21557337322706746
Ni 9.14881521701742 2.8028534175770803 8.57668150266993 0.20290760483394088 -0.8768809038041414 -1.711449419993317
Ni 5.586736890570582 5.3833230011959055 0.646419200227084 -1.1349263301524906 -0.059878678633503324 -1.2188898176493395
Ni 3.06111579576977 6.5812801085845605 2.705054671458136 -0.7589158625508672 -0.7619551635978232 -0.4101410907367452
Ni -0.15696213128937528 2.3402207602436307 13.371502596512013 1.1694091944207086 1.0821616368559492 -1.8464531618964326
Ni 6.627521089507821 8.227839728291595 5.414526377981572 -1.1381954878220655 -0.8081342332570469 -0.16027408643413044
Ni 5.2142648606999575 3.189374163137844 3.7996093315255997 -0.6480200694395485 -0.39812041212678534 -0.0714967224884059
Ni 6.377615515096444 1.046606105571554 3.8804697649135775 -0.17823221357444788 -0.5618037813527809 0.9849963059568456
Ni 5.052588563544169 0.89718645396169 6.229628591068198 0.2850816045305348 0.1330378764259967 -0.36067846523024333
Ni 5.118393750653235 5.176297115520195 9.015557623920614 0.8549830752897856 -0.9291892262895545 2.370765374061659
Ni 4.0161313318981415 7.184084221343221 8.996708388724988 -0.30266023684424653 0.12617740186073756 0.7480838049323697
Ni 3.035757538962254 6.563897956719431 5.510213638345105 0.7981814929197092 0.04819481453767183 -0.49037133644340714
Ni 6.706502170578758 4.774669125790325 2.4089823988237753 1.2188772192438493 0.4820468757381117 2.8130105444218008
Ni 8.695960020108107 0.262365568849314 11.666931902022613 0.49220119056329426 0.006829621327323721 0.19236196810761064
Ni 9.062665855369625 7.0374408856562605 12.293460052182667 -0.3908115371701979 0.5097849650833285 -1.1521910307702092
Ni 4.674545331152669 5.447466112886245 4.267962685314234 -1.2406917440157794 -0.111320282243247 0.1912967600678899
Ni 5.842780073092457 8.457410413501778 7.796627724642126 1.5054626620134204 0.7070867936947177 0.3798015592129395
Ni 6.8256980485128755 3.350335489303454 0.6825549483112319 0.3897573848740707 -1.7305815128370776 -0.9735117023560138
Ni 5.5336340452091095 4.061852333919454 12.184426976180378 1.382755220979154 0.8307422004645499 -2.5868845924898674
Ni 8.784913553691409 8.046023534022844 4.007115269151859 -1.176879534655825 0.018728429647438715 -0.30422063935283095
Ni 7.53571066844824 6.5601281096803055 0.5319913431170814 0.14473382470668622 1.0873292970998178 0.5987579899796268
Ni 5.101280873576615 2.9318917532980775 8.004867203933633 -0.2786859854168362 -1.0323033185729253 -0.302173269905499
P 1.3127981620189557 6.474238737483485 4.018409025195425 -1.2924341666953933 -0.08876579398149874 0.6198662327131518
P 1.9779533163237417 5.083592305572837 9.138438852322292 -0.17385465333204253 0.03672152379074966 1.0577469554570105
P 8.850737311475545 4.027849427867048 6.280496455685046 -1.47992106609889 0.90904926100657 2.8468403484870524
P 7.051991009573278 1.6104582273717656 7.674453110426847 -0.596680795735624 -0.034907353400146335 -0.9044202468749908
P 1.2888419911791937 8.77929592448286 9.979593865464034 -1.4767794351461148 1.8901369759376287 -0.14746382204333958
P 3.9501868647260525 7.392270774210782 12.770130282801215 -0.8106006925196685 0.22790386976796234 -0.4886841785489712
P 6.991933446398248 6.4961149927154525 8.197628025554643 0.8253878781311722 1.2575466107895892 -0.4074902833774595
P 6.850257766292399 7.21779928193205 2.640284799484198 0.4245480101906946 -1.2059060037951619 0.961113585801977
Ni 0.5818201784637863 2.281398146960727 6.0075131033646985 1.0437724955547896 -1.2589321782832061 0.8705001970887783
Ni 1.6714257536252062 1.1822648869548573 1.7194105209375015 0.5284534880271092 0.08176545140426562 -0.7516545530027635
Ni 3.4065489227390815 5.226697927659043 13.537423221454954 -1.098662976945082 0.7574570186171535 -0.5350049159923819
Ni 0.8650006884648422 6.79786060658357 10.087009435667763 -0.2337212477806878 -1.6084096325913075 -0.027560683227088018
Ni 6.686028001314543 5.917619893622875 4.8024852114433 0.2833831337821894 -0.05257006078723204 -1.1047696040634523
Ni 7.138131085883539 7.609315539086531 9.998184968276195 -0.008047295784508721 0.3001927491403604 1.0474699990110348
Ni 1.2204740509105243 5.199826160833356 11.894945436128213 0.944116022802716 0.999227361954563 2.289088882826774
Ni 1.5469558039713267 6.71173910094838 0.19943512224101836 0.3889374600759366 -0.5844549430933934 1.60410791989216
Ni 4.1294681618478055 0.6288439133412308 12.928617066513803 -0.6422787960803971 -0.7269557647045028 -0.8946186874035367
Ni 2.65660006606658 2.3831840170171104 9.307105151574271 1.3441421365926465 2.036946452226421 0.7851840522187767
Ni 4.856760794935417 6.411906266612429 7.074588735531701 2.8399685610678835 -2.5062206016798965 -2.353118607514173
Ni 8.714716401928385 4.505793606795368 4.312062467401973 -0.029167879813207828 0.10375738229432453 -1.1174603121572433
Ni 0.5397520282286601 8.355912388908974 1.9001031893645433 -0.3141497255410848 -0.05100811561675086 -0.877420064137063
Ni 3.3009467789558986 4.615379160380978 7.460885704457876 -1.0753793238267932 -0.44224645591172224 0.09097977091368202
Ni 3.5412420290187665 5.634417098811736 11.062665348602224 0.26968635302138716 1.324264680942429 -0.4138403939652034
Ni 3.808641179345691 0.3961301413755198 8.50127063388112 -0.04663569758066807 0.31914512187314714 -0.7060002454987583
Ni 4.930542086986869 7.580094581864543 1.291697232471142 -0.8913467015204843 0.3798740643220877 -0.6659882238821949
Ni 2.7302420780550114 8.408068129841897 4.1343996046125335 -0.9804948185420661 2.4145911129973574 -1.0455090186299218
Ni 1.9750470056753522 7.012203338236697 7.647585986269928 -0.031426079719765236 -0.26030825424059684 2.0930273543803883
Ni 2.501089233033893 0.5371855609340438 6.224424159379947 1.025776573198001 0.1839842855668767 -1.822063420198159
Ni 6.577909531059431 9.208306374602829 1.853924420202765 1.4998969950001846 -0.10272148483064245 -0.8267083967148086
Ni 0.9721098425299222 7.96799884271799 5.829973735564471 -0.8935866465945965 0.6117842270359657 -0.3538462727997584
Ni 1.3471074842100101 0.7650997419280211 8.196173941696696 -1.7771146234016104 -0.9139513262938775 0.5766791558027166
Ni 6.414385451734218 8.681929875093036 12.691402691444978 -0.49613806372385527 -0.7940551294561615 0.3030279045963104
P 5.4206500580857675 9.038598260479446 9.943974382146822 -0.44190655607380025 -1.0467174371157264 -0.42700495637161945
P 0.47171186037496876 0.7965510372258666 4.34745074581457 0.41296750444194685 -0.8380086522189761 0.23306895890866958
P 8.399154205808497 8.579642596809773 13.63066379537807 0.6856787603325869 1.1030698477635261 1.1670134404950225
P 7.897792405617433 2.3988762374509083 11.511625346415691 1.0487306108910133 0.05847974140344767 -0.22093052377392272
P 4.978129441852676 4.23767020014073 6.094367222131384 -0.4384486794321868 0.7237825091828438 -0.3583328478162022
P 4.9046731366149405 2.8451481300480554 10.291403856686113 -2.560482705457571 1.4118822202520975 -0.5636500905329003
P 2.4520812215252636 2.5002349819806917 7.238770216754376 0.20068000105500278 0.1821444041446605 -1.1722947434986197
P 2.769389061101692 8.451179952015934 1.7424864417789652 0.04536505839836058 0.984201320859376 -0.9177745566947096
Ni 2.045346296151258 4.332566349746299 1.9598181235845407 -2.003898263522201 3.300415599148032 -0.7312621053893406
Ni 8.165414404045192 0.8713388598660909 9.350498319475612 0.047743585932866164 -1.2746130793535726 0.2713112902193199
Ni 3.307548653943135 8.572130758744127 10.569047519915175 0.35414503498709976 0.05462462932341561 3.006535679599577
Ni 6.937335661693673 3.058859458748816 9.661410418558075 0.36943872792137666 0.050962092870163844 0.15851442343054636
Ni 4.435577884357276 0.944690240789683 1.9183005938652276 -0.4949856952869668 -2.4872412323639166 0.5126260340765495
Ni 4.89930621151983 7.659242799011105 3.8066485459107247 1.5927742400468956 1.2276570223190082 -0.10145264542054785
Ni 0.7416654070577143 3.712602933223343 10.51629101764375 0.2619167363782973 -2.3232575582886827 -1.1385505571686392
Ni 8.18823776370571 0.3201036547081543 5.999712491301721 0.9967321063365351 1.449411070435491 0.855645648574449
Ni 6.705350788724443 3.104218332606272 5.847002116069525 1.33806713404316 -2.595592661786827 -1.5764204812792204
Ni 4.3278679689536945 3.1201055451283004 0.12905504932855952 -0.5649199583842593 -1.837130084723294 2.0572455687950892
Ni 3.265161088096812 2.7256365506377547 2.259070624324567 1.5435391571701675 -0.23561486525897488 2.179644991670633
Ni 1.9914449117617938 8.887804378914433 13.153599866448046 -0.1872030496144905 0.18107559656051395 -0.16550216760228917
Ni 1.2000555936715178 5.427623346574395 6.139105835441516 -0.8174673377325147 -1.1504946169043928 -0.8180473786057009
Ni 2.963239052815533 3.9862418303736473 5.032755082569854 -0.1526836756813822 -0.8230371185108084 0.4051816898489408
Ni 8.321045946465832 6.479782083991755 6.034938276307459 1.0190230565242515 0.6468479035083182 2.062243022009681
Ni 3.115082177521978 3.477516757517493 11.718057899022929 -0.4525740630899754 -1.0277673783757848 -0.6035458982865736
Ni 9.09521096342907 3.5582713380575743 1.9590975813918408 -1.125827453175016 -0.4321559044449396 0.9696198235007752
Ni 6.895867344263295 4.581014126164715 7.514852086210084 0.24682178971838784 -0.16205611803521766 -0.2197943532869505
Ni 5.897860695348839 1.2882755855895716 11.267263118512586 1.421686865047345 0.5485705704919585 1.1408606933590546
Ni 8.121754746956602 5.066813700647469 10.510910164542338 -0.7397575444548615 1.4532476705727617 -2.941171295261154
Ni 8.996860668260558 7.78967393536232 8.215675936121018 -0.5717956024581701 0.5264570264223708 -0.3219028871239424
Ni 1.3043670755373649 2.8368470382919515 3.832103370228602 -0.3684799635525331 -0.6611465795191775 -1.154432518506218
Ni 1.9123988333281141 1.29501674063983 11.154914248476622 -1.0880764596784873 -0.37050393596109743 0.7078280427361164
Ni 8.97535582652998 5.986517098131028 2.4101374948131036 0.8039271371542348 0.5910300252077498 0.06796479807574747
P 5.791970706102077 1.3611190585500104 0.29657275232748576 2.000876445976741 0.7415192643409745 -0.17440538362918995
P 4.063514409338182 1.1580394413265864 4.178581097670579 0.3895655805782388 0.039174356206616405 0.04815084867361385
P 2.3435634817561555 1.8981272695371396 13.208313717871805 -0.49835435464888367 0.3187990513876381 0.41150557518443964
P 6.171351027098586 6.111237751898346 11.371987797898731 0.15318966878352328 -0.45268462052591074 0.1745809899751058
P 0.2858556157448294 4.8487475486428915 0.3941356508730466 0.7595648089887757 0.9102641072502775 -0.14288185909961199
P 4.225664258708245 4.818430921591797 2.331423831463169 0.49638617517891925 -1.6359628596192277 -1.695704241343918
P 3.731805011245292 8.072960298211273 6.916509578136889 -0.5433219204985094 2.6888632856172148 -0.2704491993293407
P 7.4332562540893505 2.8856693430498854 3.526885040122472 0.07336514315571235 0.3162099505042232 -1.218988548010733
