# total energy = -340856.9514847791 ev
CRYSTAL
PRIMVEC
9.41975525726732 0.00000000000000 0.00000000000000

0.00000000000000 9.41975525726732 0.00000000000000

0.00000000000000 0.00000000000000 13.78676398246636

PRIMCOORD
 96 1
Ni 6.386970968378503 7.504229319828916 12.35551922670438 -1.5884974670484127 1.7814425613530027 -0.2662940395103866
Ni 2.383508974458318 4.183040211342709 3.013001086294842 0.5918921160977291 -0.09022052415015429 0.21679747544215563
Ni 4.925213321524371 2.5466214593979117 1.8063285323990834 0.3946733341184493 -1.3680297418435214 -0.005116752401275059
Ni 5.537186572221448 6.545382995361013 9.953685060042236 -0.6236490967943518 0.24235655485818255 0.34193589451541756
Ni 1.7826227758964857 4.1172903184760905 11.92713606726534 1.5042218476277838 -1.4689002895083543 0.040264246836685495
Ni 7.2385074390446125 1.6373795669981492 0.7907865839790893 -1.9833052698621974 -0.11780151909221646 0.1862219166481438
Ni 1.3482590137381034 3.5250137763727243 6.2045677663040175 0.6261579792591345 0.11042888077722918 -0.9243246991084016
Ni 1.8211872546065053 8.005397987461519 12.273004995107861 -0.33958333512284095 1.170127817754288 -0.4817617403975251
Ni -0.332042610829678 5.087506287741989 4.531047423666705 1.8130234214830774 -0.9455452990500749 -0.6488626199455019
Ni 5.947058970274786 8.72832653730987 5.9436669163462374 1.3512183267131375 -0.5805988025720968 -0.24028733103397973
Ni 0.9995114086377002 2.0064173252840387 1.5817964161617515 1.7104238069422801 -0.3722281177410557 -0.21419551904293435
Ni 6.782468819653267 2.8774055909028076 11.264544818816393 0.045352202882554156 0.3034163982839807 -0.7598386314754526
Ni 6.141011734475885 0.8333148957719559 12.488037287999063 0.22703817933355738 0.2011821375024019 1.056198122912652
Ni 8.793304010231637 -0.302874338156113 0.12651673511340286 0.8939993086519831 -0.7227126731574327 0.9371709589434505
Ni 4.766132491906684 4.130562753869939 3.401814679120012 -1.2819767188074955 0.3455819759084371 -2.439910822709069
Ni 7.743698342243697 4.027548308541954 0.4540501090211253 1.3952263568629715 -0.770698457008092 0.08399614050699727
Ni 4.762251552671577 9.186776614090022 10.843469505636081 -1.347368356839428 -0.3023948989980018 2.8671767460515585
Ni 1.9030826082716026 0.896403707731007 5.269591102083108 0.3824418250492639 0.7429832504810108 -1.2953528830040852
Ni 8.847279208816985 3.7760314189385764 7.551355414244734 -0.2914530552745174 0.41896434545533007 2.6053320005617775
Ni 4.348215622720382 2.290837420587001 11.60557387632154 -0.8786076566872609 -0.7767809157567461 0.3213709258798723
Ni 7.724199448513912 0.7830962956501054 4.822307203383773 0.5607889669350213 -1.1448111933663705 -0.16196407254204365
Ni 0.44029632412505804 2.160204252352866 10.813662573544702 0.37744514316562094 -0.518031778473153 -1.9100316579790266
Ni 5.828370051919573 8.978402204333221 2.8249497988675154 0.33095342736198485 0.15389363682908336 0.13070125787302006
Ni 8.288188465075953 1.248588581585999 9.013855337826357 0.3494676841160884 0.8693704543597092 1.7435560707198747
P 0.6255857392617693 3.702189956161868 0.1308130855627531 -0.21595363938462164 0.3471940575905634 0.5805162701606196
P 5.867970703726344 6.725177867158313 3.30489387357647 0.1866579757442979 0.5445359954112686 -0.6220149036250384
P 8.380304253377194 7.287772759917451 12.80059701868318 1.0807501012204033 -0.5475074193347667 -0.34750336130086606
P 5.8988109829878494 7.033185030045518 7.475804265858384 -1.1000871109861183 -0.5046309316862148 -0.10437701815619443
P 0.30246552077066724 2.1144995990306836 4.297665447207571 -0.3261614052899802 -0.008654076130572192 -0.548065605831082
P 5.7635150358183305 3.481230753157245 13.150064293098051 0.15152513659690678 -1.953391255911584 -0.4175900908156227
P 6.934183400528589 2.8115238214602387 2.870018618698509 -0.05119760591973763 -0.8923280915971471 -0.4781681095089959
P 0.49356033117581644 7.451619985780196 9.773230805365184 0.35691822685686275 1.2359935672091615 0.3165611631960548
Ni 3.4549213762551725 1.5128504002794247 0.1673984736579765 0.3293146062069813 -0.7715410075140454 -0.2568825163884995
Ni 7.829418116611351 6.432524905613886 10.338032746820405 0.5707167675716945 0.06874229967172032 1.46459703414731
Ni 2.705730548281873 5.932373571567185 13.06324900117447 -0.04085045835745868 0.9070633409247927 0.16360006548356987
Ni 6.187385190433244 7.110408185019806 1.1355637621678478 -0.21620406483253085 1.671412201565773 0.036779887832510856
Ni 0.8621892720762604 9.653742149774388 8.325992769523173 0.2999526081050963 -2.276150577498551 0.11025764530668752
Ni 3.1603750438703173 4.620766826187822 9.954333139215477 -1.8515992248737467 -0.43136631866410874 -2.0178326142151057
Ni 8.532131871317617 1.083818219691602 2.5491176945855414 0.21993499262987284 -0.6814667791337683 1.3056329247738547
Ni 3.703904351649221 8.501272752545262 13.787591456312114 1.3155013329275023 -1.6896832319608188 -0.5560612224420488
Ni 1.1180307713952637 1.6848268750739595 12.937968137972828 2.9647855922459843 -0.4781002323855379 1.046682727223049
Ni 3.609330007182051 2.6319361842822904 5.368414698222504 -1.138234825700433 -1.7499501471716765 -0.5032330228974237
Ni 1.5710079702734796 2.4712728357532012 8.510514474592746 -1.3826431208813221 1.5877299927547688 0.057633334242752354
Ni 8.660193446320722 6.392095315329713 8.26327603790341 -1.2752404285249264 0.145883107819781 -1.824610869210361
Ni 3.7003907828756897 3.803847956708651 -0.0413131633430394 -0.9054348041824342 -0.011215151989529071 1.4668624331427187
Ni 5.614117714777562 1.4855425293023008 4.51136013482842 -1.036551552326318 0.013293374674796462 -1.674800915532348
Ni 0.4582805211825004 7.182591770841712 4.257545766876881 1.4881385689126758 0.3251861858609045 1.2785435247562302
Ni 8.764922287136061 8.929259340280908 11.089397654345799 0.15722295831263244 -0.2860311129279977 0.354553326169112
Ni 8.449153245778643 1.6089130661037478 12.666644328637267 -1.827702620761807 0.49576576798610095 -1.0932508047905751
Ni 0.9541458665108185 5.407928688279365 9.545514811794199 0.2613958308778208 -1.5448295938468168 -0.358738310784737
Ni 5.461762590533337 1.7616449805649728 9.357642499719946 2.491713666312973 -2.9727477845158545 0.7197754449059797
Ni 3.530571432073484 6.77868207797241 3.2924032778828973 -0.016817585777971038 -1.281492322971909 0.2375653041171263
Ni 4.212034218540912 4.637279657447877 11.745620206151893 2.472510353911645 1.8016740579085293 0.8147501959116678
Ni 4.193778732527228 0.3583331482209004 6.738956143418484 -1.6331837542121939 1.2904032523082938 -0.2724384618452276
Ni 7.066229532076477 1.2863900601065918 7.217716154870515 -0.41536608658111046 -0.9958257924721818 -0.7727185727619144
Ni 7.6116522106958096 7.695949601994286 4.475776066734876 -0.934260727275191 0.43988258366523597 0.1339678444394338
P 5.67192675382089 2.452904312674418 6.350335655579528 -1.8155284472931186 1.726481631736091 0.40306850016067997
P 2.085477332566206 5.360255306073355 4.901787331757896 0.32866668821033723 0.1083462872165876 -0.668267763944991
P 5.113118602742609 3.686138692917639 9.839668340377829 -0.03484976068933353 2.2825387404130817 0.09071237618490828
P 8.330869376906705 3.7840382110498405 9.839254813114673 0.7975124918771427 -0.11305654820806336 -0.9026528705619228
P 4.221642369074428 7.22093017542153 11.911295806542633 -1.1516295018397844 -0.7614501989369467 -1.0020257506353067
P 1.632914602926691 8.528900895206837 6.304370075032073 -0.5934502046134683 -1.6170742502448407 0.8244260284385351
P 8.11516639742924 5.448000327857387 6.247224186770664 -0.8489288986759057 0.1603635608241432 1.675189152109702
P 9.297901468838948 7.9096838525879205 2.3206292810697025 -0.2545279001133939 1.241195166014759 -1.052791154113632
Ni 8.652233752986584 8.320733720069386 6.5188230529646365 0.5851648246762245 0.3850494378754401 0.3223073216512127
Ni 1.1277802182601562 6.1605954060044965 6.739797327577939 -0.5228040030508156 -0.2892074537734503 -0.38645480286339895
Ni -0.10690951419623006 1.37130915526312 6.501148765860677 1.2190996196673005 -0.8704004382861203 1.2198691508434734
Ni 8.192794601886806 3.0259080351782 5.52962250861516 -1.6011825187152489 0.8450493611158414 -1.269899218817671
Ni 1.9124552649194946 6.997813848424578 1.3362817947151944 1.3273723733334752 1.468862237181567 0.449752020260148
Ni 6.265069913423359 4.4083796006199645 7.331249641081618 1.1059155447424371 -0.0662447300608472 0.026218053156264524
Ni -0.022876818025196203 6.195844130804909 0.685724283821705 -1.5979652973295317 -0.8133278616428444 -1.1319361371759151
Ni 6.653239194977458 5.242875733722219 12.22988041279659 0.7426016987718759 -0.3462381214351972 -0.3344629831771401
Ni 6.785615017965221 4.517978454990037 4.1513596898972915 1.3918173311814224 0.9469262385580014 0.18931649641306753
Ni 5.746776130428075 4.978962445979517 0.7767878854419716 -1.3620537267657447 0.19959885217568205 1.6898069020228768
Ni 8.93883923154815 3.995426942542646 11.928859882508121 -2.547093428634858 -1.727405171991625 0.8719490137201628
Ni 0.3527575949848329 5.903907070672784 11.81339534643489 0.9163218834085831 3.8019758623287228 0.32191162887469077
Ni 5.532307138911289 6.326759891701795 5.363327088317452 1.220224220190047 3.2802805189610544 0.7451198372080393
Ni 3.0475640529003143 7.268575298361266 9.769811434145904 -1.2218450436229216 -0.8250924583779403 1.0630238875852338
Ni 3.4009555974252503 6.708523739566883 6.719241537289467 -1.041099833818633 3.114238933915527 -3.1058365687844445
Ni 6.832977548242207 8.57301360986219 8.546221941482358 1.6396372231470213 0.11787685241484215 0.5083400051066858
Ni 1.708969708228278 -0.6636603906896879 3.035239244902222 0.6354818277632217 1.7876355775375923 -0.6208280824057889
Ni 3.927698901036774 2.475134935477458 8.0620446286854 -0.43733924841809196 2.933763432832857 -2.847406505403167
Ni 4.297584437310915 5.531789052362914 8.129407183680781 2.6075395497360576 -1.5768480557349425 2.114788143096248
Ni 3.7719903438612437 8.871827091454579 4.285822930687239 0.4809765254920684 1.0852361620162148 0.8507456401696702
Ni 4.5282365686478805 8.713857792977045 8.824783890886502 -0.6234760615515972 -0.3838369056245777 -3.222828961711804
Ni 8.036549118652049 6.317038704103178 2.6722329560149705 -0.7705007391749892 -1.933945488482147 -0.8049396375791492
Ni 4.718996035759899 4.457465946139728 5.4855606606391 -1.3495108571037275 -0.9939792261817464 2.7100437763495715
Ni 9.563029905031474 4.156598957864686 2.367752549558892 -1.1563677878557181 -0.12440411201039862 -0.7592043403255634
P 3.059828574463686 1.7399041850440338 3.3415941826878783 0.7464691521470822 -0.06230091492175077 0.022883589466392847
P 5.590671943524694 -0.08497184578690804 0.5929462867140856 0.6873772310809323 0.2798586655686987 1.317358697851215
P 2.4393116055961186 1.0537503603749478 11.156249658597142 0.015893531301804886 0.29925943869281363 0.33729968129498683
P 2.509526462534195 4.4814957422289465 7.83148857885377 -1.779725064441264 -0.24302041369442662 -0.006932208343459029
P 6.765014012850709 0.31356010871025225 10.487908591436764 1.465494863371231 0.345271900867186 -0.5953903590589746
P 1.8863908016584725 9.36360426292844 0.4829602803960448 -1.6374114191402962 0.5584109536211479 0.5775476744505988
P 2.916535254938328 0.8656152371243391 8.81196171980197 0.15788218916318617 -2.2816571091390774 0.6688120664842352
P 3.7473765229356744 5.818535827255855 1.2432080172872293 0.0764070153058297 -0.8975723707152219 0.288592960117903
