# total energy = -340896.7086574476 ev
CRYSTAL
PRIMVEC
9.01434061738701 0.00000000000000 0.00000000000000
0.00000000000000 9.01434061738701 0.00000000000000
0.00000000000000 0.00000000000000 13.19339867706623
PRIMCOORD
 96 1
Ni 6.3825587863188 2.091029544712572 11.354093825020898 0.25347066249347316 -0.3744534075271486 1.1665943506797327
Ni 4.559498544462541 0.30213816088022705 6.034713411453544 -0.0008394651821598446 0.15900293303119067 -0.6493161625431527
Ni 2.6107964233984493 1.551440131059122 4.8795788488623035 0.6990140439889122 -0.5798254147411821 0.28307357296157054
Ni 3.2819681667115894 4.077267380012668 4.709594526835466 0.43941669977241093 0.10879648738012876 0.24513231783110687
Ni 5.209973361770431 4.382718311061419 2.7039605348779223 -0.07837802298927146 0.3452125083841603 -0.3673185962545803
Ni 7.222992802977149 6.212422121935913 2.517049985516564 0.8461585350196202 -2.7073680292896207 0.49681606362748637
Ni 5.123760208323471 4.564113886846989 11.41598358324139 -0.10485730022672264 0.6986818574604742 0.19595559899613996
Ni 5.530586413699335 8.025593632159872 12.29226312527425 0.0017532352456808514 -0.1718455933218137 1.0856272268070464
Ni 2.014876395369209 6.466455254232942 0.40512970647595636 -0.6219909923656385 0.1651697239635349 -0.22680138073240294
Ni 2.8487119147122955 1.7046478638053093 0.362254798305758 -0.6936697489578634 -0.8595691519985712 0.06163834163708738
Ni 0.4816740782011257 9.031918558781038 4.82134260288481 0.7787233841950976 -0.21903484941310666 0.11260840492705122
Ni 8.574440773603998 2.3731784053242255 1.460337599273639 0.015742350435921273 -0.276330340700466 0.1651596966612059
Ni 6.767696488224005 0.7175297926891006 4.756444759207892 -0.43563974922848203 -0.04647294675055867 -0.20751939257433938
Ni 1.072318914114393 7.2318719284628505 2.6306847630523627 -0.5666857920354305 0.5752213403102674 0.21759760274594786
Ni 7.687501773817996 3.6796898880868865 3.7734967220507554 -0.7248659720550097 0.49946507121455924 -0.31072398768898746
Ni 7.736170198688358 3.9158836403471597 12.539032501920135 -0.23332246968037235 0.1345962220520521 -0.4419672341084066
Ni 7.8403399185998035 8.916886558453074 6.788584518249861 0.12931594748971922 0.22761744887579508 0.7644115955581158
Ni 7.038748695563679 0.6707390549645986 0.36364300675732975 -0.8589364035105789 -0.20457727922687993 -0.05083893702873825
Ni 1.810214806508922 6.734767102031852 8.917774471001644 -0.16683142793667396 -0.8890193389388883 0.8296983325810678
Ni 0.09132608743222963 4.755966097722317 1.4706157504196264 0.3782902647747356 0.6471260968703693 -0.19892342337521224
Ni 6.265696874850126 2.164027674847817 7.038203327957705 0.5674026155967969 -1.061662745571649 0.4005259362444844
Ni 3.4334721890853936 4.365798393765314 0.3883098483604521 0.08391772186057804 -0.03656391516696284 -0.17961418152363903
Ni 6.0044522700774 5.58368989414225 4.742565378994353 0.24647829033604002 -0.8810743730601988 0.7282382309613522
Ni 5.126888184509805 2.821704950290809 9.476725786818282 0.22586987005706907 0.039555650805435105 -0.951752199191735
P 0.26215685604090216 5.652298040407915 12.485982206086728 0.19138263491347685 -0.49501706274553453 -0.5945182408666664
P 3.996399730538319 6.276261682027022 12.498014547912428 0.05088084601026722 -0.7782790975688274 1.2381206408544936
P 2.3836079973922026 8.559062308549573 1.5379672976064005 0.8918403533274512 0.1582251743249017 -0.9254048195464578
P 6.21116912859326 7.742408122379835 5.774130459280463 0.44850092146186626 -0.6191157277003725 0.8982208029324982
P 4.71399532791376 1.1396470240156213 12.545879795035809 0.8186307619129967 -0.4170884685888559 -0.03165362234953903
P 4.024939132860891 6.197187886331003 8.1520161532632 -0.4686442291789607 0.35934920489585853 -0.7654842597970042
P 4.682427107151395 0.9623349445194158 3.788075615094437 0.36228463337509864 0.5048042240392855 -0.3740685133839041
P 0.2786603108015353 5.516397841603401 3.6110330643820108 -0.5424420889967174 -0.7507340980710232 0.3183385668114518
Ni 1.4641091993784285 1.1323544224745725 2.84840182139584 -0.041790967893857056 -1.2656144753993883 -2.0165146667346305
Ni 1.9776832260758008 6.158579465564238 4.873680765811243 -0.4211523542455844 1.2928599413789026 -0.6368694521393676
Ni 5.944479862101383 5.752411307051782 9.1155833581419 -0.28762391133641435 0.36778010927203114 0.9711221190779146
Ni 8.511241231695106 2.2846756093662313 10.212693511759623 0.7227075309511102 1.4230312948903816 -0.007136611044781257
Ni 2.3618924508997594 5.010558119136213 6.95491352516558 0.0779620184977754 1.1927902923488103 0.8448812109690932
Ni 0.4541217461736649 -0.03988394996090295 9.104804009658853 0.053921946829436164 -0.29926355245787173 -0.11098552461164757
Ni 1.3149669342404153 1.0289779645354529 11.257873852079847 1.2484112241472243 1.3054328929479067 0.40560026544359823
Ni 4.034133760267404 6.70386594247349 1.7303540588789916 0.8485249783692678 0.966966187928012 -0.7962043145886804
Ni 5.769745884015239 8.171643978473929 7.978826331720915 -0.511477522294403 -1.2250944037981546 -0.10565459931703738
Ni 5.254314903155374 2.7533672342429836 4.870660060277984 0.05967556148376174 0.5174116283906508 -0.002701715201879218
Ni 0.534588257491554 7.329082577435249 6.826739517684716 0.9693136051142661 -0.3255129730727039 -0.12892385425762315
Ni 5.118270474901347 4.390551773038146 7.305132375909399 0.22429121271603952 0.3627446037306527 -1.088969918027034
Ni 8.017904399632659 7.037576831286378 9.10398640896692 0.697617934972334 1.034233959936735 0.3731161767729639
Ni 4.471500551577846 0.3562818962277618 10.472853691358814 0.47147681353174936 0.20400906542823574 -0.8219454281085263
Ni 8.062263969698792 7.206803047269209 4.745401290545422 0.05251581051052891 -0.8961873174422372 -0.1976898080784273
Ni 7.267649846282903 6.114282995882268 7.05193757728767 -0.6896819679547089 -0.33166665137892554 -1.2964155199406446
Ni 2.4273185349355226 5.017823677655478 2.499371060742392 -0.88202465278861 -0.326614690777315 0.42979177508813726
Ni 2.406946125191678 5.2200513945552185 11.313722199233824 -1.0609376944801663 -0.46409620479696195 0.41097618504353095
Ni 0.9954987035670285 3.15881424550787 3.77085822455871 0.1987143926881997 1.5090938310081043 0.5506279672416194
Ni 3.586706964853365 2.6242007478626515 2.667388453651483 0.07870275331854187 -0.21211575369577018 -0.13492712302890958
Ni 1.0052882774527874 3.2587021536368717 8.163310220594202 0.08715191252715958 0.13472426298948412 0.18344486812363892
Ni 3.5133662897755245 2.5997087844670648 7.129475329346366 0.4550001560329648 0.811881359004305 -0.6525009880290376
Ni 4.119661823829174 6.748550028801029 5.85513783103403 0.2464284109347111 0.5057416482518903 0.7720889095977155
Ni 0.754221764645448 7.563473461576598 11.484075207790983 1.424209888579515 -1.9227164525355467 -0.925737006074896
P 0.1618245409205862 5.452260808272669 8.021072038917609 1.1846748623305274 0.836500700214882 -0.36382163884491536
P 8.443381275698794 1.650111103207849 8.076959147736144 -0.09833261173432743 -0.17312934513024375 -0.7478477776621636
P 1.8605598987298833 3.200550642460968 10.299333944950765 -0.519279534837325 0.4863683859316011 0.62113018702724
P 3.964290649340277 5.9819164185908456 3.742610886871404 0.5052770499106459 -0.10462255850809725 0.8880194369194642
P 6.879456282916122 4.0501071718010735 10.301985963953705 0.42372448584813477 0.1231725535961427 0.658404497997666
P 6.216045886854951 7.907082096362382 10.216413730123021 0.6887867098339492 -0.2679331177757063 -0.3719023589705208
P 2.4411014617046987 8.325969489453849 5.831785280289602 -1.0373856181918393 0.1014960970639736 -0.15685066257487826
P 7.001636655335623 4.030419851942421 1.4876086838745475 -0.6781320583335804 -0.08584836322438764 0.5136393058324121
Ni 5.361008638433315 2.978428275868899 0.35139792649359586 0.22373148355782757 0.010431993966601388 0.09529819578337781
Ni 1.426158825475072 0.9276838192736907 7.121137064296342 0.04456698797709744 0.19450472548222633 -0.9295540658281412
Ni 6.7735467952699135 0.8867055283646007 9.230774912298392 -0.4926981848043708 -0.10343985105390574 -0.042720421686661916
Ni 2.6910510977123647 1.5664129507867883 9.15507067711664 -0.007237398288703665 -0.31196325941272723 0.5936998587304292
Ni 6.191923511423743 1.9989390411979184 2.492602192389891 0.8409178554459711 -0.05764798953077169 0.3672512333517546
Ni 3.913575969154936 6.82163830234222 10.453749599336634 0.8555587452875973 0.9599285643549403 -1.4828834911613236
Ni 8.13624466295885 7.372973401790461 0.1015231095128655 -1.0821901761010397 -0.8417125834331246 1.076648934567836
Ni 7.6270786488122475 3.930829417053042 8.272762344094096 -0.41094636024686 -0.7029917976897376 -0.46732113949216286
Ni 2.987487688166494 8.41897044136856 12.327621876256654 0.4105738073987897 0.049107556159928324 0.5675599671102678
Ni 0.19023053100235757 4.811530493147566 10.152109030057229 -0.38123494922535633 0.02552488374398185 0.8299862961351318
Ni 8.599149081173856 2.1369576100421686 5.835162953710407 0.2777773575596377 0.9801387207542281 -0.10060238160511062
Ni 3.6841159293188452 2.7369521200201774 11.458242811948976 -0.8212430027248632 -0.027623418144223394 -0.26160254757198814
Ni 1.1158491648458204 3.3770063596006845 12.561500745852229 0.3863139064101605 0.2915314739209366 -0.37421480915378136
Ni 3.2720433777169116 8.38514863545754 7.956767338851816 -0.09342720401291006 -0.47110246091146607 0.13234033613833981
Ni 5.691158862711329 7.721873454505287 3.677686000172702 -1.1106504883242614 0.5300532284140612 -0.9270076452572035
Ni 3.284320909606786 8.353273927114957 3.629029293945113 -0.887939218500832 -0.5846650022216704 0.3479923851221426
Ni 3.4294427788395976 4.406579270615382 9.184636812832938 -0.39840966123242993 -0.1384184240116197 0.4133871084778687
Ni 7.202124604500599 6.303205546064347 11.363408343157321 0.37954264912459795 -1.0753582407808706 -0.6469134666389311
Ni 0.6483050655267641 -0.0221671649562338 0.2578624241816245 0.90802981860312 0.9311319518382223 0.9926959885939484
Ni 4.6070221480773865 0.3914639661345102 1.4373284949058676 0.005436340524222896 -1.2077129750969136 0.47727979336677157
Ni 6.072222082667765 5.668911470123803 0.26863996979655397 -0.7779052591691764 0.494579975208116 0.42283436993369766
Ni 8.162737809966442 -0.023988963190406807 11.106942240333801 -2.646437512352836 0.3244120266990413 0.5609825710030663
Ni 0.042134830807379946 4.777663615533572 5.772969412211876 -0.09237433726836349 -0.33884182897112614 0.1687168178848449
Ni 7.8894320174781125 8.448429306431782 2.547605895830152 0.728927800829209 1.7985434826993478 0.06744414968558707
P 8.350921184219763 1.446594335603079 3.4919103562922063 0.2363358025853994 0.27878522999886185 0.23776867837718405
P 1.7200804149033015 3.084716365820081 1.5326641610345848 0.41471919702573096 0.7492032632487936 0.6872108807063971
P 4.639365602130889 1.1377179551283723 8.146369570314729 0.949184952685191 -0.5927128122268115 0.6530386057000624
P 8.639542341378354 1.721973426428172 12.505323375266547 -1.1061957949870176 -0.32014039590688087 -0.6706545190096127
P 6.214206961373648 7.645810448567872 1.3878794281400115 -0.367285943244432 1.174600508813661 -1.115406514952008
P 1.7729405081501621 3.193555514159542 6.071008752423728 -1.2667506458863604 -1.0361759141544542 -1.5330963645702886
P 6.971528757749587 3.8771760618338544 5.953956638368508 -0.6739966960089683 1.0289279743427893 -0.43053405257080046
P 2.412309657845478 8.543638771792176 10.086261074881637 -0.467933062044549 -0.5415136636451771 0.29928000751810396
