# total energy = -340858.1268743826 ev
CRYSTAL
PRIMVEC
9.36595864106994 0.00000000000000 0.00000000000000
0.00000000000000 9.36595864106994 0.00000000000000
0.00000000000000 0.00000000000000 13.70802719681693
PRIMCOORD
 96 1
Ni 8.16305119591768 6.924215833266966 6.429010433358484 0.6530519754365011 0.07054644275999464 0.004412784355714981
Ni 2.621719170735523 4.83780803436407 12.960953689874659 -2.2484729090776243 2.3040802140292835 -0.7665024166488735
Ni 0.46674037810332536 3.5376256419608647 3.0730928203327545 0.10263252466126196 -1.5174509447235478 -0.877839925283301
Ni 1.716349403093625 3.473178479865154 5.160948596456985 -0.5012175351292916 0.8830525798324921 2.232254390336233
Ni 9.390684871914349 8.636313091092251 10.736030853961754 -1.2442488652394184 -1.1630652544805518 0.3142299439597169
Ni 4.19970526535074 4.663966474175366 6.361758166619894 0.18917302885666776 -0.7887360312360933 0.046350819350397594
Ni 0.32527412749407786 4.2835024982050225 9.621088393534851 -4.373211992738998 -1.390294723889309 1.8262252648853323
Ni 7.201560603500678 7.712295699597344 12.231206887773972 -1.406564921804242 1.3944892215866307 1.9281923880484535
Ni 3.35998150252338 0.8682674586859401 2.0609061664433415 -0.13788029211996253 0.26376947331631995 1.0521105831068396
Ni 0.41702305931933215 4.342976336209348 12.079938224746563 -0.34439258358602626 0.817574038513708 -1.073507560725377
Ni 4.838594774898301 2.3306064411527796 7.809202464901177 -0.3035902048576836 1.2156425143566354 0.5773311875644186
Ni 8.173044673894154 2.5287901281089233 8.106310344673933 -1.0546361777421707 -1.2267136845691324 1.1855346392276613
Ni 0.6092640454544135 5.371545925128236 5.073052820057712 -1.5761410023655889 2.0427718006589464 0.031176168492488242
Ni 2.4120996481568158 9.21197301318041 4.123690207614221 0.8047748298665107 3.52645027691774 0.9248466330501427
Ni 4.596391081860216 4.418849967968881 13.488246864429254 1.8549647989118698 -0.7809183349638874 1.4076350149399692
Ni 8.561722595680212 2.492159863473504 12.999198645797 -0.3089931210408098 -1.5418232029203254 -1.2284062417802069
Ni 1.2026172001998905 2.925213697773655 7.567256335728467 1.2032487686779731 -1.1610631364488584 1.2235823380290023
Ni 0.8060765560508982 1.2106438268407893 9.59967687525742 -1.468442118925013 0.44187210329143906 -1.3405996706570267
Ni 3.5355183012441755 7.803267256847108 2.925498422919376 1.6772123531873178 -2.389956345167813 -1.0217504827577435
Ni 5.296505863696637 3.0725776926020085 9.871383338329146 0.19227480771044306 0.033595319456942135 2.128309317511135
Ni 2.1005597625603034 4.760482678999708 8.963761057610078 5.784514172117909 0.6869900229448427 -1.5287571137649865
Ni 2.972820866053337 1.8204894983330087 9.436139742875389 1.080175973884488 0.7128463218863142 0.4318782253035207
Ni 6.61865142934711 5.773551606202507 4.904499280174085 0.47722811419322975 -1.2765120961484984 1.21731116030831
Ni 4.50852902291241 5.258873441475948 3.8994270085442126 -1.3728757570819128 1.0019041374557778 -0.738118980410174
P 3.3986629121230427 6.091600833123903 9.917771058780772 0.38785888229977716 1.104352056910059 0.9996983880537105
P 1.6293864761849395 8.279825969498454 9.206160499185845 0.785312350266525 0.119192228792156 1.1814627831511328
P 7.926523273876543 3.518734503180593 4.140071269451948 0.80984813062436 1.3792734330781407 -0.8287087149742889
P 3.003653602228178 1.5688823827191223 7.212286499450686 -2.098566281920747 -0.6089156472389191 -0.6967537871998258
P 2.3397944466775424 2.1759089006303496 3.824512450959741 -0.31064993991794243 -2.5885149290044387 -3.45708037096435
P 0.7641189340836897 4.969549610012705 7.304692921579547 1.183241986538743 3.3992457193440684 0.938949391000112
P 7.870336887390253 0.29671825588913525 6.681319995877934 0.7438070319338868 -0.5497077694201953 0.8185340884341323
P 0.24740086354337587 9.033401643827583 1.9129418136597003 -1.6426752386423968 -1.3676898420055994 0.7877302156793983
Ni 6.365704981633283 5.19612151791233 12.06394116721721 1.7459865345382384 -0.6923679994273043 0.49623730830588086
Ni 6.386366286615573 7.180880566600906 3.049172161708653 -0.7235058584826894 -0.9670392072577927 -1.4901075197135885
Ni 2.0651845363961563 2.729146717492941 12.507423059979413 -1.2718699693907967 -4.004572620790465 3.8193493206101636
Ni 1.9796265032985965 5.339195903637379 3.070803780016494 2.7760298534323935 -1.2744127904173086 0.16387208819803392
Ni 6.600444005554919 8.281268327144543 7.811560813312121 -1.172634900446858 1.2426280418065438 -0.41466134720460207
Ni 6.882040921056971 4.9297349194054 2.7133116910498054 -0.08243650932936125 -1.1997944915807852 -0.35162149723429764
Ni 7.694238131145006 0.4161960451625161 9.623871019876756 -0.5990374688932586 0.6360338436119497 -0.9530138395129782
Ni 5.6753214309285935 0.7844093470998423 6.532039725891205 0.41159196425065886 -1.091874750378655 -1.936996873713961
Ni 1.740251329800245 0.49167349686731165 11.551562345361527 0.9724830039811833 0.2616100037711559 -0.8157482981588791
Ni 5.323601582333883 1.2441177633805462 3.8657732455966314 0.5884825761955478 0.5494113212256989 0.845248621610841
Ni 7.627308989982975 2.506293095213429 2.103469765941082 0.4687072212064121 -0.8850205021921403 0.7828780297934195
Ni 2.8202587641238184 7.270775038595475 13.120035435683677 -0.7660984963422355 1.6259512410194963 0.7528022934539615
Ni 0.3872243249894803 8.996481034471197 7.639853755120454 -1.3946671419253915 0.13027959695456917 0.331815518251964
Ni 1.1581382621396483 7.555275401307186 3.236190689249843 -1.0006219283092446 0.7139966334406735 0.6954936895404796
Ni 1.5236916317945763 6.66970527044342 10.941706371314693 -0.9359214028070655 -1.07003400035448 0.461387033395915
Ni 6.295132482521065 8.02923037742858 5.097522323864026 1.0331047314282982 1.646193021987668 1.505612300217407
Ni 8.763287393741798 5.075328748031735 0.38455034376897085 -2.211462650401862 2.1656949572484443 0.2878391126710139
Ni 3.972946038276299 8.923726266972363 7.816769222967902 0.3407760698793615 1.005139870784256 0.7514966872686606
Ni 7.54783883006696 1.879598063946441 5.335712703581661 -0.6209970038834853 -0.43781670227514274 0.44658647804797286
Ni 2.274438786583971 7.500053708571201 7.174054655870583 -0.758575448492313 -1.2809637041619488 -0.23412259698416454
Ni 4.509709133713755 6.93497731986019 6.180839688006612 -0.7819190083142599 0.803375892636455 -0.5259744303589974
Ni 7.4404768450207275 9.183856405040412 3.1529966241384706 -0.5770465664444643 0.1904961185434655 -0.34218734840459136
Ni 8.745698123226504 3.909978697661641 6.462457208617893 -3.6231481812621213 -0.9584319252047558 -2.9417240824408304
Ni 5.195793709356401 3.2642988680269736 2.109309441215995 -0.5658368137715739 -0.6573017518517905 0.6157180148727331
P 8.576745593500517 2.418768210780293 10.511493232300639 -0.38888500957144634 -0.21848103379216566 0.09591011833576385
P 3.43660441098218 5.759671255348585 1.360749237792586 0.6534286420496295 0.2829715001660675 -0.2481201968148372
P 5.8594280818972555 0.831773937048137 1.9614406212115103 0.565309223402878 0.4152822686180525 -2.0242308044319652
P 8.483142201844577 7.155339597114639 4.1995497904356425 -0.84465829632501 0.17903079821634327 0.43786992411058134
P 2.4847326581920184 0.6318612941084346 13.448342260618038 1.5649654453647435 -0.09101062415161745 1.3568153611849407
P 5.155829163409242 8.69751026550489 12.694058519808102 -0.042021595847424396 -0.11502781300182124 -1.2499382023147119
P 7.165098926122593 6.533645987815258 8.606187484802344 0.12601850768537004 -1.8838763397398977 1.3360688726662087
P 0.3421328532275872 3.4112413947119893 0.726648542949217 2.752515829470853 -1.9890270028373227 1.5144777210278368
Ni 8.371865246044676 6.307261399090451 11.121664839157038 0.7750965860757877 -0.9801850006111312 -2.32330820902096
Ni 3.8388536069837134 2.453787530512288 5.244636247593999 0.05849002581609281 -1.0111246276127812 1.8314787999747877
Ni 7.31719273011507 0.7221538193494885 11.933591373037466 -0.268368405540912 0.5978822722428929 0.18751698131048353
Ni 5.417776297473015 5.690812726685939 9.801554496340952 1.5390721225377493 0.01971521904074024 -0.7050085710094504
Ni 7.455481110923551 4.315768226067211 10.168135311669749 -0.6367637797994389 -0.9458427756858356 -0.4878357145057469
Ni -0.07496981674104206 6.795696147425181 8.578606609502323 1.0108155810127946 -1.0421223615458763 0.8408008702521326
Ni 4.254233877139902 1.3913787326627505 11.794509695523635 0.023450774823772516 -0.4849488798762551 -1.7207172184484885
Ni 5.561272151341402 8.310190407736252 10.263610958477983 1.370776451350723 -0.9028986680241419 0.6502700418159898
Ni 9.203796531199657 5.724820522873925 2.540372072687844 -2.405269835596432 0.13718866536957663 1.7317899313228822
Ni 4.604651857469635 1.596343373747261 0.32589228077097315 0.814592587287881 0.46318423450565394 -0.36795031630130826
Ni 1.0621746488810166 1.3730401854481886 1.1652741861042932 0.39727811873114804 2.2193775343735647 0.07666901071796474
Ni 6.731426938545546 3.608366728330418 0.2639795471105342 0.37947142956703034 -0.49444473518183224 0.7656891767189588
Ni 2.8272925991381883 3.5065306589412804 1.27938902740267 -0.7359194016556938 -0.5242764738312842 0.6764996649364801
Ni 7.707013298867511 0.24693537539395616 0.7406984176563489 -1.4215765647217258 2.2913378267619504 -0.5633297310790041
Ni 3.2873297605706955 8.151006572976963 10.869615650290585 0.5562856797480291 0.7965627263693636 -0.8785330946955837
Ni 5.3551554973317685 7.382033262477895 0.7800195222380114 -0.8134019094138895 0.05998255120121927 -0.28239197351351364
Ni 0.8332753002342934 8.387281614132096 5.394259311670644 -1.8272097402857885 -2.44243307491029 0.7317071633465592
Ni 5.746587010987634 3.491236048317491 4.6301188358818495 1.4166148498410764 0.39710611192965806 0.3426696873576485
Ni 8.053900312751948 7.509007565127442 1.2422089809891632 0.6366835613808067 -1.8880633812380514 -0.666458221540078
Ni 1.4475838510665224 6.624889157868508 1.239759782778434 -0.277132010666155 0.618069288713729 -3.0124417606713667
Ni 4.456547951900756 6.243460488147858 11.990164573619753 -0.341940779611424 1.2419451568069062 -1.1571905408673295
Ni 0.25575342554845565 9.159392520809343 13.208753543260395 -0.049571897390856566 -1.4869463483767875 0.053110763782050464
Ni 0.9923420605093246 1.1443890347080974 6.112697655187642 0.8920522122279412 1.7514544996313448 -0.69659412169351
Ni -0.11149611923443828 0.7729641455185375 3.9745195193447596 2.0556617692477372 0.9188798739437465 -0.6207818025488857
P 2.702819007472444 3.645306069604285 10.971850709522082 1.1068539973963067 1.5069281908153531 -3.763641742635215
P 2.5436820025068565 6.239751568486486 4.905417144130688 2.169471136461425 1.0187685173112841 1.2462121596133764
P 6.662830656727645 5.683853819341497 0.6844408498836282 -0.5529918394881057 0.8989751646000196 -0.36005137316920577
P 0.14464318381413993 6.588165233645681 12.88158374571717 1.6647784982993394 1.8036077845961327 -0.5229037618534736
P 6.008843221689853 2.8845654368384155 12.162365217837062 -0.5914491150230394 -0.6737452421197945 -1.2443126285978183
P 5.022364251352294 0.7920416668777517 9.551383182202036 0.07863153376097426 0.9888218503505228 -0.5529447883002541
P 6.251861753138391 3.589147780994217 6.85960664008504 0.9744311288464894 0.35566661383794873 -0.490741061078
P 4.45681956470424 9.048359079936702 4.95924892858953 -1.1737283906213527 -1.2857508411379468 0.41396149292409995
