# total energy = -340868.47614694637 ev
CRYSTAL
PRIMVEC
9.26514819293346 0.00000000000000 0.00000000000000

0.00000000000000 9.26514819293346 0.00000000000000

0.00000000000000 0.00000000000000 13.56048091588795

PRIMCOORD
 96 1
Ni 0.5932261400297912 0.3451184379976744 4.990745361984786 0.6308312163650879 -0.8747733705428354 2.318203540804543
Ni 7.490242423772276 1.3673228004000848 7.253609607991374 1.6275031588876487 -0.6537248331338097 -1.5974942712303843
Ni 4.590250985233571 3.353307352638971 1.25954781506298 -0.011493602461896336 -0.6741069963345875 -0.9477199381038903
Ni 2.293689394620065 6.918100981878851 11.029769993418242 -0.7177152199428414 -0.41964748756528375 -0.8750651907516414
Ni 0.636965052435713 2.180200592285686 7.999232614403466 -0.9102761914351356 -1.2482482162067987 0.2795727588971637
Ni 4.791341765367898 2.033403581575759 5.551457316853989 1.881638194437998 -2.5643283044559064 -0.0802479863184747
Ni 2.3491876333320363 3.7833492140439997 11.108461678034667 -1.1889215534220234 1.7882156184107785 1.8755863318169637
Ni 0.8526373230683529 4.400028224132491 8.8565534699708 0.3476023487725755 -0.08837035831529297 0.2968310317569791
Ni 3.880892696040599 9.292387902134214 1.707359304519042 -0.03915841536701643 -0.2611772871091115 -0.08105068472542816
Ni 1.1699102841670361 3.437601672472278 4.147676157633938 0.3765570841337128 0.9622016766598331 -0.1271950444919745
Ni 2.5839201671830843 2.189382354316331 2.55487578008554 0.892339918671689 -1.3948095810405268 -0.7724146683682505
Ni 5.287221771061284 4.746720810837538 5.379727791891322 1.4249567940478685 -0.06822422238472121 0.6347266947647521
Ni 8.180977764749713 4.511636201348584 7.344220905980578 0.6327772843478651 0.8629655792746299 -0.11585647955070369
Ni 6.733937627809094 7.635112283622089 10.528696872065746 1.37493341094189 -0.5380092500363444 0.33792497358381157
Ni 3.8313982734697563 7.629071406887497 12.77551944019155 2.2516489928127608 -1.0401688373639313 1.4262251192373308
Ni 7.4902238934755445 3.2723948119592317 9.389941575794015 1.4373736796549825 0.08847397377269278 1.6835994876605844
Ni 7.462623016493414 1.9581335162508757 0.741493529785393 0.20818633673437698 1.5117942606584027 0.03336006351768448
Ni 8.780757144218732 2.2704616676666576 5.284397753839346 -0.8915768152534193 0.7027166896514802 -0.08440725990248689
Ni 9.0084666956084 6.863899863938111 0.6534866650018543 0.3559260381469225 -0.00337945799519418 0.15787704695686358
Ni 3.7542937087684174 2.996386042137928 7.108228311951762 -0.8716949887278278 1.4433622931382497 1.7896518366366727
Ni 7.27152006629757 6.058397130151797 12.543743415184071 0.2810956232995933 0.21382296619486402 -0.3351420115220357
Ni 4.384360858245689 2.398024230368897 11.893260511282454 0.10384505691212437 0.04573555436390188 2.2518623943751477
Ni 7.639207479199833 1.8756273700521948 11.964303815922799 -1.202610877983658 -1.4572663048138514 -1.0411348008216263
Ni 8.312839356293747 3.9934920441318473 12.241127918800302 1.118553288111106 0.7928755073257635 -0.5232320917271698
P 6.173562924340411 7.8310609064133185 12.47343205726464 -1.2521485797024694 0.7842610261838752 1.4077381161767368
P 3.4309122353520705 8.860845086693903 11.096989571327963 0.2522383327482688 1.0967462195383435 -1.5315619302036334
P 0.12696310760296306 0.46882021337582713 11.132531606974538 -0.7208779339415391 0.21588499093021532 0.03925020374987434
P 7.417029221384631 5.488544179904758 2.8272785541628207 0.47463824197886645 0.9436578522193748 -0.16276008608077774
P 0.7807805384014814 3.514696972025251 6.423695061290486 -0.004380645566198907 1.3624892716412664 -0.17090894044015728
P 6.696867769196975 2.878107158098359 5.205502235958871 0.36124565058762304 0.38343838463457836 0.6549075405880012
P 6.468361415047837 1.4696007732116783 8.99644331257392 -0.8133710561759541 -1.3783810031708583 1.9865970532395913
P 3.06166827752433 1.083475715061197 0.024781492334375318 0.5271337407744213 0.7374764617301687 -0.31871960429995433
Ni 3.116082493877485 5.852377291086792 3.3821191845125296 -0.8374697489963705 -0.9056901147263497 -0.08737585561250757
Ni 0.14991565964990214 3.4537878866675724 0.9556546547195482 1.1910771663124455 0.7304164695595936 0.5901314246528805
Ni 2.9508293076226093 5.762653594311045 0.6513964475304985 -0.8099522603023923 -1.1952194706155934 0.2708682891446303
Ni 4.5637156003135235 7.313324415724683 9.923519617158732 -2.1090448128545676 -0.3642160460698566 0.2605609936813512
Ni 3.831972712668444 4.897557426235014 9.70066685654249 0.3993020911397123 -0.17173580721682682 -0.6806216575246536
Ni 0.0712128568554388 8.751451479937268 3.113201959250515 -1.0301181379961484 -1.7130458179461594 -1.912471377768771
Ni 9.539860014988427 1.7124495770312882 2.473757553112077 -0.7325075477606675 -0.3527766938846634 0.23111517761640843
Ni 3.4184876713933474 5.337077534418398 7.027773469601301 -0.3174376522637372 0.4901239963192914 0.9726539823414088
Ni 4.909287104066292 9.101340542828565 8.423377208873575 0.40182331489966927 0.9174565112336587 0.40231645248600395
Ni 7.347160737557091 7.519158951822369 3.887112390138653 0.5020657420621998 -0.7654783462597333 -0.35504055021817565
Ni 2.738972425087063 1.1368707650941 7.987218496517353 0.5344958375664473 -0.725438299618712 0.035922682038538135
Ni 8.413959185559598 6.983290565781593 8.233815979365822 -0.03551079131210013 0.874252722152675 -0.33877060941355847
Ni 0.18489900685001218 2.6225928964625105 10.606222074502899 0.018186955321671906 0.53047437511188 -0.8148381276397836
Ni 0.213694161456512 5.73654440621583 3.252319088479916 1.4673154615197375 0.4487120090314079 -1.365505689870087
Ni 7.781816642848357 9.014081375518158 13.350971319596125 2.0756263852951222 0.19869562363512233 0.801034388987472
Ni 4.584821608291131 2.131827252667122 9.633392614257412 -1.093964028807516 0.7035715814526077 -0.9034272868341021
Ni 1.2938131132647297 9.061824685047839 9.325773011241198 -0.038650108272030206 -1.14418692951881 0.1373940965121634
Ni 1.2554924596232087 6.551154780845862 7.783865167152065 1.8713936338918546 0.2697958820160579 -0.43976482714044907
Ni 6.2093912530714945 7.067297666015556 8.395442786550271 -0.8323841069433471 -0.9097825396281686 -2.088815630291886
Ni 7.892303537112171 5.610455002103775 10.03102683970806 -0.403988183761472 -1.279778682714912 1.16356147739068
Ni 2.4794926799505927 1.6912045918281917 5.143259895751334 0.10645909749620376 1.5010637616147762 0.835840955143696
Ni 8.95155088919644 7.314464028973695 5.883242279838242 -1.0429191464155587 -0.6622868637712078 -1.9249569118302912
Ni 5.389119872789874 5.102761932243817 2.663577280259239 -0.44554029617164553 1.0250360954875508 -0.7216240680789443
Ni 6.422341423114221 7.457805139343126 1.3261809090811354 -0.23833612084487982 -0.2724286916532147 0.2835687674304342
P 0.5881469856955838 6.329856712125425 9.847010801497323 0.3048844981890749 0.6069551810784386 0.5255013473773207
P 4.187624697843354 7.104664009375386 1.8676852848729124 0.40334669352273117 -0.2408815129745529 0.035509505760519484
P 1.991599232148645 4.162627327552053 2.252585490409416 -0.2424588847640018 0.842389040674859 -1.4158833709916905
P 0.7824056454248669 5.102558098979767 13.20272894574111 -0.43955065424711404 0.225881697131611 -0.007509163892851584
P 3.250056539248954 4.1635353120919145 5.1236789311947595 -0.6542724781071635 -0.49031220107069756 0.19878047003944474
P 5.9377185726854504 5.006385858941326 9.110500995017969 -0.11211681000261335 -0.08768155977838447 -1.4309101834178262
P 5.1085619151208945 -0.09123947504841454 4.314782373562002 -0.24465049309868186 0.1717214090391236 0.3650817365042616
P 3.554147973767417 5.448759632821418 11.929480755789418 0.6899761021563601 -0.5306456105824217 0.056056476673935714
Ni 7.289559310166052 0.5779358656814831 4.504019322876947 -0.5809531005877221 0.7169006944613461 -0.7905617715909224
Ni 1.8758404684646113 7.645044522670374 2.0186265964469237 0.49836952415753527 -0.1282006029383534 -0.36806755860546286
Ni 0.7200400787440627 1.752641790642729 12.905903240571217 -1.4119621815604135 -1.4762695853892316 0.7749286930393557
Ni 5.65059162482502 0.4350237316813938 13.56156628892423 -2.098885098712746 0.6025688790852849 0.06875978317321707
Ni 5.588718964037284 0.4429574782271468 11.111322755850068 -0.08551977624037531 -0.5081479437005377 -0.6921101177802274
Ni 1.139094400701925 5.615736136672361 5.617361243695745 1.3582029855610869 -2.7534224004455226 0.27662447490211717
Ni 5.923867175878372 4.219487543073816 11.062884560192943 -0.07047393765084638 -0.11123826405240196 0.6471898602287692
Ni 2.166275074291681 1.4999348689617604 11.046422244576343 1.88673257824177 -2.0954151378862753 -0.4799185165411992
Ni 8.103873200048374 4.8873101721422865 4.918047301846287 -1.166354466754785 -0.3690121819069193 0.8404362878238623
Ni 3.938883259663007 9.117211741979418 6.329626009931113 0.054900765802937714 0.12092155277843691 -0.6846652314664079
Ni 8.038961570596609 9.105445003554676 9.410309151446858 0.029488496377420185 1.3488904499109093 -0.7290967223069056
Ni 3.248935456296675 7.075358345093923 5.480875416602271 -1.1812694361934042 0.17981729867338064 0.8852873827002818
Ni -0.3315060820184378 7.7064539260398135 11.832035484365498 0.6430077038266216 -0.8871930843634268 -1.5432136555099485
Ni 2.870185456245481 9.152484161808545 3.8555432501113915 -0.0013030350821396914 -1.025428702940279 0.2751149802361262
Ni 6.4849552957712335 8.610000459834488 6.427112048007843 -0.2223618569038106 -1.34030193691095 -0.36484313813089425
Ni 2.402656804551866 3.1670500750385124 13.482684668766304 0.8819099815876167 1.2219190913939666 0.9258375362085023
Ni 4.561371517776942 3.0772429919274717 3.6169462228769103 -0.5922867804329864 1.525378941321373 0.14183310612012348
Ni 7.415241047750005 4.534150511877814 0.8486014244401501 -0.3918515483989381 1.1755798420077948 1.272144306098106
Ni 5.157889565021151 6.9089748107384015 4.3858395759248925 0.7587112027392289 0.8468730445881416 -0.7014972154220822
Ni 7.304151918842405 3.26151752777762 3.1682841928008556 -0.0034985000715617165 -0.20876920582104044 -0.5813197398985214
Ni 1.7767775021359984 8.603487060533233 12.597700859722789 -0.997885760325004 1.6626956476283814 1.0455375578750121
Ni 5.175122740981796 5.183201950356894 -0.22689977742248393 -0.8278787628738259 1.8015167063950588 0.5635734716586939
Ni 6.299087154402143 3.1817631306436223 7.5326573464767055 -3.246720423617421 1.8879173425784905 -1.737870333189007
Ni 5.6558079033550435 1.5068559347911163 2.4674785620644806 -0.20680256901297286 -1.1909450116099554 0.051911858377942856
P 7.440525637640651 0.42449296404866826 2.1150008167197414 0.449072220584304 -2.0092613276063265 1.0122476854736309
P 3.1904723701076043 7.490057120804957 7.946537083072191 1.0628230844283373 0.9352593437430344 -0.3930805357100327
P 6.197689370685314 3.4141886425515517 13.056261774313013 -0.2147835303359204 -2.5240602009644793 -0.049650573147591914
P 8.70292989794485 8.915824477097381 7.024926289508447 0.6987250519935837 1.854771451954141 1.6122745148633522
P 2.4350755586842845 2.834764794042499 9.272304766536205 0.11867543705673755 0.0997660017467443 -1.3755548465759728
P 0.6527612038848013 9.172283783866554 0.907541665770067 -0.6759373646751068 -0.3186622686994577 0.31341053338221503
P 6.910234870916169 6.31266986190661 6.238214203123093 -0.5332241699428752 0.024458904373312714 -0.053473032217475645
P 1.428880446143379 7.289475923830758 4.3621495180680245 -0.17254647604358025 1.9446302218895026 -1.2495754196586544
