# total energy = -381177.20466540416 ev
CRYSTAL
PRIMVEC
9.13575237703419 0.00000000000000 0.00000000000000

0.00000000000000 9.13575237703419 0.00000000000000

0.00000000000000 0.00000000000000 13.37109705979989

PRIMCOORD
 96 1
Ni 7.451914441323818 1.6881317297089926 5.458082165896213 -0.08863621038216994 -0.07975690561466908 -0.708547180290328
Ni 8.150424931584393 7.5844924796798185 2.443219934381 -0.7489484669255102 0.0012773240505268323 1.0819371795499688
Ni 7.578371525593647 7.623538685298173 5.57473110642438 -0.7078930916460969 0.2553010308339926 -0.4379370299030909
Ni 8.19848812478939 4.264797598920898 5.141146471916147 -0.10078184460576838 -0.3107178170414004 0.833813640301022
Ni 1.599049008374279 2.1056173413953574 12.629909970413955 0.4459084781443417 -0.37017483475645285 -1.1406946000948355
Ni 3.2874091318924568 3.999056834057382 12.728963451882471 0.7192242003882001 -1.5689241729021755 -0.24185878928615767
Ni 5.659881799940156 4.203752501601798 10.290008086706582 -0.51038788877465 -0.7688619180199855 0.6905312033288817
Ni 0.5912467081394587 1.9127524731667511 7.901048126361399 -0.4470711309938752 -0.5362873822492312 0.8106045491744104
Ni 7.245099279230161 1.0630818242348425 13.08904730429386 -0.5031592322366947 1.3112849808533094 -0.27482316002732027
Ni 6.875265751892259 3.1383136532561604 7.189545682659116 0.39336927059504506 -0.5136976698741734 0.8805305847415866
Ni 8.904352895705738 5.86536314218817 12.270214387478179 0.3046338156308495 -0.6510938232688657 0.9195370479117712
Ni 8.261607037895896 0.003777633603928221 7.1000929633535215 -0.8165106302462002 1.0405421615429498 0.8328677314479851
Ni 8.79560089952397 2.6939872011143153 1.228055240485715 -0.2556704983582694 0.27683941912640064 -2.161135877122852
Ni 9.008135042599632 4.078190721063975 8.001184194485456 -0.44032609896055774 1.53000744123232 -0.2718861888861834
Ni 5.636832296717155 4.809663005866202 5.932087023178859 -0.5712330450864808 0.11298532865049574 0.41693677350234
Ni 7.512173863939321 7.969801971528129 0.30922237825625265 -0.6433370621415823 0.43732613579196944 0.061924248308622386
Ni 3.852309243779513 0.43978324248952705 12.187434421701749 -1.3110332698538196 0.9935007438834309 1.2131608855853624
Ni 9.008153314104366 -0.1527506931585012 4.572474207876584 0.14975853161478725 0.8248764857123924 -0.727495953478689
Ni 1.0481540048664781 4.426180664491375 0.47930542080622324 0.053477917313482094 0.47861573856937567 0.08974641272721318
Ni 3.5862304560784017 0.2216991298506576 6.156681272954752 2.2390968671793634 0.19245992713805563 0.4016343388173148
Ni 3.963482214338648 7.014129187877045 8.463249536999118 0.14436127185861589 -0.1574975521302578 -0.5203288020374458
Ni 2.7079100877222637 1.9227013074948718 4.521383426337024 -0.27047259636810833 -0.9018486294930728 -1.8936372757814035
Ni 4.473622626535388 3.543420320484671 8.14983110768051 0.41965340110255467 -0.0774799366550343 -0.46782507571177495
Ni 8.692823685390493 3.2987009218185883 12.060889634209191 -1.1975812859795505 -0.19075220041832955 0.9385938074329062
P 3.5489748579240628 5.17427088284994 6.950563536479773 -0.24852000335641716 0.3613209839102487 -0.2525898025504166
Ni 2.6690191898941564 6.51902622407708 3.9586868579209895 0.49691145155477 -0.9871622032599128 0.924243709358821
P 7.614174539121566 5.798151412021059 6.597245622271694 -0.5818673848718754 -1.6609241575502556 0.829570548753952
Ni 6.919135634760611 6.0458125229494515 4.20613236509351 -1.0835364057162886 -0.5577391243651039 -1.4253563434791323
P 4.585855344369144 5.534484462944948 11.715167184519386 -0.735233945552895 0.17080815319623485 1.3665140765299433
P 2.551917116048565 8.546423253702585 8.195011971013587 -1.4064754474142294 0.34452499539883247 0.38763545343506145
P 6.039052066197561 2.243265722315276 9.33413523007865 -0.9004041837370622 0.3157342964193853 0.7531373081958771
Ni 2.6393005874429387 2.565821731151779 6.657549810073798 -1.115474392075466 1.6797821707970233 0.4043237127240198
Ni 0.7565480979003217 1.4100394276447241 2.8389916898404812 0.11637789927181248 -1.2526864544838103 1.0013428656356689
Ni 2.196563756213025 3.399797157516459 8.961777494361632 -1.6659509213408856 1.079292285727954 -1.6866909821017144
Ni 1.4605510024841897 4.037527487276589 3.046872080660179 -0.8230749137272794 0.21270530765065304 0.6004731728985208
Ni 0.19139309852221484 0.539389436976272 0.473187207445762 0.7887632849296028 -0.9289668258661034 0.9865772772907203
Ni 4.40994643253447 7.097703050534205 13.400914482860482 -0.7080375876437612 0.609637355896292 -1.4243412719510566
Ni 8.98076432850684 0.7953220580981262 11.502993903662237 -0.3686378292866361 -0.18944453735049954 -1.2043222042478097
Ni 2.4409542677938805 8.905915109360567 0.6839325702078828 0.21531086359430016 0.18098252262607542 0.04158193720684452
Ni 3.271622551801555 1.3680423740116936 8.432268373570723 0.253262403137409 -0.3917330205432028 -0.3077787890177345
Ni 5.939317057602435 7.888457232448621 7.528302121168765 0.6335637848049024 -1.705258974911889 1.7047586382367028
Ni 3.0198503523078237 5.574033134943509 1.563375722529977 -1.7586016521990875 -0.04202493828153408 -0.4629806031352801
Ni 7.390832800995247 4.838303589538064 2.0665300248913505 1.1286677508372884 1.3578474019938809 1.4314971662695475
Ni 2.293658532373966 0.46047663517697035 10.384342038502089 -0.07491243303817421 0.925595081180393 -0.934976522395293
Ni 4.902774593994948 2.308668573513637 5.866943627347733 0.22565698271531462 0.6792448317817851 -0.6755473283255398
Ni 5.5390888821381274 0.22349978664227613 1.1447728083290767 -0.15554145684515147 -0.11671214268277964 0.04679947685204198
Ni 2.194818827510847 2.404255950533954 1.4089394830596866 0.3815658502022138 0.5829297646981186 -0.4004778566153684
Ni 5.82931346334633 8.743353531734694 11.705272251130232 0.21673139809091058 -0.09883191996824914 1.1046186803078848
Ni 8.005833378865235 2.7466913565219624 9.681196067490283 0.8647401546765495 -0.43674840891162847 0.20679254171064387
Ni 5.42324754211924 2.2052518567144412 11.882332267763204 0.6998486240750657 0.19354827510622796 0.555765545578501
Ni 5.902161952724138 3.8529944252070694 3.7219119095136155 -0.06486173367039151 0.9465824820653376 1.8862659230179966
Ni 1.5347972619742134 8.220468744985403 11.940215481187941 -1.403795843699537 -0.8798106758564266 0.24258435459827254
Ni 2.2470022450335514 5.9692001035962665 12.506281315077079 0.43049342914085215 1.537369795134662 -0.42562607374622186
Ni 7.837032082372413 4.961416988441418 10.43456309641627 0.39694567509239376 0.6501749109990221 -0.5650788525596268
Ni 1.299295837446857 4.421722417336074 10.873656589602058 0.16927937525653428 1.1385197039307038 0.2882813424147551
Ni 1.340260551062369 0.3525157951502198 6.319862254591137 -0.5471582635254642 -0.22740661841656967 -0.11646223145550265
P 7.535680154780693 0.9499172596596095 2.689381868345899 -0.44544053736898775 -1.5466062261312654 -0.28584933593449485
Ni 6.351878498762761 2.733745995417328 1.8136021527231405 -1.5526187508739324 -1.6983056835225074 -2.4234081970683556
P 0.9675675332334652 2.3498708166907014 10.471133513143053 0.3174435658010081 -0.6454186272609594 -0.7579673825946688
Ni 0.6350617764936057 7.251850600229685 0.5448498761662789 0.7639269426122134 -0.2965700647861086 0.8304421527256278
P 0.28951290609878044 5.764111598700052 2.1220333748243747 0.5452222228450158 0.1345949365004714 0.9419750652003133
P 6.070899298950388 -0.04694223638951482 5.864977613438264 -0.7347063551841991 1.6561791866661026 -2.091821506997746
P 4.432831492214857 5.623165211175494 3.1599644727917093 1.9792143876222752 -0.6108326617559738 0.4345403455167162
Ni 3.861143516318808 7.711881410691125 2.236503438412912 -0.0004244891319283012 -0.06792546019737979 0.6633908954686639
Ni 7.768422582093088 7.803713993488432 11.45083332552045 1.5522626530860946 -0.004528998218605103 -1.5250526683302057
Ni 0.3928154259933834 8.649858242006516 9.043367985179824 1.175048137874041 -0.7014571062127661 0.19496675272030942
Ni 0.4301980111056299 6.552974679874412 4.473153048863702 -1.4072879160131957 -0.9644354510863583 -0.16708416737742837
Ni 0.25460519630286815 6.8820170728917835 6.948103278367227 -1.3316918266444355 1.8819467268173522 0.7978513632738001
Ni 4.936576877754403 9.517626816378284 9.769832964109467 -1.4241404687941603 -0.8267672749772018 1.5285730227786385
Ni 8.081989010600049 2.9023188981009644 3.301230611649127 0.8060354417464892 0.24233984268763425 2.4478359910934167
Ni 6.016587251126075 8.301950520350424 3.5418964769897854 0.5784218495254362 0.6339931590328372 0.45767153221754087
Ni 5.9693005968723085 6.705094092544325 1.6908688011182718 0.30823747382170785 0.3409151665603871 1.0598843135149876
Ni 5.632026890971892 6.749192369221862 10.243049405962804 1.3153077288594575 0.16520623362842515 -0.6323831342332399
Ni 3.579396913307572 0.7967764698750196 2.462220472154761 -0.7746870093421949 0.665390442397196 0.7411549390230203
Ni 3.586358356611546 2.6474131355452077 10.482164934126713 0.5565499891530094 -0.3823562073139931 1.0055072814260038
Ni 1.4351262036456598 5.850471865829275 8.720977333461171 0.038802831799810596 0.6384108284845585 0.5052847632201297
Ni 3.472609103884798 5.310201742324783 9.881655486661927 0.05288167849037989 -1.344041349348724 0.6155007566556044
Ni 1.179297730100794 5.017693223024726 6.146131306120855 1.7646655990049804 -1.7216839532371317 -0.07137639486045771
Ni 5.042049138836268 4.710859844012553 0.8281614335580546 1.1142793433261002 -1.1242829915060315 -0.5402270836232697
Ni 6.395072335955923 5.162485762295967 8.307649402677221 -0.8543333575209286 0.025960685729819806 -0.5060995458119413
Ni 3.2374913809568735 4.242104390040227 4.908502710729321 0.6397128351254338 0.8914873408634065 0.3622985173321696
Ni 5.570068218416049 1.000054268652011 7.728012408646278 0.2259243774440883 0.735809872661023 -1.6833295218286495
Ni 6.561251671519296 6.138549545231133 12.65118348337673 -0.6261435810814314 -1.3129780522850163 -0.19314435479958994
Ni 1.2156854317802284 8.021245393109073 2.8688089584172674 1.3417594952930827 1.0235697953546694 -1.7074845218082981
Ni 7.285488440446525 0.141249694503156 9.490563977140274 -0.18523564147547453 0.30679791316170385 0.07739457603007961
Ni 3.590113150834555 7.556500534426043 11.011124996200339 -0.02994255319570327 -0.10383143006536956 -0.18609079038691823
Ni 5.359014067223908 1.4725005665807753 3.6976034996143836 0.9930420590794575 0.2904094445013515 0.4170061932876947
Ni 3.881671551888401 3.4150812712271534 2.78926396255414 -0.33197492664796374 -0.5196942537772404 -1.1380257950134207
P 0.26679228996100657 6.794322985916917 10.430538797498421 1.0105908665964982 -0.1682445062341167 -1.034126230714277
Ni 4.799321334186282 7.216285116263318 5.486442281970395 -0.194366143021833 -0.46157086727194696 -0.6685192178341648
P 0.8422524180095634 2.9696768003059524 5.188119769863712 0.21642877924882725 -0.12412077644202495 -0.27905211050700324
Ni 7.711707831396144 6.832510430812733 8.891217510951861 1.513720016926206 1.4408223003252154 0.1672371480155249
P 7.244277061517093 4.104894525233944 0.17742818745337643 -0.265703200003923 -0.6971901034062961 -2.0376151961586713
P 2.6088511248023276 8.639370398288717 4.380906616484151 -0.030619524658069847 0.788147762832791 0.05335681835458552
P 4.1540448729706645 2.1314623848427887 0.45230653183478653 0.588593133631483 -0.2837068356701953 0.03828886827786954
Ni 2.4387434157209644 7.206473318220708 6.482414696464643 1.158768683987727 -1.0745074627448012 -0.617687222783962
