# total energy = -340885.72786716884 ev
CRYSTAL
PRIMVEC
9.11058306496625 0.00000000000000 0.00000000000000

0.00000000000000 9.11058306496625 0.00000000000000

0.00000000000000 0.00000000000000 13.33425922742929

PRIMCOORD
 96 1
Ni 5.263766941040221 3.082793560475358 9.465136941648494 0.710974301674582 -0.4108306606046021 0.6786997579115924
Ni 4.412674487896558 0.530272379442653 6.111571384738813 -0.45374648613152174 -0.3610571887259008 1.20578259084342
Ni 2.6068749198780563 1.8096169023423698 4.817854916980139 -0.054028390500313404 0.5888584714777277 1.1297517279300866
Ni 3.7299547212431645 2.9197687862717494 2.5952206619613665 -0.025864012250955457 0.14666395184986353 0.39673947261885867
Ni 5.8170435428403175 3.143870909657262 0.1641298879350771 -0.9695707154303947 -0.21780740476390878 0.6590938107552068
Ni 5.04276241591274 5.126424900628943 2.5997003356774675 0.13004819767005343 -0.7294427927924146 0.19037270559172373
Ni 4.778154640011901 4.808192232531701 11.715280602373525 2.011207909809736 0.5470381930078322 -2.1461388894933875
Ni 5.920412218827473 8.346733602594703 12.76035285795996 -1.1980679958079818 -1.375157611137554 0.3283152184081894
Ni 2.271477913198072 5.906473026666328 11.643994844814785 -1.6929899277365488 -1.6833562613015267 0.19683054540192552
Ni 0.5257617297439715 7.278772829056344 10.632111532446539 -0.16169616359263764 0.3910275098357459 0.7046231626455736
Ni 8.084321477223822 0.14324387615113987 7.240329812557543 -0.06772697103332852 0.33368882401527694 -0.5503855122135102
Ni 8.534803369772813 2.627583275291313 1.8937449378555888 1.127066982009072 0.6345544308529458 -1.0338608928680324
Ni 1.544107178713457 1.2059769970999143 2.709614965630493 -1.5952237300286527 2.360701047847121 0.86522892138751
Ni 1.8648270360002366 6.8870815293281815 0.9676496092435449 0.17766322844485533 -0.5635163931685134 -2.809594576761716
Ni 7.537048749694441 4.123021719021217 3.831132301991917 1.5328809061253728 -0.45834001903947513 -0.11061271465326113
Ni 8.04741450503768 3.948171407938416 12.615262266612048 -2.0902382216710262 0.18823766152659194 1.4285026024175977
Ni 7.1768254040346395 0.8451614635378427 9.445562853832664 -1.6719241082051852 -0.13821042176587164 0.30256279203443376
Ni 7.193944189701823 0.7241765640455972 1.0957626289625089 -0.7260365953243432 0.6036960507111926 -2.750686746681914
Ni 2.466590161121649 6.826395935220087 9.567277511032168 -1.7671192027517952 -0.29767898157957123 -1.8411898566149645
Ni 9.369961413053835 4.962024428375444 1.2503838013037387 -0.7598298897247043 0.32071658012532506 0.23329033089085627
Ni 6.571108285842681 2.408264208039526 7.486546965388783 0.07342067898399614 -0.26794982994625466 -1.6346860497893332
Ni 3.6457638227064737 4.37157664747896 0.24728673528857198 -1.6018656608252027 -0.7952555775221658 2.486646279092395
Ni 6.134319599710815 5.821443954483346 4.935062568714208 -0.7492626557318193 0.7495475339620897 -0.8481007463476555
Ni 6.637715758973483 1.9769874246903352 11.614219637088604 -0.1550334068604814 0.33849138761024283 -0.31030798319749137
P 0.3825643175667022 6.219549104722257 12.718816798494684 -0.006589223181743491 -1.0274881565724692 -0.872639097808652
P 3.810556050033783 6.355706769328993 12.861319984238829 1.4034759984662732 1.4844202395208241 3.2479872061449875
P 2.412737504347449 8.833612274675572 1.6213129931782853 1.7108788922018274 -0.6373705601455022 -0.3962149675739563
P 6.205974335885587 7.822565313836996 5.839138529003199 0.18876370923339106 0.8400411092679726 1.1209361865209857
P 4.9380089312925834 1.104357553070237 12.824810233476365 -0.9688076120121251 1.7224115754317757 1.116918066500528
P 4.033437355282306 6.402626272355068 8.319884714164054 0.6421021612932167 -0.38244259638021233 -1.1544931965408245
P 4.860559864258668 1.432620973173636 4.181663809337322 -0.8121916911558722 0.14074501526226726 -1.5504605668803493
P 0.14843326429165488 5.741626135840347 4.074776626152367 0.4667099882707252 1.3058969770685185 -0.736425394757835
Ni 0.5049176266423488 0.19457927881153295 5.05477745292066 -0.5298760794062487 1.3640651007688187 -1.1816124213551198
Ni 1.9905166406114463 6.717260260123126 5.272899389551548 0.3459100486718172 -0.11171957456419468 -2.2242875700806723
Ni 7.9086694348271775 7.672368240654886 9.063375714406794 0.48388058651274085 -0.843616742434373 -0.28105011477363856
Ni 8.793625925397622 2.4913800577690175 10.471100197110651 -0.27544999497804173 -0.45897199619651924 0.5197479898333113
Ni 3.2506196119789164 4.219065486186437 5.028922529107514 0.4382447909514969 1.4573526938800707 -0.4867530229645294
Ni 1.3694937427915637 1.4201759166428363 7.301067336989375 0.24135690994907463 1.1431793141899023 -0.15893197058393918
Ni 1.417470073458614 1.198961848103783 11.84032882193366 -0.37344322109507944 -0.3093646454476156 -1.5979442142836093
Ni 4.170888722690926 7.3090108544046055 1.795671332773047 -0.6915611872552928 -0.7546095218660295 -0.5278616200793812
Ni 5.563505125420388 7.997761827078049 8.004902702121123 0.2521421734900367 1.1626302238256623 0.9884955773593557
Ni 6.699048204482519 0.7390732784917982 5.173666007238867 0.8159683845894851 0.5658722949951996 -0.5195860103341503
Ni 0.8206066199347597 7.662419483896735 6.968577517380385 -1.8457918741633503 -0.5305548506408282 2.4678584569619306
Ni 5.31012158791336 4.694801915121501 7.14604256581629 -0.986150988386579 -0.28250613049387474 0.42517793046520963
Ni 0.5470185422605615 9.503158138149217 9.568410867571284 0.043459613845531604 -0.5271437680767502 -0.6306298989875591
Ni 4.511442319412223 0.6302482742789512 10.74169271505767 0.6956315006699245 -0.5233285080957181 -0.7606125335269998
Ni 8.163556218547662 7.593999004726673 5.120742629942076 0.13755221935658246 -1.5735938104637028 -0.19156569745856042
Ni 7.122845199096874 6.332830095135115 7.239275718091501 0.8977117245065636 -0.62350177258321 -0.3706384046564326
Ni 2.2995931726812695 5.442881005019372 2.664758098620943 0.7006698344247805 -0.10163545085531528 0.7220997221637822
Ni 3.587100778049212 4.616961093013777 9.4964864581364 -1.7093133474869207 -0.46078128149111613 0.1532184651389297
Ni 1.2006017530639177 3.7831058631177505 3.8510945006483115 -1.8501491226907816 -1.2270672112538092 0.11572715306169103
Ni 0.6409158560446271 0.09212621642712025 0.4820837721890962 -0.6129340243696928 0.5083196933917117 0.19664362620210005
Ni 2.265774688170048 5.195592447614178 7.2791992043459794 2.451415995135191 1.6411747428374703 0.49991244316462286
Ni 5.438425929877673 3.4500502762975143 4.843203292372264 -0.16428860691016223 -0.9556013977344964 0.11108554052462159
Ni 4.230690590237169 7.0085529339586 6.213218160517827 -0.6136027683019432 -0.11600560353405828 -0.5466684683732392
Ni 0.8562736417593774 7.844585593218359 2.8251025392730424 -1.010426830214808 -0.5946717357253952 1.3388634046922103
P 0.4842721342525647 6.055968584948826 8.530525951001795 -0.46364497619215633 -0.20825524229909942 1.0110896606097879
P 8.680445151398995 2.0566868057528795 8.318231143329253 -1.0281558720634552 -0.4323988736936811 -0.004635441889482339
P 1.8590691474735415 3.26901387928176 10.558160018269266 0.0699381197520344 0.5642239607584992 -0.5658267864692449
P 3.840147223981101 6.198667648229876 4.070949270187075 0.3930813070409811 0.7082167935341029 0.12654275561995626
P 6.80254442863324 4.291193972683026 10.711050179819244 0.7358759500122682 -1.1582732324085472 1.7741737956057317
P 6.277929721303052 7.887086463435183 10.39450843594756 -0.0510749642989443 0.32332239317928835 0.6641131183466692
P 2.174677967634568 8.957160892255494 6.1714151609673715 4.015149110754731 -0.3685612104124298 -0.8187040383530932
P 6.9321880263149955 4.31620252332508 1.6743028777317923 0.7021464189703069 0.20184419656643302 -0.14486932184328596
Ni 2.6622854863643846 1.7333339899467728 0.4719956235093345 0.7467805127399139 0.46139011871970864 0.38778663430094507
Ni 1.0051433029820902 3.7703054938455884 8.586169748415786 0.09200101308934479 -0.49567757914766897 0.08563187633820736
Ni 7.882412734298799 -0.2334650696495704 11.767550750861195 1.568631581362421 0.8707202835193844 -0.8524037445983835
Ni 2.835860315811526 1.8004972086473987 9.26808322846378 -0.17232279006854836 1.9905668365206166 1.010172805222473
Ni 6.255964105420359 2.3489816437306583 2.5921932151932956 -0.7277492071400757 -0.17373535414535887 0.9349099308234157
Ni 4.235701410948693 7.1857811072335975 10.990150160276118 1.4765272099259927 0.8055469321458448 -0.9237446582352156
Ni 7.654957916328122 6.400512617073117 11.51701335951831 -2.233435298018212 0.13399586946389183 0.46409954723107166
Ni 7.6488902679756245 4.1343279526630345 8.724885664760333 0.2041252792911259 0.43588348980817193 -0.5272013607875631
Ni 2.988353255937825 8.639985051799227 12.592234356738512 0.9159889255491966 -0.5160715694229886 0.9431657430743047
Ni -0.03133220637999499 4.7726336266461145 10.75289326593539 2.115062222693241 1.2321554244099941 -1.5145294002013787
Ni 8.6185296285708 2.63046221955466 6.044860050960535 -0.40555655668985635 -0.14917591963843985 -0.6323296552874852
Ni 3.681905505911219 2.904453896060714 11.656209403592852 -0.33530399102119673 -1.930813113500752 -0.23025411516769378
Ni 1.1483070060018457 3.362725337170344 12.525136734236291 1.0316443448326877 1.3121244460354693 2.071651974028406
Ni 3.182117137560847 8.880076248546054 8.495603263817417 0.8620404963571993 -1.3325387480257633 -2.353589119392688
Ni 5.620610260365522 8.044034478703182 3.628905599716289 -1.4067212448764481 -0.25939756950086934 1.7282942594647979
Ni 3.2488430482721036 8.940442972245233 3.7531675759538707 0.03869870212177851 -1.2785139570698756 0.7895297307819822
Ni 3.5103623364980217 3.011630795788626 7.0849989257919 0.19335647081039603 -0.7775730726407383 0.5328770710161016
Ni 5.739375821811718 5.6236349739586595 9.511446946664385 0.5952998562276974 2.2445743453541667 -0.4946326828229223
Ni 7.676668435883682 8.8635952036967 2.995407580441338 1.962692221597536 0.9301778154550691 1.537885815539132
Ni 4.477915373560582 0.6203960897017866 1.7918175561167304 0.9662071982748004 0.3042946871238759 -0.6325646541164267
Ni 5.888488735603518 5.725227086239 0.29971540792238816 0.5792965388209056 0.9805693805337434 0.4924930107721002
Ni 8.252019980563816 7.45467085719701 0.546712426668003 -1.0107597880741948 -0.3525411808350896 0.6050587353866742
Ni 0.20112705489402613 5.300045282991643 6.355014365012492 -2.357400265608663 -0.3892907296502973 -0.816694207011916
Ni 7.550933278356914 6.50710643948187 2.8277163655678352 0.18774580949183794 -1.6849858264851496 -0.1396504966465079
P 8.55252345392538 1.722556170125443 3.8258918945859755 -0.4086025426050318 -0.1326637809160296 0.36940016137395737
P 1.7544158792676148 3.3911412458962324 1.6974774679934284 0.4684382838157416 -0.27847335518539784 -0.834701185112298
P 4.98699653668505 1.2735319708743504 8.376742041248546 -1.212546391929815 -1.0350407721087467 -0.21128760136751998
P 8.505685946147311 1.7822669318405684 12.904176167197015 0.2180953683179728 -0.3892539628750909 -0.5414928377095707
P 6.253486026813933 7.841014244638511 1.6077118036505909 0.5042378100128542 -0.16107627062045163 -1.2118233977208615
P 1.4689357574575066 3.539297548461287 6.050940454129391 1.8541937250738 -1.263606958051056 0.9127598770889377
P 7.13125426730912 4.264035324426574 6.055700733805336 -0.011790307766708728 0.13244035205131385 1.0285081131965512
P 2.4027249735075156 8.839853024107196 10.497515421785176 -0.16052682587488484 -0.06288147001556912 0.373618313220363
