# total energy = -340896.3092215439 ev
CRYSTAL
PRIMVEC
9.01909165962304 0.00000000000000 0.00000000000000

0.00000000000000 9.01909165962304 0.00000000000000

0.00000000000000 0.00000000000000 13.20035230762186

PRIMCOORD
 96 1
Ni 6.225761647116868 1.8677907258667388 11.332766317576711 0.9984172073484417 0.6566070397776111 0.4909562624125996
Ni 4.6332065380081815 0.2145668936448237 5.828430980442361 -0.040565580127188194 -0.510507702181966 0.43149384538090846
Ni 2.7875847391654385 1.580253068237763 4.850363714745475 -0.1952601155910121 0.046938573533067546 -1.0342272750685155
Ni 3.45867730303912 4.276663810948532 4.802869178655824 -0.3232748277708046 0.4724273503704767 0.19050048941883965
Ni 5.165432149323494 4.346201006780514 2.8536919744818685 0.7783518597882918 0.7190617066684069 -1.3743202028379233
Ni 6.965029523998844 6.006245977939877 2.6185804922007714 1.1091139970750772 0.6583780156351049 -0.9953524523801891
Ni 4.819658217571677 4.66873273961417 11.195944894981338 0.9476757151295162 -0.29724240826278486 0.6409215107215542
Ni 5.580851506005864 7.712513793280681 12.479691720955195 -0.8132065055736317 0.5580821095268195 -0.002512996229840833
Ni 1.6403653134025045 6.82314117577203 0.2635044843820911 0.4427200531140311 -1.1088633145168516 -0.46665908042813176
Ni 2.6495385239379012 1.609249447563291 0.318846532027308 0.4417173228811295 0.2766131620482075 1.0547737317612995
Ni 0.5171375730653361 8.899787004606498 4.850204978734237 -0.012060273598643744 0.631407400583532 -0.797591167633878
Ni 8.518108069403693 2.4862659096517326 1.4080813163215788 1.1476304079827202 -0.5480100700027981 0.1766335016287603
Ni 6.927455988611549 0.7243277517333794 4.854389837212323 -0.6069729216902514 -0.6330205107069227 -0.5915478453844328
Ni 0.8992656590272117 7.336498847569767 2.4367186283258477 -0.6681482076479912 -0.007602752047922389 1.0594166298499497
Ni 7.819281799021148 3.8937492602037063 3.6540154935044646 -0.9171667479073817 -0.8364274237747853 0.07825101049310394
Ni 7.784107341985515 3.7735428080573183 12.594337001253333 -0.44615324716529614 0.018448950733806934 -0.9583061982601689
Ni 7.846961390980726 8.796139604541501 6.875496100296682 0.03115482833624957 0.27662447490211717 0.4886589817379907
Ni 6.991735054071281 0.5664305160095789 0.416848882692664 -0.6381300640193461 0.21896568673806807 -0.21533117530927431
Ni 1.8771796001677885 6.268458026503198 9.348133260710838 0.6255661113114064 0.8190058858642283 -0.9864114411368173
Ni 0.25452507683730247 4.918687842764304 1.3232829156819066 -0.5470212237269677 -0.11739837011652686 0.07767019828896947
Ni 6.398747822999799 2.0669683436038957 6.934277127548999 -0.2948487112196277 -0.3989925303190935 1.015448708909432
Ni 3.6761095620686155 4.079253935154704 0.5105310885067205 -0.24684210143336202 0.4651606415057344 -0.9292295926091867
Ni 5.911428268499978 5.5356568382608495 4.691444615949331 -0.15904484201271962 0.932129025644169 1.6534340198207975
Ni 5.336118456861789 2.7733345745202334 9.122882351218731 -0.10202240188108881 0.3197048510313591 0.14598878015970987
P 0.1778889540482064 5.551485343926885 12.338250719669142 0.29146565368000765 0.3056429736216542 0.49953577655149456
P 3.791193170215968 6.121013917883063 12.65072887115469 0.051625437485775603 -0.17679188158349554 0.2933536147313399
P 2.4224828942271186 8.631207477410573 1.5719771498336867 -0.2853901369098891 0.8649399293921813 -0.8759722759469429
P 6.285648414992919 7.629601284683611 5.8447591437801325 -0.5074002669012357 0.25498864179989633 -0.7602669772621229
P 4.6238357018902265 1.2162695906513454 12.606824835410137 -0.39950675095135063 -0.8243362969382061 -0.2623677078727869
P 4.081950643527436 6.231443674791855 8.310532775526568 -0.6884938611838788 -0.7382315947286383 -0.2699223802915932
P 4.727735636518557 1.1521077733817322 3.8274688583295617 0.8874571366580909 -0.1769525755310759 -0.17579455066723274
P 0.09154287729896622 5.5925673059261936 3.5129704303373512 1.0182483831417561 0.062252321072002466 -0.04640249852393944
Ni 1.5162175182498163 1.2834978990471417 2.6043898535597805 -0.1717687173372913 -0.19343257546397008 0.16573896620344358
Ni 1.8038092904280778 6.471062899028442 4.732999178345735 0.26021260920299705 0.23988598183050297 0.08318187213581803
Ni 6.030489296019821 5.52397711470671 9.136940409213972 -0.24639010149760793 0.8718582537785694 0.4266208335593233
Ni 8.3575592207649 2.344639115079799 10.048359294101571 1.3027219217746469 0.05085744897149951 1.2687969868924278
Ni 2.292716205040277 5.305931557451978 7.101208787276027 0.2301021629708618 -0.4288438093525711 -0.8339532512026798
Ni 0.5824763817819107 9.108831508496728 9.079162304941748 0.46237176590668755 0.01411741323798859 0.10795882197018182
Ni 1.5307562938245445 1.084879464985936 11.358375126116963 -1.0884605824907834 0.6466275599673961 -0.7002600005808715
Ni 3.9154311562841317 7.145294106760687 1.4565535219349903 0.8600772019832412 -1.1381381522215688 0.14270008210610907
Ni 5.570245054345889 7.964904051148667 7.931114926574745 -0.321060336617989 -0.036105744583621695 0.624311412968699
Ni 5.441641827968686 2.9646114680616944 4.923203701902187 0.3969603303804131 -0.17000828300275883 -0.8185757403053451
Ni 0.7162340189785648 7.434617544516088 7.00817234841678 0.597274720565881 -0.5354977964684003 -0.007558271963232144
Ni 5.013487514021109 4.606239454280862 7.073765495514996 0.5625820542797021 -0.22506871431201236 -0.3299401556061221
Ni 8.204748752673943 7.182542954852268 9.08911577437368 -0.4082508156925678 -0.12887063242218452 0.9113660820652046
Ni 4.501690145061105 0.45169594670511887 10.422588459686061 -0.11984271789196134 -1.1956781554195666 -0.4458177182027483
Ni 8.125633281618413 7.0660162920572995 4.716604273730511 -0.6644039101142106 0.20645238476240577 0.1569463076124781
Ni 7.34133308063928 6.250627282513596 7.124454593830808 -0.1435724574087334 -1.534196796723319 -1.000700861176296
Ni 2.3494823672408596 5.215623393785878 2.4811250274696017 0.5506829888492709 0.966962074162954 0.8008094174608595
Ni 2.346975059790627 4.992599297996872 11.447913059364897 -0.2616310868170784 0.9513675621588066 -0.11325426604116624
Ni 1.1523693270366127 3.2517883620287664 3.9210455407725116 -0.16742586698756326 0.792002617802507 -0.4507128415115206
Ni 3.7172005431594726 2.7171817105448874 2.6180393467079153 -0.4472253971835524 -1.163697745858228 0.31489483123722545
Ni 1.1873002686004603 3.3784975791809724 8.18438995732355 -1.2423999849561378 -0.21075846833692735 -0.7325458571977707
Ni 3.8475444542053605 2.514044711618335 6.7265034136578254 -0.5025267408590184 0.8589032362797983 0.6130787774776731
Ni 3.9490362913904824 6.700283110710648 6.088675965139149 0.5861133046324228 1.0540707921570038 -0.5498939172890723
Ni 0.7281581599136442 7.323854081220034 11.082712004419554 -0.2273361701899504 0.45790318861237267 1.00339229196553
P 0.3013810612453842 5.443427608095111 8.012811661631199 -0.5262839911796162 1.123570538820039 0.53246209496587
P 8.381414717908296 1.5834458266456126 7.986780759606521 0.6474140604244333 0.806524722678082 -0.7690444663444369
P 1.7102542538048422 3.1548962615329197 10.296182284009854 -0.5647096421456661 -0.1465521088623476 0.7154786173028387
P 3.8910345136478792 6.189053944518143 3.74400257751147 0.33659468480816224 -0.19387480520771128 -0.17333760448630794
P 6.8168458498718065 3.8863536051346754 10.489461415874883 -0.31389312944558845 0.5869278301139181 -0.2754880473048288
P 6.2342486122631575 7.767836900833648 10.37113364049786 0.20782766784337758 -0.18376985556322545 -1.0429872806493325
P 2.38237499411495 8.476638286467837 5.810715680824568 0.3299707517337414 -0.5903921345134349 0.1237633931026062
P 7.0397256401960515 4.090194093201941 1.4696348123156269 -0.18073415406069518 0.21153005639562927 1.237052090380663
Ni 5.647935508936898 2.695878616309461 0.606770206774521 -0.5389870405685815 0.2902289530594292 -0.07348727055587344
Ni 1.4812144239535878 1.1409331189542582 6.825849608963773 -0.8390373505938067 0.7675223732729555 1.216033579147467
Ni 6.981110564228211 0.5231975006761673 9.294236071531548 -1.1426427249601419 -0.1644115056412717 -0.5562548265100936
Ni 2.706611335251102 1.6748092240227817 8.993029980662186 0.39355696112581895 -0.9070188608401023 0.022172936552613428
Ni 6.560748745377757 1.726398427675043 2.6202571413194695 -0.3537866232064165 0.7647391541008636 0.9348793346957964
Ni 4.0000753304583405 6.8498196485698255 10.529749697818003 0.7582394053091329 0.8116103647311054 -0.34637310435116475
Ni 8.039266460958613 7.134128471424761 0.19690029712138848 -0.22550888717322454 0.04261629200862983 0.6410978883984184
Ni 7.696062970297862 3.8841349086139663 8.256120596219908 -0.38638049798203783 -0.07468077664334234 -0.7159763828748638
Ni 2.893703370314478 8.543063895715896 12.467257099438521 1.7274874472927864 -0.940281222437658 -0.33910819525863534
Ni 9.059497077731367 4.871373688505605 10.284275279348714 -0.15534091079857115 -0.980082413594996 -0.46698998140498926
Ni 8.44722702893112 2.342808239495637 5.764026549610118 1.1632593727692289 0.6875374108078804 0.22407472582985927
Ni 3.6257198975921847 2.631906199962347 11.16994014832215 0.1119445460908072 -0.10642413049321026 0.9027114917140001
Ni 1.2404136987242653 3.3097089679474414 12.597702926218897 -0.9480436399918964 -0.08235551957978074 0.33667387478552985
Ni 2.9988389204848294 8.348017021907541 7.985711095348975 0.4286846580668875 -0.4057349912492496 0.10582686322884355
Ni 5.573446831845286 7.851362707655954 3.722340523432449 -0.03049868280948941 0.23799673522759013 -0.3532248371656756
Ni 3.177128322197749 8.413197996522031 3.7168100164954616 -0.1331378923389707 -0.2966243150628117 -0.38176305381468445
Ni 3.3004373418365107 4.269683034090691 9.184646893954993 0.9402038322325034 -0.08355879585926254 -0.31837327670412907
Ni 7.107891934112797 6.017637090564493 11.331485606576953 0.2713981935061713 -0.3582415736539766 0.38337513549681074
Ni 0.4796632476850659 0.05295649793087716 0.6072851969018889 0.09326445318280066 0.2745179700820756 -0.5620953444512707
Ni 4.675875860119867 0.4924947092298338 1.6429817518604626 -0.4274469290050445 -0.21512111618099725 -0.34962066475418496
Ni 5.768367438371976 5.4861420256645355 0.4000354922296316 -0.08262625674266416 0.4611219526599865 -0.07400560495318867
Ni 7.918672187875679 8.85506132962196 11.459397068632454 0.309823330251589 -0.24535986046088062 -0.2344828085370607
Ni 0.14646373336891028 4.900018323260777 5.73080111825792 -0.15211803298589932 -0.4356176377412949 0.31155908199577315
Ni 7.8636827867099734 8.659527424870031 2.5222439677442567 0.30065117683401765 -0.1931556676534996 0.6807404424907051
P 8.613620248892758 1.535680717809533 3.659982524472355 -0.5655964156259936 0.3153992816774697 -0.5219100304816366
P 1.9445431949367988 3.3604143006280385 1.6430349645005935 -1.397017130214807 -1.347121016715312 -1.021217493072409
P 4.595353410782912 1.0232880888073883 8.008059502294769 0.9397289494786139 -0.5259970560668167 0.6592905001470453
P 8.646666200323157 1.6264668933276556 12.483546480682637 -0.1351325541714963 0.13837857191261976 -0.15797192066351504
P 6.134632746119936 7.75097119963964 1.4426794534073202 0.8188220519881962 -0.48091224791303633 0.2052686488669497
P 1.8394347020410902 3.346317460539143 5.978689947534501 0.14891752377073061 -0.6901041430937922 0.5518718669510496
P 7.04352267773759 4.166216015856645 5.980591172032733 -0.6007940465730491 -0.5046682126820534 0.4079584812631296
P 2.4636009325926187 8.434708529863054 10.16332114451303 -0.9045120352578487 0.2981253250883704 0.350014557758494
