# total energy = -340888.8169208806 ev
CRYSTAL
PRIMVEC
9.06080497187943 0.00000000000000 0.00000000000000

0.00000000000000 9.06080497187943 0.00000000000000

0.00000000000000 0.00000000000000 13.26140395654716

PRIMCOORD
 96 1
Ni 6.371974872608764 2.326397926816207 11.671029924581955 0.8848659788921469 -1.5522575108797718 0.08895708405669842
Ni 4.535539976135166 9.057289407061242 6.138226943475716 1.3986577511420235 -0.6347513773551003 -2.05533883869068
Ni 2.087446377372004 1.3574535617902619 4.733060994719608 2.1002678379928863 0.5939559406052932 0.5685333867671305
Ni 3.2225296628669664 4.268952971442789 5.099606800165376 0.6667289587029614 0.8908173113795755 -0.3830810012951596
Ni 5.071314436554747 4.2982193715908545 2.6413533207563864 -0.7916416349186625 2.018491587955343 0.28353868552344713
Ni 7.51244933707837 6.14210224977396 2.4908098578523385 -0.8135618320305215 -0.17607582935307742 0.1183933870399445
Ni 5.184094276382291 4.515968637336459 11.375300652770004 -1.8274822772208847 1.0212156933001961 0.8726912912028261
Ni 5.706721508747742 7.72904788058905 12.493356873510091 0.153706974739574 0.27862119361717175 -0.6911112442020678
Ni 1.7232201380060819 6.578932719600082 0.298936796781738 1.2376987228257263 -0.3439948339269753 -0.3291932501377685
Ni 2.963100694124116 1.802465938530843 0.5411538603477255 -0.11731866591852701 -1.6146335020138323 0.16024554718904013
Ni 0.5838456552634034 8.728545280072977 4.385626239178576 0.1157657196091103 0.7612763923632437 0.32952697932810343
Ni 8.5149005589921 2.3800016491926637 1.2255273349184832 -0.19017113110387893 0.9031195257856962 1.2035809552064112
Ni 6.743449755974206 0.8309899845880652 4.628906135170993 -0.41358971140697803 -0.9013724611876025 1.114314824549726
Ni 0.7882701011768892 7.246949628985921 2.4726819052900364 -0.7605595688018773 2.2225132517890693 -0.4716701604894781
Ni 7.510909000228471 4.059122849266661 3.8577029662909763 1.5435252732130966 -0.5919916177900707 -0.02605093145078094
Ni 7.453064821112295 4.13764378539147 12.886623898979595 0.7387949234312761 -0.22095649191585173 -0.12234645815042154
Ni 8.063083517696967 8.730230589802865 6.770676568916906 -0.260078654728294 0.7523724050053946 -0.2602861427534098
Ni 6.8575615341366625 0.6698934021012148 0.3486489034109516 0.4848475784117005 -0.3308711520608237 -0.38654376303277943
Ni 1.5446316714678878 6.795803087260745 9.383265458122194 1.1560289164590607 -0.14308651891125038 1.0142441470783694
Ni 0.18737563522661305 4.938854528268504 1.2464496397426 0.12984045253462154 -1.0576873058636687 -0.007762417554238245
Ni 6.089685492852425 2.1303674106541663 6.93156384680827 0.7849837632825126 -1.2836363658981054 0.31830951334572927
Ni 3.340981566624135 4.408987712708532 0.29993982789517165 0.8560750228023838 0.08792118659301632 -0.25683777919349315
Ni 6.098592264166836 5.698584905858279 4.734281485153027 -0.7481380552090728 0.40573807657304317 0.6487890863950891
Ni 5.599831192169808 2.575579125104734 9.385719124116031 -0.4357991576244817 0.7331235840781115 -0.6292124498147421
P 0.11474512843191446 5.565282342707092 12.280139822425188 0.7915675871476174 0.7654325806234623 0.4066965838315705
P 4.024256871628966 6.168677590837203 12.466037640356399 -0.41110602575317584 0.6273388869411132 0.3810837683594727
P 2.195478355379862 8.506999537032621 1.428955998362535 1.4863390538100918 0.501883965068697 -0.8239200353363939
P 6.307117630423051 7.84508054941138 5.6852437765771615 0.8518946661724489 -0.8586170724979472 0.3701969462436399
P 4.799390617717723 1.0362842677814936 12.695275100760744 0.7516563527749764 -0.4129469356166565 -0.3192217407473535
P 4.0368604513831325 5.87405645547668 8.449357413867933 -1.8677110428339445 0.8333786096461324 -0.9755937816960232
P 4.653819724597347 0.951991598872066 3.898866203403255 -0.5544023466823872 0.8471514950605087 0.96594623130393
P 0.44599275584151643 5.501811403686288 3.4285234402063485 -0.924867201875433 -1.5238234239087949 2.103131532693926
Ni 1.5022361648756906 1.2578843756518443 2.5385775157286807 -0.4311146076646188 0.508384485191376 -0.5205028657214649
Ni 1.8622219475018928 6.440420193574238 4.994629219522817 -0.27820493201535956 -0.02259048370600626 -0.6072107487326703
Ni 6.02244525895187 5.530162662529413 9.129892731440943 1.144322940876042 -0.31903405021657955 -0.0953907554971841
Ni 8.723743053423293 2.3014172874328582 10.25101241035133 -0.7390862294194498 0.3146202374196001 0.28275989837589366
Ni 2.0883705794819427 5.261056754047203 7.4291442959138765 0.914512083893354 -0.3849514788449951 -0.7329742029844409
Ni 0.6496497515715531 0.2818535550358673 9.087721932812732 0.20684447799450184 -0.9539978006928023 1.1031948033771646
Ni 1.7089946741570223 1.2366277271232493 11.383881235104438 -0.28628822324412634 -1.0631971799383042 0.6302231504674436
Ni 4.054936757356938 7.083963868656696 1.4433182803670856 -0.02215776704396184 1.0344291066666766 0.0073633823436066725
Ni 5.471403342108298 7.658255811128731 7.98802018475993 -0.21752715451932858 0.3554056468670782 -0.1795391053113295
Ni 5.325180071027964 3.0792964574364348 4.746627738045211 -0.31161384649310847 -0.561430200063446 0.8414644719780605
Ni 1.0760974449488616 7.481959728255385 7.2814386771356405 -2.1229238848295053 -0.3937724195707347 -2.2011712957781833
Ni 4.688803492700034 4.431177624152065 7.135643076051279 1.720802579073443 -0.9355578488200598 -2.2642214301611325
Ni 8.296036814231568 7.365039100543114 9.09394126936432 -0.9013228388965896 -0.3418356214921274 0.2974969474757521
Ni 4.831565536270596 0.5750195251134868 10.419577814399185 -0.5058077256031354 -1.3385319894947205 0.7605757667517933
Ni 8.372827136601492 6.985599769583198 4.769159241837222 -1.0831240007692184 -1.077266513547177 0.017977410414027103
Ni 7.326902172300636 6.330956608376475 6.928646267598463 -0.016357872532733117 -1.3719625012390244 0.32049623658440285
Ni 2.483720684020807 5.600565117374759 2.3804220705446357 -0.11361602025595918 -2.021871045950537 1.0649905243933013
Ni 2.447685862538189 5.410596279757318 11.10200955845857 0.6821301237493801 -0.7267104814629163 1.2920526149862588
Ni 1.167004501507852 3.4547218517816165 4.008538187116005 -0.7339517364063618 0.30842747834532686 -0.9699586948974327
Ni 3.580893561398275 2.696948608071711 3.030177833534682 -1.073423742762319 -0.9215918735582709 0.08329474356459848
Ni 1.00305829584869 3.090577159660689 8.228714127005519 0.3639219118682055 0.9327437764100323 0.5533276255609696
Ni 3.5622736071245065 1.8399776712283633 6.73961794153996 -0.4987616173896314 3.2747130521756054 0.3991560524801513
Ni 4.0215748733491425 6.753570675158537 6.051364630268458 0.20163439454847207 -1.0220898683750332 -0.0005101068671991214
Ni 1.0239434513723094 7.8264787167476095 11.818523520523204 -0.39081333694241077 0.1369161284344803 -1.824693144511522
P 0.05169551684358253 5.593959790530197 8.102439124211866 -0.18500192819811365 -0.23774168179399055 -0.2545695519846068
P 8.519340353441805 1.5950278688745563 7.9167397379101425 -1.9795056936104491 0.1407514430201705 -0.20286775273494093
P 1.9038201032541429 3.1228155038485577 10.393758144472892 0.3446635778592258 1.105871064657747 -0.06826536003530179
P 4.134626537326669 5.999050260443417 3.6849994925998932 0.1409105943058541 0.9408401802649216 0.939343284004421
P 6.9351310857365345 3.9930786416260267 10.494120151048758 2.28031139374446 -0.36265255823747866 -1.7168271393654624
P 6.289974587364185 7.727299145224166 10.049983048071118 1.6416511682532564 -0.4099737119209456 1.5119055894252864
P 2.419461454965055 8.46588160394534 5.8436637972671885 -0.8767711176991546 -0.38282234831713424 -1.2619205714875685
P 6.907631542563353 3.946814171299085 1.7477866986009578 1.5325967992260507 1.2716514256220874 -1.5321936502503615
Ni 5.306052711674229 2.7456232525284934 0.5754961234564553 -0.12588146788687354 1.5035975837802233 0.2794501172763703
Ni 1.251369656857275 1.0617723122448086 6.891925543177391 -0.16318997452934475 -0.589676596503649 -0.13382797642745986
Ni 7.040363274999577 0.4448420336065925 9.166945081324993 -0.4629417794775446 1.2408997462615274 -1.393609647195155
Ni 2.8326975885727372 1.5363138524784379 9.165751773306573 0.33281439183012357 -0.5042141558637704 0.2216522324312957
Ni 6.212160394029328 2.19565957147985 2.7067986091865595 1.77587406612629 -0.8354282930863096 0.3519570261968455
Ni 4.3590264339418345 6.884408699349887 10.27506884762474 -1.1600372662875054 0.8701404997565143 1.3261906943205484
Ni 8.288371373202075 7.313283782386535 0.22245726002329386 -0.7768269385033331 -0.5610627894216982 -0.1863507289165242
Ni 7.691309627766545 3.792463358134289 8.232546847520265 -0.19610318031759774 0.0935984394834517 -0.021818638536988226
Ni 3.3567926713480905 8.565940073553726 12.581186880691286 -0.8042243566796794 -1.0330152570382856 -0.08482275017335068
Ni 0.4147964042285788 4.7960290590629455 10.209928002242545 -1.434559864355271 -0.7504893290500688 -0.34743651261867264
Ni 8.302415620951146 2.36084710742393 5.525430204078226 0.6875242981817579 0.2503704263015946 2.080290623540011
Ni 3.776942199170315 2.714780272310532 11.714023444304113 -0.6481373117437031 0.008470242254540251 -1.1092474373291477
Ni 1.281632745555274 3.2425177986956446 12.749368106607168 -0.83432117606506 0.9635142248236697 -0.7459934980622442
Ni 2.8896356871889726 8.515987855592028 8.018335826126927 2.090325896288826 0.15864863501556548 0.2708214950670949
Ni 5.579516867361151 7.941224751260024 3.608534453129448 -0.14563371081313628 -0.8286300392175535 -0.320164564276597
Ni 3.1400219725424208 8.385747844530638 3.4766625910876656 -0.6303751026642757 -0.40014618430756244 0.39973326513985996
Ni 3.4993463164036664 3.7968578485589988 8.940533685999961 -0.5849737917113409 0.22257962934157152 1.3591956884916592
Ni 7.225747345287322 5.9852687760393275 11.307283001800503 0.49098428743705763 1.153566313851181 -0.0134412131065704
Ni 0.37699925617357744 0.288559456815924 0.6115363814220727 0.46121785480790245 -0.8803223253855226 -0.6122853350421004
Ni 4.9853545795254295 0.5345267875711637 1.8254849136318214 -1.2074054711588238 -1.4904047392390332 -1.2253692547260961
Ni 5.683199658969297 5.604887121359473 0.6399764361541925 0.8730293912685353 -0.5068760189666496 -0.7126704584300823
Ni 7.9400015425851045 9.014141853654095 11.289221193114695 0.12901255731668748 -0.1977810822406529 0.6768362223402924
Ni 0.04007050402935103 4.764171268685052 5.900170601565454 -0.04188224205608271 -0.1162971666325481 0.3991719933197513
Ni 7.836219082121965 8.846834089340156 2.604764884088305 -0.013364594232364078 -0.045917074247088664 -0.4590023352138224
P 8.625967906674758 1.576335428160792 3.6361182617891243 0.32834092943980225 -0.11107731299450548 -1.2481075768638763
P 1.9704985672447348 3.3794356230415934 1.6239381793861452 -0.9972170163927535 0.1137826277408105 0.8073305064088291
P 4.833758251080451 0.8134210836942265 8.152925929668529 0.2830514614743835 0.26147193553139486 1.2353574762870596
P 8.74013404966721 1.6968713170678238 12.42487440324412 -1.0403688691898791 -0.12084930477960477 -0.48507897769621616
P 6.3507091632751695 7.633990975340334 1.3668260584816423 -0.09449626870737275 0.6414750692321791 0.21923153880494503
P 1.8176065436848423 3.1236853411285006 6.208405596437576 -0.5603971308132413 0.38560428193764557 -0.5023812164200896
P 6.77334135166723 3.95945399427325 6.15797315581091 0.28010677702376274 2.1213778804986236 -0.8309499455999819
P 2.57383038973985 8.50462560612278 10.186880032565568 -0.23369013743243625 0.9102689923462838 1.9225228484675019
