# total energy = -340891.69654707436 ev
CRYSTAL
PRIMVEC
9.05603728845317 0.00000000000000 0.00000000000000
0.00000000000000 9.05603728845317 0.00000000000000
0.00000000000000 0.00000000000000 13.25442596992874
PRIMCOORD
 96 1
Ni 6.248031685202192 1.8480836056738825 11.499566025835723 1.357292300821359 0.1465233125069412 -0.14175340192212363
Ni 4.705109362116772 0.3685825216965 5.875554161943496 -0.6517394272726647 0.4629803460249639 0.5747287169445651
Ni 2.587871277414736 1.4527785296650688 4.763985376197919 0.391277678173339 0.4156167691393358 0.030054139072903076
Ni 3.3319877348954856 4.33509779776388 4.793913767648148 0.292701840079954 0.3305860167202371 -0.3196356883563205
Ni 5.340879391580537 4.659140917732435 2.6896412112804398 -0.9696982421471945 -0.6146150116165415 -0.869208217750232
Ni 7.174690682764719 6.161791043777438 2.478657281042348 0.29112498251113733 1.003914225907271 0.9029045815614127
Ni 5.125055915109389 4.624094054106077 11.42316748554511 0.2058486897401358 -0.7996027987472681 0.35268079173674743
Ni 5.6522440595912355 8.014275883488118 12.490785511975071 -0.5165914464822007 -0.2495157916107832 -0.16494089578218046
Ni 1.7755628604749503 6.585993934213049 0.4483154948520291 0.1912412242396061 0.011607759442257427 -0.5083911700595953
Ni 2.5975250129769316 1.6343249056644429 0.35176093275955994 -0.04320070375719011 0.712501794062702 -0.07877962930306433
Ni 0.5820650125740005 -0.23565076412581032 4.386340478162685 0.20682545183110831 1.283087435373171 1.3820155145996522
Ni 8.547368564167481 2.362584242160761 1.358790448490354 1.530903727794344 0.6782888956264189 -0.5307996196617826
Ni 7.3329992675327675 0.8754552581233062 4.996308952288503 -1.4366990221854614 -0.9534108178410807 -0.8891026426813139
Ni 0.6656993265177038 7.355449183535284 2.6241905142554347 -0.48671677040995526 0.20898055050089814 -1.3623848848529183
Ni 7.75227567377904 4.04931643459671 3.6477237520205112 -1.2171365824036586 -0.3320456319848991 0.39506568446086154
Ni 7.6764494750339525 3.9558400195188654 12.636305161132489 -0.8479403095103913 -1.0202957525890881 -1.201627688134782
Ni 7.853775737738784 8.719324596864448 7.085457926677911 -0.5592151946899983 -0.2502228449801368 -0.06320979988926533
Ni 7.018265753716123 0.6256852265350014 0.44144015147602644 -1.0509705559651255 0.05388492294391366 0.18169240420890645
Ni 1.8665579213838999 6.131743112637322 9.268369486917926 1.1446898372971577 1.131419859661129 -0.22989827449017183
Ni -0.12489271342569819 5.0383715278661105 1.3510765160777103 0.5226181122922546 -1.1250118992522562 0.5732279640293224
Ni 6.193958087601939 2.0810863845479237 6.808069698706841 0.6945770912634812 -0.9154677629384039 1.3091918457697067
Ni 3.4705632147948435 4.407482702406121 0.310265265105211 0.10585643091519834 -0.9554504739789287 1.6001463641412506
Ni 5.963780792307077 5.714812220003251 4.73086201485431 0.04212341153261133 0.17091408264647984 0.5346254211657759
Ni 5.577404968891439 2.8529324276679255 9.302910118069681 -0.4983692670472191 -0.1600167190076857 -0.5808805954785738
P 0.04838731189715454 5.607126882695496 12.537374294901634 1.5989320321181753 0.6561843504178957 -0.7270149000772124
P 4.002143537276376 6.189466293194013 12.6122351200905 0.36566486270124116 0.8536417307705428 0.4738082898784034
P 2.291231725749374 8.592594413508573 1.3566704302022583 -0.6802776439216736 -0.8557328089716166 -0.5811675305913733
P 6.085530155250939 7.700303076788947 5.864937769636215 2.2355659712079694 -0.20255999168653502 1.0401017315714216
P 4.50561392055992 1.0174367135807707 12.697633550063768 1.4264729735820787 -1.4351926128432637 1.1033863505626804
P 4.002424274426871 6.124181321648172 8.436627719937881 -1.3000245774481418 0.10101118700775508 -1.4460722358702451
P 4.675677241500323 1.4045732441138805 3.7828796723060933 -0.2657276254839553 -1.120363344736651 -0.17046362537262255
P 0.25461863385847305 5.6077789173676145 3.6835104938789804 -1.022668623696639 -0.866802693632533 0.18240100024015685
Ni 1.5917071950118238 1.1719055386130113 2.5799608289967453 0.3669015633218198 0.38347540852010087 -0.7104112300822604
Ni 1.9081251317314398 6.348318240188826 4.844068817989712 -0.6576614491840544 0.74001465477099 -0.40417561718192974
Ni 5.939229875694402 5.48072271667568 9.24200645727899 0.576093972723208 0.4401741467637258 0.6173653206681691
Ni 8.814974460849355 2.4817526345274876 10.150796082410631 -1.3889904032555886 -0.5983445565912922 0.6162098669074871
Ni 2.3524958168171533 5.312986797273254 6.858966438487941 0.012933420232216436 -0.27526513266074526 1.8349122511363691
Ni 0.4780265414115516 9.13935265419108 9.277727090066534 1.1105628137064616 0.7685978657253214 -0.36575279442935715
Ni 1.215157171863523 0.8333184230413742 11.43797320062075 0.5803992849667811 1.469300096049934 -0.2326467837695864
Ni 4.011525591725189 6.969037135971194 1.4953645441877932 0.18173816984517732 -0.4765197752722954 -0.6731993969186535
Ni 5.501053519993812 7.722562816012095 8.23180732855873 0.5274484438013626 0.9628236265145483 -0.5271360547672663
Ni 5.416741814474075 3.1969259973958764 4.6893627247851155 -0.5535711090303435 -0.7496025555697412 -1.0058780345018612
Ni 0.9487104479320825 7.521310503255369 7.366637917388091 -0.3948885354530489 0.3380761544496952 -0.6463789342916997
Ni 4.946742544359267 4.671674473096485 7.153771237034258 -0.1843496393260954 -0.8557875734689521 -0.9833829387231386
Ni 8.205955965016665 7.360511508281313 9.36842692416561 -0.4402862468615579 -1.6712301674619539 -0.3350378818440036
Ni 4.577111333565111 0.2110600009498388 10.544399529045958 0.3844022912097444 -0.4215817284735191 -1.0641608294031544
Ni 8.147164172080666 7.179155309061307 4.845022418697684 -0.9614416585653569 -0.5155352373035443 0.4509167299922105
Ni 6.990844073338705 5.994716215084244 7.151504510944935 0.9768520795831565 1.1027525736334234 -0.9488733349820433
Ni 2.2544551590344812 5.267507378893005 2.5011234979116677 0.43335943783473746 1.267951351062681 0.6714461616729726
Ni 2.631774945337366 4.910500283834027 11.470631987260473 -1.272460294676628 0.5201243993361235 -0.45362924382736713
Ni 0.9644860645824994 3.4338590963768523 3.52180680079736 0.7747726270774656 -0.13115274358814188 0.5208059987841804
Ni 3.412034046935116 2.9858297722975866 2.6902769450857553 0.9029740013467675 -0.6835056639406679 0.020100627404616996
Ni 1.3475926586004339 3.129377016571846 8.494177930185721 -0.30248154517453707 0.931213455808435 -1.3111646532253611
Ni 3.7271116901620442 2.560549213445558 7.162850819843505 0.8493652148823759 0.33707342421679365 0.1154643863186076
Ni 4.045078209227941 6.879916674744584 5.879756163163814 -0.10161076826496693 0.3298763922477222 0.24083651866923036
Ni 1.1241892790659118 7.231218466422528 11.419018914943756 -1.1306248745636593 -0.3264323995631797 -0.44852046184589206
P 0.0464837328960537 5.728885301676471 8.101860440820404 -0.3014363917394744 -1.1789628995474146 -0.5054035481861812
P 8.625494996339208 1.530914017873908 7.94449096710095 0.07194023778372771 0.998815471228125 -0.590752346066331
P 1.842985056779402 2.9926851923919413 10.653589074118141 1.0025798233665635 -0.08624688421438695 -1.1153669199633243
P 3.993667086538838 6.294597828035972 3.567190225184215 0.241927437740564 -1.1084267412000652 1.4601670234004143
P 7.081268603909551 4.003311766063921 10.381648052470393 -0.046403269854887824 -0.35736945546166843 -0.16907960054090238
P 6.310790022393576 7.810741449378978 10.255453080907879 0.46769626344339454 -0.40955333655407533 1.4540899639683988
P 2.2664725202831053 8.377794269231167 5.816612038791427 0.3562841928172896 0.472652064786773 -0.4902844331565557
P 6.867790641050607 3.83233378537513 1.32564173024283 0.13271108921419728 0.7061249440020807 2.4630389240860997
Ni 5.3278024739897205 2.8542817771977256 0.27866331799654553 -0.7683183868116896 0.05659255168306383 0.25202673095809497
Ni 1.7847094579588316 1.1424734179965614 7.052547382206452 -1.4355440826454116 -0.5863267061948095 0.14020405515713275
Ni 7.053412233750721 0.7267832024469392 9.422743223560483 -0.7301359622046973 -0.17109740230187953 -0.7870902681025541
Ni 2.845787214385963 1.4154495446862976 9.24618129038797 0.1764990329334251 -0.4050433644988637 0.5926876154158309
Ni 6.571920852539829 1.9507881225696226 2.5913859254181957 -1.3211469612490538 0.46182077849922404 0.6503757141559185
Ni 4.098065082374664 6.820472847136468 10.56722345938123 0.33682531276172956 0.5733362074724127 -0.6048175659101455
Ni 8.121408802531995 7.236461911910812 0.3077811941251826 -0.336372284384711 0.4169763684910239 0.5539387767824073
Ni 7.819308460487643 3.844686219996926 7.8300117907512075 0.9187479763515726 -1.0028775571126407 1.9526114403227661
Ni 2.942560026972849 8.511832674537036 12.32979724582536 0.9151003522966562 -0.7339437659865619 0.786170327391446
Ni 0.20982837990250428 4.879773149910454 10.282239933083694 -0.5435666895194639 -0.34248353948877147 0.3366605050490912
Ni 9.015538514785511 2.3144695169807004 5.63570230220108 0.7445850477504918 0.5325428276051345 0.9217345697837223
Ni 3.863350712486312 2.3790300055575218 11.337411342105888 -1.2282334636477688 2.14107278782439 -0.8207845750312057
Ni 0.936330845198948 3.43368703167171 12.553783834149943 0.15376868121544485 -0.26639019876861864 0.7464989769437531
Ni 3.217238688639783 8.385410396442992 7.855619546894941 0.1155543749292526 -0.4021398176988235 0.7151831975496069
Ni 5.406417932165535 8.222193439559831 3.928333212392588 -0.04055015350822049 -0.10119810620758057 -2.012960887945101
Ni 2.786044537553126 8.177085318701206 3.4942375070150042 1.1247684157828821 0.385363112461117 0.2871341161841894
Ni 3.4699202361598376 4.245479254496069 9.366411955908022 0.30322279421593584 -1.0231440206711604 -0.6317043629986605
Ni 7.317739844997777 5.98973539467223 11.400555466478274 -0.7461539348995085 1.3532919214127146 -0.9441885279118643
Ni 0.44398489790471024 0.1411211319317529 0.3510862579946598 0.34907996175936656 -0.03921240853340344 0.6615453576194928
Ni 4.282273933285187 0.2898058660600777 1.7468932581833945 1.2790770286621973 1.3965319630482722 -0.08898176664704677
Ni 6.159182905088965 5.66774799512827 0.22788340109420144 -1.4643926314459876 0.37060832274944555 0.9394592407569949
Ni 8.191004447743508 8.726424529960848 11.593858389857425 -1.251905867564044 -0.06368391131220646 -0.7008302712620447
Ni 9.019233377927515 4.855349017817357 5.8348635759884715 0.02268638585392222 0.08780188740633266 0.18838344307583682
Ni 7.639881197172653 8.867680596845581 2.680031850300097 0.5844510864386515 -0.9155472100260877 -0.08689403088008261
P 8.786085702459669 1.602991017254315 3.4674506548391903 -1.4504719075998376 0.23190759161071675 0.9035234460923344
P 1.7279733854474295 3.5548658642774678 1.4269452781972274 -0.2515163669805797 -1.690890879115675 -0.832331913549173
P 4.8864202811512145 0.9610991067023296 8.224994471838807 -0.14116744751166657 -0.24941449014622852 0.27123595689669416
P 8.311920655272996 1.8259778190816505 12.345715947862157 0.5609285778366792 -1.5337327126027067 0.02747480838150107
P 6.090121566067105 7.770161347076729 1.4882066524538726 0.809030262708755 0.28822143571109715 -0.12404338623687024
P 2.0138271969115014 3.2896326493191363 6.1674963471584725 -1.5869334649954023 -0.2886924618102447 -0.863827670164609
P 6.822320278707471 3.8678787310426888 5.995135509602564 1.689838526591761 2.6918221111352225 -0.8573603172727106
P 2.4211224660576014 8.338554460421605 10.03709934766743 -0.05923153196780767 0.5395634818973417 0.1741477590924291
