# total energy = -381164.1122490159 ev
CRYSTAL
PRIMVEC
9.25165683745415 0.00000000000000 0.00000000000000
0.00000000000000 9.25165683745415 0.00000000000000
0.00000000000000 0.00000000000000 13.54073495341802
PRIMCOORD
 96 1
Ni 8.998328121228743 3.461970046784858 5.893875406619019 0.02981708336143252 -0.8187341202600803 -2.581829289454147
Ni 8.87214477150106 5.395594113295216 7.222574329647132 2.15288494996797 -0.4284758844901911 0.964180397652759
Ni 5.052144850743654 6.443057466386971 3.3193622303974832 0.5287406802502249 -1.1461535663268776 0.15683343618369763
Ni 2.3417424114430685 2.2093511998730757 1.6074883548555174 1.0676726992111547 1.3206386541540673 1.3314935945907003
Ni 3.71058057350106 3.9151902195585 9.630861134343833 0.07384542522624056 -1.6572189407845264 -1.2505033307895626
Ni 3.3391450485456398 5.073488423426531 7.664733221319929 -1.482518394512421 0.21833448091197238 0.03037784096090897
Ni 0.9272380704675726 1.230840446350234 5.5927700529587705 -1.8876208943839945 -0.850363060019271 0.7440538578373702
Ni 6.6718972021091085 6.944478772094202 9.47869080528848 0.47633311318278604 -0.13769774379551125 -0.8161308783092783
Ni 4.496980669564021 0.9076328841336821 6.955726936666306 0.0014855834065909898 -0.4424305468980703 -0.05212680260222635
Ni 1.2720380749401137 5.656278052387298 2.569191623119156 1.056380414126787 -0.811551486468712 -1.0227917795380643
Ni 1.365091240975822 5.047713307044003 9.104154124909002 1.0764884977305718 -0.3261012414760061 -0.12671579086271081
Ni 3.315553323213461 1.3911254037541563 10.590615078479043 1.2051459857006859 0.5439099317914955 1.2373367115006175
Ni 6.518652755676868 4.620462535449743 4.542199068283064 0.8157927782435692 -2.63521618971572 -1.89064296903977
Ni 2.899876374517459 6.540477414523382 0.8635533643904795 -1.4255643457248803 0.13188550798910836 1.9351654769321769
Ni 0.5914047719526581 0.7941335561434185 11.736770482543749 -0.8291733133155333 2.9829324383583398 -1.5309322670394345
Ni 1.7264239564948747 7.271913416390862 8.842642162516047 -0.16136706238799306 0.6959796280379626 1.6289581461666203
Ni 4.052679094131642 6.696312324913665 12.611935601626154 1.9097447228662272 0.17007461746432 -1.963486178253741
Ni 2.5878827457421365 6.918564880856778 6.599171776818444 0.294023644215171 -1.170463603827152 -1.0231707601440378
Ni 7.671427720320072 3.367926953450898 7.6494189534993975 -0.686660664629882 -0.036753148359633475 0.937905780226946
Ni 4.703070580740342 2.7334113102422055 4.689210673399112 -1.0325486018145122 0.5291209464077791 -0.9121384414548549
Ni 6.549303495294715 0.13093870142209008 8.386061787922543 -2.338545080575373 -0.9348052869247513 1.4869406919498327
Ni 5.176033789537071 5.461253122974618 5.911966096703153 -0.11157276457368526 0.8659637426710055 2.585488226362973
Ni 0.5047546777218128 7.644921723035094 3.3023549093472306 -1.0213738161446153 0.7025413404158803 0.007713052373541555
Ni 8.336603354803604 8.963708420760893 4.754924267854773 -0.041548255755431675 0.5044897781226603 0.3400936991003562
P 3.2422154382298594 6.308529122051593 10.216539130617816 -0.38450462111556366 0.7500360435627341 -0.2621357943676389
Ni 1.837416085440032 6.0242349543133455 11.979501581240891 -3.4736786416426626 4.742646606895316 0.5703609268941725
P 6.241704403591072 1.5676655224947993 10.62698519244997 -0.5550584922091473 0.36307216227340056 0.41578054841070977
Ni 7.1121280484645615 6.553605515796464 7.105175428234314 -1.9367803868277804 1.270180754613832 0.8725722491264586
P 6.818027124313724 8.63339651113941 6.442939045177461 0.6062586692320462 -0.3905533984128048 -0.7992862959481138
P 1.4936892731786804 4.568644004631887 6.364443361420255 1.4907392397603165 -0.14863495953330533 1.220269985826318
P 6.287435344107527 4.965114513410396 1.757005308685274 -0.5506295099035162 0.33437787966250154 0.29249615182705113
Ni 2.929823988203837 7.324925410960816 3.8048521827627484 -0.9006340403596812 -0.2398430444077095 -0.19588797898299812
Ni 5.293724118145168 8.374951473039635 10.575531176917638 -0.26528051064420766 0.7961099551026612 1.6880629227485766
Ni 7.482536639493758 6.808405401040991 2.2942610574235354 -0.2113901883836553 0.34418046757522014 -0.6541557500236412
Ni 1.5200472439517698 3.049364648210537 10.393529805054019 -0.49585447104516545 -1.6024973808719305 0.48141515569138377
Ni 7.329208928148581 4.538687139288516 12.719055912119739 -1.4182071340288607 0.32621385579447043 5.861076739164996
Ni 8.52394015725509 5.236900440894092 3.641902748144839 -0.7969015977660212 0.3954834887245705 1.3518320490377362
Ni 0.8925526832350736 5.995749102431865 4.983247761116699 0.1459872374978131 0.7223881999384784 0.41273841915027626
Ni 1.3969261926887742 0.6940408043017278 9.306316707691792 -0.013885756843156731 0.11237649142190323 0.6918247253293246
Ni 6.251557418288629 0.20912630500142784 1.7756779279942687 0.11839467259152511 1.6482172515065483 1.2779053769515991
Ni 4.467606658611209 1.7038591650889199 2.4798095145782737 0.024792633563647623 -0.5643036649564991 0.6154282515464562
Ni 0.5817404910577584 3.3661968935932047 3.1681392710182155 2.421056151896411 -1.7801858061277662 1.6642668487702432
Ni 3.325295318027101 4.821325260425014 5.012333120371328 -1.9829430014267722 -0.3130996870100156 -1.3735126193349636
Ni 6.792372279472103 6.603175893965019 11.823011653535502 0.19505982665474791 1.1323737389339659 0.5657216283499483
Ni 4.382334136106624 3.26031167930819 7.10838482804519 1.088289347020242 0.6508092021489114 -0.5526092593377063
Ni 4.688943300512014 6.833033311956386 7.841859895113928 1.124388149625328 1.1181596522171129 0.6472186565841757
Ni -0.02746169345235568 4.433551309219935 11.705003993092543 2.241314700766288 -1.767574802231975 1.3614793423195133
Ni 8.734896440009736 5.878058773823767 10.175185149024756 -1.2279295592541046 2.351741010440356 -0.7178841414205379
Ni 1.25930779491773 0.69558675618526 3.4637334126077266 -0.5537888814681043 0.7158560552469156 -1.2024704957510515
Ni 5.24583754154934 7.537417468776302 1.239347344955308 -1.1264118649235764 -1.2788500002530558 -0.8475528442639854
Ni 2.537285433647357 2.4095293022308626 12.837646426953256 -0.13558532543819876 -1.4294564816904352 -1.27767886276309
Ni 2.007202494575777 4.303843078177915 0.5388673873864444 -3.7611230899784194 1.0351945240777913 0.19142788632911548
Ni 2.824327343512528 8.483778714248428 11.246880442112607 1.0551288011078732 -1.2808629169180266 -3.844785501295082
Ni 7.6868594841844144 -0.1343904946461826 10.88113191071079 -1.2563770159615202 -0.9179506772612578 2.086710153913109
Ni 8.328239856881922 1.0611280504704332 7.3061741525673805 0.8233168545347562 0.809650155680941 -2.080721797540159
Ni 6.961326039478476 4.012841459119735 10.814565313480374 0.2636987679793845 -1.5332555158559722 -4.452156943975332
P 4.99200908028908 8.719649709285253 3.418778686112985 -1.313176284338751 -0.5004022383168478 -0.6371535590386898
Ni 5.95345977831681 0.717605699828627 4.949667021729165 0.43064538133768415 -0.3052735060973775 -0.4064014211886549
P 2.8399163855457523 2.783583046115306 3.673614652819784 -1.2197472805536285 0.025014519766466597 0.009566817752828685
Ni 8.648559976950954 8.764862557010101 8.86915463596092 1.5647438162722407 -2.147135706189018 0.6940320173932887
P 0.4024406030360999 7.88881390468486 10.753929953548177 0.16933902484987612 0.36790815020946316 -0.44440978211162824
P 0.294534826863811 2.8115693085191653 13.530810174172046 -0.18995927220338898 0.3790279142717085 -0.24107691681481058
P 6.265656943545979 2.820080832952736 5.948227966287262 2.631090083362488 0.26385971903728106 1.291495456931208
Ni 1.9522661553512755 8.925221527669967 7.300162425853323 1.3391521395772228 3.372275875623444 -0.4925614021161904
Ni 7.689496206427423 2.255896286204916 3.9954104121792025 0.4816439838727383 0.1817764792822805 1.774496726162789
Ni 4.925591434736252 3.1832361248994117 11.691301363920195 0.48791567581406303 -1.35875397296855 -0.06600638879779601
Ni 3.2852448949043556 0.5318342777403571 4.857833224085136 0.01081817366142653 0.11370883708008159 -0.7338944008058651
Ni 5.933938782061555 4.808335934006826 8.550879132087342 -0.43596653644028144 0.29224675482040635 -0.4713294893206076
Ni 1.152062587054742 2.924791086799639 7.972392448794026 -1.4115238084714141 -0.6159743538579134 0.7723393350456246
Ni 6.8628143958168915 6.832940795386457 4.825931660441833 0.8897554457739645 1.4432337379801854 -0.3970788582361484
Ni 3.873067425269319 8.802516800971658 8.768316200565591 -0.6817076914999808 0.3632014887624132 0.5007809618125053
Ni 3.7871472867752223 4.40533375539125 2.277226906568003 -0.2072157452909915 0.6959839989133368 3.852130114585611
Ni 6.600215363727256 2.7465024048873166 2.099897621485856 -1.7853362399804542 -0.005946961612054275 -0.8419745788452596
Ni 2.875563019939825 9.000733552046926 2.0079417019695187 0.4232645154925807 -0.3788965309001668 1.068192833380683
Ni 8.52028575274285 1.2068786547383346 2.0869656553410247 -0.5852522421837082 0.19774354413449816 0.36138808970275826
Ni 9.238380865226409 5.865874341563971 0.22448775627262393 0.2360522099067096 0.7818282483726664 0.32141514885424644
Ni 8.390114938851182 4.061190618565212 1.7687179064384262 -0.116720884433528 0.4358287253108365 -3.203857305705308
Ni 5.76233904815518 2.3694603757941306 8.589592690774598 0.6497321670346489 -0.7512760866174223 1.8841871861120967
Ni 3.258341076368678 8.853086358095457 13.36405553303291 3.562003748542317 1.6689457423031515 1.0223341231753555
Ni 2.8646553163450648 4.41080148467412 11.654036614718043 2.681348208187092 -3.447536436029656 0.38248707646490254
Ni 4.541804947695161 7.7480314402222055 5.464742847992381 1.4599446229769633 0.7417012984447936 0.5490670505124028
Ni 4.068314394449831 4.067361473779552 0.28448567703800204 3.574161981171406 -0.28861867114951584 -3.3305522706324124
Ni 7.504768371247965 1.7290514270808899 13.347955799533674 0.1147910144006668 1.3040653231764185 -0.25079080166846485
Ni 8.287662089310574 1.7943866287655361 9.74177369903885 -0.2032804147923273 -0.14365010472420423 -0.47155317529563945
Ni 0.09525506040004517 7.780393736383759 6.948699378014414 -1.7899984213428142 -0.9534265015703645 -1.226834783528029
Ni 7.813107595511047 8.8072258943811 0.33750784843064957 3.1485618755671134 -1.6547177716292278 -0.44990834333235424
Ni 1.335707978366018 8.381862460813416 12.740437416596288 -3.4325559034604236 -4.064194446218155 1.365276090357784
Ni 5.067752396090865 5.363453856901495 10.748730522318104 0.4401756894256226 1.3968896034980072 0.20922069153616224
P 0.877573325397689 7.821508100060702 1.1903468688575225 -0.18544287239027418 -0.8444538936236876 0.534091660149493
Ni 4.878805805322593 1.8252409048372291 0.11757005706718862 0.3899407045294704 -1.0661212955636348 0.04235403948617867
P 5.990632936114729 8.56823709093763 13.01390622048701 -1.7394857573052427 -0.4130667490239724 -1.3601243709535156
Ni 1.0192272959490847 0.832955359217493 0.6615397332852787 -0.924851261035833 -1.1378836130086016 -0.499662531937346
P 8.861422101046161 3.7585689183238102 9.553259160652154 0.28398657169414315 1.3997299011602797 -0.5231750132369893
P 3.172735494212344 1.8797794228110314 8.576160209986444 -0.12833507163368865 -0.0027405388596146345 -1.5155413864056608
P 1.4899053454685387 8.277374246734345 5.283418697420653 -0.3996679591195633 0.6368044032293871 -1.5358081070744969
Ni 2.4621434755501186 2.570591398822198 6.243023689878275 1.5598332663445005 0.3763902195385453 -1.7589829467979061
