# total energy = -340887.43106251553 ev
CRYSTAL
PRIMVEC
9.12518591037556 0.00000000000000 0.00000000000000
0.00000000000000 9.12518591037556 0.00000000000000
0.00000000000000 0.00000000000000 13.35563196776189
PRIMCOORD
 96 1
Ni 6.434350980922053 2.2874924403598813 10.91196556702256 0.4777150811319772 -0.7179988126215311 1.0239294926869336
Ni 4.8775760404193536 0.43738201607083793 6.014001124066513 -1.1421521584769685 -0.45328497311407095 -1.1174623690397723
Ni 2.860681858495288 1.65828350686272 4.5134957290153075 0.4724234937157348 -1.297946097652558 0.7966863964314215
Ni 3.588698303368419 3.8635580235527187 4.749462994985022 -0.9729023509067889 1.819010235194132 -0.435943653622146
Ni 4.109417903401514 3.018812202477019 2.381656144704153 -1.2113374592233783 -1.3428619843286422 0.27949434025074443
Ni 5.528648918990104 4.757132713613717 2.691026404902562 0.17864667540404716 0.8471702641135862 0.33613600000418886
Ni 5.514696509967767 4.773786177620103 11.834892329589282 -1.7531339442162972 0.7124886814365794 -1.4404641456548484
Ni 5.986231358771044 7.695323899928315 12.455595677442414 -1.4844595773991918 0.26929348845834267 -0.23041120957084835
Ni 2.182498053040717 6.649066601782469 0.34366453331007996 -1.1337029992683507 -0.7983064485333478 -0.8199656786743361
Ni 3.053205027594865 1.774319368947762 0.06440921114667039 -0.5095983029938191 -0.32456629288871847 0.6580273171639054
Ni 8.188905197520318 -0.11599571126771156 6.651892671811388 -0.32231992005670296 0.08388943972580391 0.17747116703870724
Ni 8.870812078763715 2.5244005129811353 1.1259229073595172 -0.30672129428749756 0.10038563760861421 0.8291704851020559
Ni 6.951566509624491 0.94794254680075 4.608774531059075 0.22127068072216086 -1.092262729845693 -0.1325030869684492
Ni 0.8184077974254905 7.433723074648825 2.620829088430275 0.5634513442585328 0.9123536427894546 -1.1079770552571562
Ni 7.763808419034027 3.7503692194238365 3.717433686471372 0.822602602076551 1.1206101706401346 -0.8804807053402577
Ni 7.491658879019535 3.8907054511795667 12.2972244285567 2.9652453054912224 -0.026328353481883688 1.3026054508014404
Ni 8.169596304458668 7.668596230846286 8.907058229108792 0.4270136981223678 -0.46648501674411275 0.2833833908925055
Ni 6.82164211481741 0.5331882538513557 0.025568770490900262 1.1755317623786785 -0.20597004580934847 0.7065021248358413
Ni 2.0668636991289797 6.336547239979345 9.351185582491148 -0.8281600415596705 1.1763429454260643 -0.7286984584272225
Ni 0.03618318656335394 4.996404209346014 1.0934974722908646 -0.07953964739754044 0.20755050292259095 0.35130653709704013
Ni 6.261757217515599 2.0367232105738604 6.982858596622133 1.1011824009328262 0.09747849126414825 0.5725137115711172
Ni 3.9591260939849806 4.149075960701104 0.26224050080104955 -0.05185529410839457 1.7723246582121346 -0.33839214302821724
Ni 6.381479654646437 5.728636490038844 4.7924544826416176 -0.3199557906999006 0.6782045634427287 -0.3572288161187461
Ni 5.400786816164088 3.1884950316270153 8.993762094096779 0.8310404484312591 -0.175213224242466 -0.18565498840108027
P 0.37348746540085803 5.975053006218812 12.485539061985182 0.6081432878492687 -0.40763632203702055 -0.24055498287306956
P 4.203608070784481 6.418089899903216 12.692097679297483 -0.906384055469581 -1.3789839268621797 -0.13451368964057478
P 2.2741787943405294 8.539923718031904 1.3630627596989966 0.11860601727138283 1.0963628680569957 -0.5833074597525115
P 6.534463393861264 7.883749860623033 5.634807680011851 0.23548605299059444 0.2004534868664935 -0.14680973339910844
P 4.899275732149318 1.0671357231576877 12.49774582297222 -0.07595244426691436 -1.9314060098897448 -0.19169708083010212
P 4.068655698625336 6.316490081685627 7.88851685766245 -0.5535340851448209 1.79778089350171 2.424634613276289
P 4.842900334543043 1.3133058593222187 3.6715832781171334 -0.43935242219337883 -0.550454931998865 0.5150783522717839
P 0.2408319024967308 5.580698978547597 3.4435357608658523 0.8671163682182099 -2.0660299998559384 0.3971248809827354
Ni 0.5148849562601181 0.11525292114709797 4.452206418878929 0.5379657983929187 0.738748900684689 -0.3531114515162629
Ni 2.1002710041850774 6.569166475294845 4.709021996747488 -0.4699315805318165 -0.018392129353942518 -0.5152889256206933
Ni 6.0380806642418845 6.136441041515765 9.188180564278067 0.06676075046531728 -1.053524689845547 0.21037588818652803
Ni 8.9190295603033 2.3436305831364757 10.120696984556739 -0.4776898843209967 1.0298458581713683 -0.22017204834134338
Ni 2.309347260247714 5.501200360233278 6.924908191954213 0.5915208488012393 -1.182406378011325 0.12221584610982822
Ni 0.77447276556163 0.2614475221587729 9.08755896597362 0.2183609632745336 -1.1347198705686394 0.0162884527473784
Ni 1.4472818366053728 1.1850057475798712 11.598298163358066 -0.4057709866935077 -0.15806550881858583 -0.8250544060511533
Ni 4.081759465372278 7.135521129298315 1.5832963803866238 1.0081740296248896 -1.3323672554449053 0.11876002635074384
Ni 5.824414439743515 8.220606092839871 7.846406862949974 -0.910921024107986 -0.16141771312027037 -0.007671400502328724
Ni 5.763558575930591 3.1199192606637336 4.833857275457931 -1.4456433758629426 -0.543103119619484 -0.665118676793048
Ni 1.0395320362429934 7.445330310931633 6.693121173579745 -1.1134259941868694 1.021065283765261 0.39555676516466715
Ni 5.237573743715751 4.883096777802292 7.01302919829025 1.2784316817687145 -1.2347416970799316 -0.545606345657312
Ni 0.8502108948255211 7.911618177924678 11.31586636403267 -0.4876943038318761 -1.4617035146495987 0.3872161065094557
Ni 4.7614580516624985 0.41059412076281265 10.368471328377336 -0.4590835820737191 -0.3605411683214307 -0.26850518822909236
Ni 8.594501454044064 7.189377975635679 4.636046973730793 -1.1994301662628313 0.7555405183207311 1.3979136738871472
Ni 7.371817814473855 6.250177356790062 7.077549736703154 0.4421567244113933 0.17267605964290905 -0.8140837659722625
Ni 2.3495345783212054 5.090220244112946 2.5505386950632674 -0.17271102664590257 -0.08491608121810537 -0.29151784707418177
Ni 2.4847880816103287 5.193927980240384 11.52182363160359 0.33012784613689594 -0.12202429892431245 0.12694204794090397
Ni 1.1416793656059974 3.2796373869671696 4.085848461109956 -0.39206983505733123 0.7160920825171215 -0.1413649082344533
Ni 1.8229839845894362 1.3914356997729997 2.387238933350239 -0.6946146293696359 0.23116865656216318 -0.6219567966935934
Ni 1.2361250381901578 3.6947694626069003 8.326047614261126 -0.49366209137953687 0.22086136109888413 0.42258240182389156
Ni 4.042439039945695 2.9111715112883467 6.832380633416158 -1.6154585690182888 -0.8863086248759446 0.42655115666365245
Ni 4.422010266690694 6.8769133649470975 5.786554044038039 -0.2868312402317899 1.471093697615247 -0.1632748209336672
Ni 0.508511014008907 9.602706727583538 13.600974393354267 0.7308342738233026 -1.616280807809268 1.041965524253038
P 0.23439317142664545 5.841122654864442 8.121199056759673 0.13161631348812172 0.06723460477794227 0.26657094732085707
P 8.81381616852597 1.6901760310831684 7.882881142938973 -1.0920657833435385 0.692975293994 0.10298836533878392
P 1.9647254949517323 2.816780589818728 10.430374763515156 0.5770249691779095 3.4635670071299574 0.4554071616633963
P 3.9701128176363167 5.920721650222088 3.885848114801156 0.9499300583813317 -0.26321977146043696 -1.242176556091422
P 7.077913831614856 4.321268215934255 10.187088186049811 -0.7545622135678618 0.2617562995410331 0.416182926055451
P 6.409466599362923 8.015471917024227 10.258180683244852 -0.10725099726987979 -0.3019346715321316 -0.5554886377680305
P 2.60136232965503 8.63458839507423 5.409765086430325 -0.4869692527403936 0.5109823278255393 1.4008269908792004
P 7.07024867557904 3.8162256850315552 1.4405383243310061 0.7000787378080007 1.4362076843713394 0.08421725537886786
Ni 5.862895348080462 2.62716835497561 0.14788549793243289 -0.9816119628656449 1.641900308149585 -0.10952205269224363
Ni 1.388652518117138 1.1726502460649966 6.547384656893068 0.33319542931862617 0.10095308007631 0.4836931530922831
Ni 7.070832687467482 0.8287219948865414 9.02494832893964 -0.8647573810677299 0.7106505997865761 -1.4385347898426193
Ni 2.613243321510544 1.761507608145041 8.74249006657555 0.6526020323832761 -0.6171902285428854 -0.1334191710248154
Ni 6.4157994782782275 1.9631742133730552 2.409542712377312 1.2076826360796105 -0.0991507367602486 -0.21892712019064878
Ni 4.107255234377123 6.935752562707742 10.479229183020573 0.25614152445741695 0.782281276749685 0.6523863168280442
Ni 8.269836469998475 7.576486605815897 0.29474715002293894 0.2365317206462894 -0.8286297821072374 -0.21218054549543458
Ni 7.827420088945543 4.010656017954329 8.206541444032725 0.29606227191175466 -0.6294104247581612 -0.6545460434835244
Ni 2.9638694590345813 8.778629452247271 12.426052888554374 1.6564643220066892 -1.6552034530163946 0.7605557121471354
Ni 0.0713817655835358 4.995035431482475 10.499650436225993 1.192955614282081 -0.9032239125740444 -1.0645107565434055
Ni 8.325162471242704 2.425985384592712 5.807562959206204 2.2559229375977665 -0.4538619286634635 0.07942960418223739
Ni 4.080408937880254 2.67545883800125 11.446711490082626 -1.2494278383371966 1.5157887265297767 -1.5403533032430181
Ni 1.0279339251459432 3.4195173594350536 12.53325830838244 -0.07035798089827237 0.515404625262951 -0.0997372053913379
Ni 3.042172678014744 8.541484124796337 7.724203287811827 0.6234035564424489 -0.1487401176526019 0.1956254693502308
Ni 5.715331969205249 8.3181725789529 3.4356023243687828 -0.05437934608182893 -0.3208819020585958 1.2833574012051059
Ni 3.23751552951321 8.513424178593796 3.318393875913976 -0.3429728204203642 0.2960134209516902 1.1408010437657128
Ni 3.673863662037788 4.578598454279505 9.243045743641572 -0.7397678288675066 0.14835933727441547 0.31097158492341925
Ni 7.610979807977069 6.3917272382514625 11.420227463460304 -0.3970107240023743 0.2952089227725238 -0.34710715430371186
Ni 8.11557520477768 9.131117127665721 2.20485475814518 -0.23439461969862857 0.0013153763773138638 0.6081720842046751
Ni 4.649939156527134 0.41941635035260655 1.4792564874976335 -0.18267045185145958 0.08988808051140003 -0.32513682068020777
Ni 6.4143394485571195 5.707000674609177 13.915098875332035 -0.43787943719227806 0.25034111572555595 -0.29671816032819864
Ni 8.054819718008082 9.298929293735547 10.902402372349306 0.7172382803064229 -0.9115540297062946 1.9493412542119266
Ni 0.1258372241065538 5.141877920682892 5.745299079230986 0.05728083599934005 -1.3031826634611492 0.10481359147298078
Ni 7.556849206066997 6.48110843274053 2.595440084098786 -0.5188085087381774 -0.2665892021533022 -0.3107658966705164
P 8.69110067046686 1.823129987561547 3.3184203389526714 0.5025223699836443 -0.9584218979024267 0.4063199172184422
P 2.1870880214764497 3.311986170475464 1.1696553600995743 -1.6361397515167242 0.9691372274374019 1.2491804982130807
P 4.598162852542348 1.2461079914082325 8.306895674394493 1.7825334804243367 -0.703196457501376 -1.5729353509440975
P 8.430613117849715 1.7384847644803225 12.353919207664468 -0.4239738828547795 0.9765144937380794 -0.3332702484206196
P 6.191082653828224 7.79936926792876 1.455242648659713 1.5838463414296464 0.2176647085384574 -1.31203805696925
P 1.818822899884279 3.3751415810991334 6.220091619349485 0.8664851623921141 -0.14657833411459273 -1.0886909533340348
P 7.1599675019411135 4.104782309036997 5.983482852821059 0.037183036808200474 1.9244198083798987 1.4947018239524903
P 2.5379605390159234 8.783374548840872 10.290714708024012 0.40449289131203237 -1.020139429516882 -1.4051253611442382
