# total energy = -340898.55629394925 ev
CRYSTAL
PRIMVEC
9.03607133826971 0.00000000000000 0.00000000000000
0.00000000000000 9.03607133826971 0.00000000000000
0.00000000000000 0.00000000000000 13.22520378365017
PRIMCOORD
 96 1
Ni 6.314334305599724 2.1449554866975378 11.352461798083262 0.5141722955177468 -0.41170509278975553 0.016602641553687535
Ni 4.512207362380723 0.3449321408670923 6.07851543597845 0.0071450956852135 -0.30210744966457004 -0.5256409582789786
Ni 2.6208130712169546 1.5429091670785484 4.707074757066711 0.6544177454357762 -0.15768164311660585 0.9357735643752916
Ni 3.4288366351320234 4.326570314483436 4.956753152781484 -0.309973225565892 0.5006282382847249 -0.4842819357162175
Ni 5.196066271157716 4.499728547975245 2.6985765968448394 -0.21313108233416198 -0.12296326579881404 0.006772028616510918
Ni 7.365536619174634 5.985900223633083 2.441121758206565 0.0019915765087320536 0.7212890533370288 0.18689991655177488
Ni 5.228885281961987 4.581342343565601 11.461808199967505 -0.5373713593420294 -0.37313417449509284 -0.4465443119561277
Ni 5.563915695946007 7.7784308591774876 12.404619224390004 -0.31671902893015774 0.09466930395012729 -0.14122195489868583
Ni 1.9709478625076016 6.410080516635532 0.5620734512008028 -0.8373455647136806 -0.5595723209191008 -0.8444376956737716
Ni 2.8561304388834823 1.4219252090228254 0.4316178832538251 -0.5787686913418936 0.44414161605190605 -0.09081290631851457
Ni 0.46521128536479395 0.18594879235564218 4.953671852482955 0.4442285193387575 -0.24124969494724902 -0.34129697537983805
Ni 8.387353629022812 2.2677105147195706 1.319592605648021 0.4792934813626907 -0.07356543209197654 0.44214978243285785
Ni 6.829652413297074 0.7101565869553166 4.808286887605687 -0.6570204731659458 -0.19279031389428086 -0.3454953297319018
Ni 0.6500730383482572 7.30502204996863 2.479342532408081 0.5580579411571034 0.08553288886649786 -0.027631388564023383
Ni 7.694558045772959 3.8110985935747226 3.812363643550658 -0.5099605714292443 0.6498949178647582 -0.39721769780685784
Ni 7.679350337847962 3.894609964128983 12.618272611218636 -0.1393123965807988 0.14349943807895288 -0.11471362419551212
Ni 7.893279324849923 8.692239709294538 6.945532798307023 -0.1818484701707965 0.3860477972329674 0.3682465073854884
Ni 6.903431935107887 0.5415344612343632 0.32611994411780487 -0.38478230025698246 0.6885789646985173 -0.5506696191128323
Ni 1.9712008725027885 6.620892059053936 9.171639433746575 -0.12922827287191938 -0.6354520029665508 0.1565084487441111
Ni 0.2244578172302463 4.611830047985648 1.4760124207439502 -0.98995570684465 0.8756809699587693 0.19392982681536278
Ni 6.402463108566149 1.971191836431532 6.977590971911481 -0.04054501130189791 0.056898770069572974 0.015658018252231096
Ni 3.398249533928153 4.047690047288443 0.41574240966295956 -0.03236170416015716 1.041128373063723 -0.35381104868644875
Ni 6.156709078598153 5.80055233001601 4.638198207519774 -0.14184159076055572 -0.5862130634350807 1.0351353887050818
Ni 5.360378190889231 2.9941202830442815 9.103700828396082 -0.04337451033089304 -0.370807069023813 -0.1173772870706043
P 0.20308841231531768 5.58455408269627 12.59027524803693 0.5809312462108512 0.25111964576279333 -0.09508556555193946
P 3.951989016608917 6.058243010114084 12.606528429406325 -0.4789551241866655 0.5619917289938708 0.1194637372859878
P 2.222620519148724 8.485015487165036 1.3705144816079298 0.894623058278911 -0.2039699846601842 0.518629559958152
P 6.217919425290921 7.861851869019181 5.816325696001675 0.16909605560113458 -1.3468142841081707 -0.6038940256546116
P 4.847608255286266 0.9875793358566077 12.658781318662342 -0.3268797715132435 -0.41194831914881314 -0.48688852010112926
P 4.064262201973198 6.198871387081835 8.190752212262666 -1.4891801228033128 0.6850598958016654 -0.6100754718749752
P 4.635938286098477 0.9819679356062079 3.8447389832562258 0.43982036296873284 -0.09232265809482164 0.34530069722259243
P 0.24620944795933258 5.599346131343459 3.6872791163586527 -0.757244131275399 -1.324226885725958 -0.0684885317897014
Ni 1.3937417027732324 1.0609341623183568 2.656876935209501 -0.43218135836623633 0.2324508657086964 -0.7704536879871376
Ni 1.8309249023140484 6.532212055740854 4.777882315041201 0.1022453165251723 -0.14255430055686416 -0.045569718209998944
Ni 5.919692929535369 5.709143433183408 9.14995015190916 0.9705477346316833 -0.3193965757623209 0.6323383970382336
Ni 8.53054825022746 2.4712299476338315 9.920634862177364 0.12967410216008635 -1.2514548960695542 0.6601351075355277
Ni 2.236608357454069 5.268752428346471 7.020056892389387 0.8726853776655552 -0.10724354107071207 0.4413907927796463
Ni 0.6110760656257922 9.075287805936568 8.920479122345707 -0.2478402036805732 -0.12272492453576282 0.7237588550337599
Ni 1.323901908030333 1.117807194807917 11.337636315972425 0.0955059409188097 0.647917225313097 0.07567245113265032
Ni 4.0767771606637035 7.038710957891682 1.4899252596578643 0.17009312940708127 -0.1073741531113054 0.19813409470469748
Ni 5.617418273856825 7.927724828480396 7.98976830094303 -0.1820605861816026 -0.1605481660311235 0.37228699600344917
Ni 5.258559739968933 2.9585814147917495 4.8593497262772 0.6047967399745391 -0.5232038095923957 0.09992952390780209
Ni 0.7595857039436216 7.3370820307873394 7.104288437822805 0.28690760199568005 -0.03179606146467427 -0.49876213161026367
Ni 5.01042922326043 4.68251019735542 6.991398088791692 0.6218953473280385 -0.45423371018058545 -0.44007361663011946
Ni 8.175945705901466 7.2153842231023395 9.316177718747094 0.53475731875795 -0.2807572661235681 -0.5468679859785549
Ni 4.546327567445957 0.32813227718666804 10.514605644914257 -0.047470534777137606 -0.40185133992412725 -0.25977140790052033
Ni 8.264047400654121 7.232489505991239 4.954068536011123 -0.4001024755538206 -0.6378343871557982 -0.6540459639186542
Ni 7.283091505028662 6.174148696123551 7.145074552654092 0.09101988012299808 0.15922919010938386 -0.9709783944111987
Ni 2.346532164291612 4.899592773225961 2.601913224576478 0.5280773356346131 1.3259618661391939 0.8982729963266723
Ni 2.3228395854565904 5.197972882192876 11.527286283114803 -0.12938639571633845 0.12478283550605605 -0.2637170228118297
Ni 0.987091388008747 3.2232208336862116 3.8384571065185806 0.5458246323157051 0.6063139479500139 -0.19580056147551442
Ni 3.743264806650807 2.6217889669126766 2.7124758816518684 -0.9029477760945223 0.2879036473603622 -0.5490570232100738
Ni 1.0518077303491076 3.369550971616929 8.203739757479896 0.1433246030639854 0.29072286197671215 0.1799535671409288
Ni 3.799351700941035 2.6124275970907536 6.925642598256813 -0.5138912739422182 -0.15477603943403667 0.6017839212901442
Ni 4.078123535280949 6.738803752882387 5.709756982421737 0.36372470825573483 0.8508271441398831 0.7447184880045626
Ni 0.8159942823705881 7.423240970219808 11.309863950965008 -0.3884741472862729 -0.6667335866886518 0.5939520839505512
P 0.21407808217769503 5.524681074549491 8.296037803724156 0.2519732520123403 0.035438543313268 -0.7621441396801778
P 8.44297968367895 1.556038578614508 7.822430200947651 0.39117252005404246 0.9185111777504182 0.6720454858198684
P 1.9687701693347408 3.2135612735128176 10.523016420039978 -0.9298127188061664 -0.10628786202566211 -0.5000050028784292
P 3.97238342943525 6.049550309565155 3.5994114558515458 -0.04495830987824515 0.7909762334205216 0.27541142843062244
P 6.981602987549448 4.043126831303818 10.290253549717713 -0.1292141318045323 0.2362303873557867 0.08336519179121771
P 6.38402048713126 7.7198319370779 10.308662737688953 -1.1435120149389726 0.19705448848727355 -0.060116762786238405
P 2.3659235732084527 8.375335654251424 5.875376421664095 -0.12718655985154223 0.7872748733095345 -0.4388677692474764
P 6.951359257053332 3.999301885708907 1.4903083890791475 0.37952490851278514 -0.20643387281964445 0.7756162060246835
Ni 5.329185672911163 2.8413474263075496 0.4691175789690578 0.6877310148759253 -0.20811923094186738 -0.0312558726904881
Ni 1.537017648619191 1.2294388191129735 7.046441316851774 0.059400967666136416 -0.03250362905466016 -1.022077527079859
Ni 6.939350318353201 0.6893980204573398 9.261980266956636 -0.9526711114615786 -0.04910087129170899 -0.7690519225436045
Ni 2.6948636751654687 1.5981285985281353 9.173636405494301 0.7152058232574263 0.2174929588472835 0.3986328329868296
Ni 6.202784005935978 2.126892380255429 2.69523053965849 1.2469284689541107 -0.3346115929398624 -0.12918764944197106
Ni 4.140427246595776 6.83156806040349 10.399188810359776 -0.11154551088017564 0.5198775734326401 0.6075187668913924
Ni 8.065136364080768 7.357368010758592 0.1526174363111172 -0.083071828920515 -1.056932172865199 0.22590175173626897
Ni 7.603664205001989 3.9946934893679993 8.119944654288176 0.09855758326093994 -0.7531599339036965 -0.1856642443724609
Ni 3.0279422977580444 8.271709989079788 12.459649801950327 0.33869090521555867 0.042574640137417 -0.5310806412373111
Ni 0.1562354792422929 4.688952916161434 10.468449392935122 0.3640741211753536 0.5522202514294037 -0.39134504107616475
Ni 8.609017493020492 2.3821252489716853 5.73706670058081 -0.0300345986888773 0.15646679687289827 0.5588953494567342
Ni 3.82488763831242 2.615093238111475 11.520606819241863 -0.6319807565884986 0.026187199918329095 -0.2575576880786532
Ni 1.0791599180430855 3.3635690924450055 12.754478734913365 0.04139938888239321 -0.4893665493279766 -1.0870644734742052
Ni 3.1522786382499968 8.450841065672263 7.958160123687154 -0.060018546645477275 -0.3823513222179867 0.3764668384127516
Ni 5.530048500875961 7.771211038243398 3.4441997634826347 0.23579355692868426 0.7937219144864589 0.22367234818511803
Ni 3.067104630584507 8.345390114106777 3.4968231316601774 -0.086143011646671 -0.21401271360816687 0.2178950793817086
Ni 3.480848261285488 4.421521351248657 9.365057442602991 -0.21994347727030508 -0.17008104522222323 -0.04543782061782497
Ni 7.313714750517559 6.014255415236553 11.42369314779969 -0.16174064367732788 0.2746097584649335 -0.16185788598148254
Ni 0.5360667345169446 9.073751673822933 0.2031363034929781 -0.011965142781676166 0.6558737611560124 0.03677577406745279
Ni 4.751527709613961 0.4772699224568368 1.651669127938231 -0.07140827653965766 -0.8188433921444349 -0.004361619402805392
Ni 5.753781625191421 5.488211490957521 0.4147050686826924 0.7366688782272087 0.6352825672682221 0.27896752121299695
Ni 8.024184889145483 8.952975545406114 11.206825630425058 0.14204753612377471 0.1722654544680517 0.9180242108116706
Ni 0.08877488206127787 4.8101718120698305 5.929572969847427 -0.4197230779982255 0.33127507236746173 -0.31113484997416097
Ni 7.947269850608601 8.756413887359498 2.4000699828803307 -0.655239212895807 0.9218716095822188 0.6245556677690212
P 8.412202824978689 1.643001728388821 3.5661758821623417 -0.1963682610535263 -0.5575205805963948 -0.15607444653048602
P 1.812635894090523 3.104360352375809 1.5712598406463898 0.07117096371787097 -1.5070809143431334 0.4678842110844845
P 4.837243881554851 0.9601910038776028 8.338477519595417 -0.34188730066566925 1.0711534586709037 -0.6175506972060977
P 8.335848022859722 1.8102865155637853 12.323271089294593 0.804323344151389 -0.9282957679410077 -0.2085676313331956
P 6.230822935045464 7.689018934092613 1.3120872448622203 0.5454096562654736 -0.5372875413789715 0.8760373248569235
P 1.8160515290255488 3.28110590615652 5.978387633990277 -0.15588469911718317 -0.5515309386718631 0.47645241236946984
P 6.905483123283155 4.0526508504083605 5.916294463135731 -0.04789399546780139 0.30721160366035477 0.3302641146044441
P 2.3300955506757064 8.5311446309304 10.182613158086733 1.0374275271733682 0.31668457614779655 0.5233058823878988
