# total energy = -381162.4943749632 ev
CRYSTAL
PRIMVEC
9.27769731954610 0.00000000000000 0.00000000000000
0.00000000000000 9.27769731954610 0.00000000000000
0.00000000000000 0.00000000000000 13.57884783116912
PRIMCOORD
 96 1
Ni 7.602005981067278 3.8891643088822683 7.6665898873328375 -0.9074708607758565 -0.3657353109278605 -1.8559135359783843
Ni 1.8974468134392704 0.23889699373321452 7.294380733696093 2.315819356843083 0.3319186194887316 0.5542964172321421
Ni 9.563914235168088 1.6636581198252618 11.155865032760616 -1.0684093202668634 2.2252918429754707 0.03603503924668632
Ni 2.1079948753812645 1.0501796652622752 9.930700574748029 0.421465514610629 -0.8003155085435765 -1.2170599635294523
Ni 8.368816938481913 8.458337439481221 10.070712159853299 0.07669009376388727 -1.5489058207987196 -1.1455159327428788
Ni 3.4160574140787943 5.502824918096558 4.7360714824050225 -0.5110761730909263 -0.19522540569833474 -0.17974170824043884
Ni 1.1828600139814283 0.24566321835533034 -0.1294897486265359 -0.45989219401794346 1.410751449081764 3.627756883678726
Ni 0.8170199995234615 5.986898051078204 5.839991281358705 0.0017951442272098118 -0.27185533564824793 0.3591887680585943
Ni 8.495828614166497 2.416469032053044 3.2836915792972388 -0.5813703906307988 0.1998222810403978 0.9310499336473772
Ni 9.173954063336506 7.394046396664801 0.3052269626257893 -2.4989477221675673 -0.3801167764605131 -0.44368241702730044
Ni 0.7628568028363476 8.972062092951395 11.504244420948428 1.5260785384915587 -3.3834308637989983 -2.2037907356789015
Ni 5.383272511020479 5.8387332256083155 5.920758274979752 -0.13457231079265208 1.5753611867767707 0.037311591966264775
Ni 2.268146485729493 0.30513511342277416 2.115394766727212 -2.1949438268112327 -0.15755617328233512 1.6928400324222457
Ni 1.9982118835349783 3.283052345955042 9.307662380913648 0.23010627673591982 1.0001347042601807 -0.13331041336109298
Ni 0.3054301441960956 3.9231392363005986 11.283873133132452 -0.13711101805410578 1.6006880955773335 0.8057698467899284
Ni 6.965658002723248 3.3346363427999126 11.103587064159631 0.31182904782770815 -0.08373980152181708 -1.259841577471353
Ni 6.592388408288055 8.573380885682013 5.958656740575366 1.1602108157508921 0.06606500994987331 -0.5920111581740966
Ni 3.138208936109338 0.5551059666225421 11.950214051224702 -0.14464769275078315 0.7533476244344702 -0.4648865619087413
Ni 8.932501991773963 3.5968519008622453 5.221203200645662 0.41354368866039104 0.687070755584107 1.1419192165305558
Ni 6.430177149144941 5.674889091744934 0.5369281743530899 0.5647842041373434 0.5526455118922805 1.0745997653482913
Ni 5.826950550070009 2.9721381549001333 3.883468730525602 0.405941707943417 -0.9479955603627802 -0.23849192969645377
Ni 7.498847265074812 5.820975713025388 6.5937930516553775 1.767214076458447 1.8764697628631812 0.9167409732238728
Ni 1.7404588978615634 7.077231590143465 1.4038083745678647 1.281517776893206 0.20856891688477627 -0.31803414819715553
Ni 4.035779758907355 8.125305218124485 6.5430496141835555 0.9092024987549826 1.1075991030924472 -0.9855328951866059
P 3.9563719479369883 2.1556822393709467 8.903460015996354 -1.9082113169408363 -1.6356101042654994 -1.4652878895667474
Ni 4.837465580375925 3.846691010760719 6.639200885424775 -0.02872667851073117 -1.126445546374989 1.0157212458445282
P 0.2753648384091375 1.939595392156221 1.4107202590371863 -0.6950303767508159 -1.0028729291269503 -0.7757146792757608
Ni 2.808219799458556 0.2915061761268903 4.468540731574268 0.5817185179988369 -0.8323514539331988 0.28227216010619777
P 4.308553336467793 7.140319931608414 9.523430075342139 0.34550664258581143 0.09708691225268441 0.4815737927564351
P 2.5107953802404173 7.39637509868064 5.259020022505262 -1.0835148084497341 0.39812246900931436 0.07597841240884334
P 7.4012273343550765 0.62089782907321 4.412011722082218 -0.12355153420211624 0.6494452319218492 -0.8414822125898733
Ni 3.1612454584413188 7.49792877304466 3.157408202848686 0.6086940181464162 0.8467684006894772 0.04281503828299723
Ni 4.185057908050155 1.620822991510016 2.3306596099634387 0.6340697779070434 0.4019505845061529 1.1611878349521807
Ni 2.992799586729904 1.9278962158933828 0.37673110328821735 1.5090827752645106 0.9887997388633358 -0.11875257015157611
Ni 0.359298310109888 5.84848408544356 9.873547176229422 0.4851298855388097 -1.0013585493649528 1.4764454488454637
Ni 5.549027850522359 5.3145526073100555 3.283419742767103 -1.5585716260232578 1.4982016095756328 1.484294255465921
Ni 4.982197657854338 8.411049016474333 11.768556738594743 0.24700896602852945 -0.9567311404635653 0.42418779863779854
Ni 0.5119442633632426 8.336382108811112 6.136702245656455 -0.8660452466412182 -0.9505928887763112 -1.3505128160056805
Ni 5.99425526501669 2.4508521781514414 8.561476672309412 0.6017600100307443 0.2054098024305043 0.7624590998174353
Ni 7.1118374009764445 0.4061673811999808 7.875921643162176 -0.39798285810765655 -0.2709927305376365 0.9856298257757863
Ni 6.936516755584805 8.359752628244966 2.90753012662166 0.26916776151375577 -0.3163220506020552 1.7024539013629258
Ni 0.43015393973284544 0.5323635472941554 4.215906251487061 -0.16296705988526125 -0.7400807321222351 -0.9605649123873587
Ni 6.445114241756496 1.9794245465546072 6.330038323615246 -0.9940409326576172 0.5062795230332313 -1.6537937171530614
Ni 6.601721771745958 5.467616056940751 9.407561841853669 0.4075039102242143 -0.33087398027430115 -0.3495741277869657
Ni 7.576019151002083 2.1025488670812753 13.059253283534321 -0.23062383980228668 0.36794594542593406 0.24692720494800055
Ni 0.25194978602836704 7.255363377809204 8.249285870109565 -1.1154440530581629 1.248713071658359 -1.9006936684075524
Ni 7.390650759462424 4.456912993580441 2.7728819783106373 2.785900575578886 -0.7073282202815625 -1.384922660944118
Ni 1.5533555769316174 2.3626119993759804 3.077863081958659 1.2456938252160612 0.23592596874149044 0.3106813073765101
Ni 1.1193077876527662 2.751412459048279 13.148180939677804 -1.3002204955090317 0.990795943357758 -0.39180398299045427
Ni 7.952443162510522 6.3563359565391275 4.302443972812695 -0.7715484637132132 -0.1753034699634271 -0.09127261956375249
Ni 7.870604594854299 9.240799872197531 12.36929877033963 -0.10508201464301903 -0.9995418078711883 -0.33305119043127807
Ni 5.1806476025507004 7.7199347911203615 4.453848570170754 -0.6713482026425276 -2.1746948467542095 -1.4009285494540713
Ni 3.626206535037995 3.0854559494079115 4.819445508960135 0.29579230607981954 -0.5230174046132025 -0.8570726108289627
Ni 1.6872698593882465 4.682806366814057 1.3387281114981322 -1.5190342300502677 -1.0757302794083088 0.15566898356195125
Ni 4.083337235135199 5.221079807271914 8.654600630930043 0.7508163733721843 -0.35311016596468214 -0.6228255724517918
Ni 5.360375154147612 1.1597121592821564 10.739144270911167 -1.9275634962152026 2.598427045911828 1.2513836765119866
P 5.75281247115142 0.5814722545062538 13.273079155923309 -0.09258259662442764 0.8672490371413323 -0.7038770285081684
Ni 8.665155867118964 3.1173712280313564 9.33431720518259 1.1759863334175942 -1.1085984908912392 0.3479900711292975
P 2.998523925948121 3.9659465315240214 2.914360367354969 1.3512597214740343 -0.25332925181960236 0.3588480968897239
Ni 5.960363836873829 7.560710950499559 7.882833527631498 -0.14109854194694407 -2.668677554697959 -0.6143494166599808
P 7.540930899910843 5.244867823083109 11.783805561834715 0.12285219414224648 0.8885902218212697 0.14975981716636788
P 0.698255268945967 2.4925368720046785 7.327323053407798 0.13631731850821685 1.2338852626169072 1.1356200137854056
P 5.289911043349628 7.197563323790582 2.02220308091648 0.7186511014935495 0.6694342734492664 1.118703440535725
Ni 8.25376421458385 4.368756314080448 0.1513739809570539 1.5723347412456212 -0.2677909357708872 -0.2716149375026677
Ni 7.520473577421106 1.2247117063856028 10.211673781159453 0.07167464282716689 0.5538071363005495 -0.4416340191387039
Ni 4.0427658649548714 1.3011599319254825 6.700401215494413 0.3611911432006038 0.8973625686972609 0.07153014682950262
Ni -0.012820849863296095 0.632482889659575 8.35581146244286 0.3014340777466293 0.4371561858730084 1.5687938179718983
Ni 5.139074241064754 0.6524104556349523 4.420363505168504 0.5121935745248211 1.546005359322473 0.16959947760011437
Ni 1.80907674690197 2.012657258190997 5.572094061485617 -1.0400487668462992 0.6113293988867343 1.027823942645333
Ni 3.8081421785861798 5.689909683631956 1.847796288706355 -0.9033655803582312 -1.5855946915793209 -0.4693160584350047
Ni 3.1773515409094295 5.7289316783674815 10.839926040861968 -2.123685445585878 -0.0011071170212497063 0.11678541912287631
Ni 0.49539377919569505 4.872646608439909 7.991192392946186 -0.8048090255385558 -0.896082930653889 -1.5605740011652671
Ni 6.782191539124811 8.324061326830897 0.6708916286052726 0.02820371612772562 -1.2851018947000383 -0.6246759953969693
Ni 6.012077721480538 8.700188452026559 9.678242370909032 1.6719346497281462 -1.252703937985307 1.525677189288082
Ni 5.31512782454106 5.83017918872145 11.419213397660135 1.3259947762596582 1.539901046196948 -0.4098711249048102
Ni 1.2667211196434394 4.756192952253431 3.7355813082042144 -1.7347556988194255 -0.26185502990242643 0.7758293504767542
Ni 0.7814808523446916 6.993314818297809 3.6264755882589483 0.338175913252353 1.7035062538868406 0.07181656772166986
Ni 1.9450135673643871 7.772613556243595 9.752803512823327 0.5934404344214553 0.6363210358350654 1.0537576317919592
Ni 9.190486919879234 8.790376947229616 2.0971446084190206 -0.06677849107713016 0.7186629285680913 -0.14208893088467142
Ni 7.347787798055355 1.175679076291153 1.826912192142002 -0.5670272345352493 -0.08697630618124375 -1.0491877530330898
Ni 5.493454443849559 4.081138420881199 12.720867830850336 0.4411516801856467 -2.225757983978612 1.5544735446944842
Ni 2.5077337401399125 4.567605199759605 7.047109690403134 0.6391399933410993 -1.0400991604682601 -1.04412576512915
Ni 1.4398986169647254 5.643502641866121 12.832432140573278 -1.5278099193603687 0.47769759763048053 -0.7290571273182217
Ni 4.024665077572796 9.17805480553173 8.777992149138209 -1.513778123857651 0.3777166516594527 -0.3372857973379159
Ni 4.628105063685036 6.9441708558360675 13.592834064710857 -1.1011875431391487 -0.29408920734578387 -1.3678271389144119
Ni 3.3585728017674965 4.767270522798895 13.213237080734622 1.2596533727199466 -0.7468648449236039 0.31237617858042976
Ni 3.515876159052528 8.91011490825118 0.519476825780212 2.013206942517636 -0.513451101081006 -0.7337141664742589
Ni 4.5698411248027 3.5524210086158274 10.253944825480426 0.1333777762639187 1.1511391924669272 2.0314910855388044
P 3.02445508982967 3.142652953103707 11.850002859656268 -0.4517543954021575 -0.6473171298352529 -0.13908793927481852
Ni 9.111255385157076 6.87300164004524 11.692270872757165 -1.7975980880669427 0.0021301589691253633 0.07798644397780763
P 8.827645457180306 5.936557265668085 2.0048899700329885 0.5423803825208465 0.018252775562600822 -0.06979285242342173
Ni 8.604099341357077 1.2826230927715165 6.13685161658257 0.5488392507723129 -0.16253511455416525 0.29045006793129974
P 6.881286623711151 4.366102892660011 5.129763144080309 -0.1995518009878305 -0.07827183642871036 -0.015020898888864454
P 5.009789529547978 3.3460664658417976 1.3057746585496979 0.3634657981673934 0.8029663159028623 -0.20216172780685182
P 2.220384900161617 7.676858442675986 12.730034195757302 0.4670426890197956 -0.2641818782633901 -0.03471632043526279
Ni 2.6044259011322213 6.919816900491143 7.758695154792753 -0.6801668293754222 -0.8144982278018618 -0.30045577299376
