# total energy = -340864.10614155733 ev
CRYSTAL
PRIMVEC
9.34898797755531 0.00000000000000 0.00000000000000

0.00000000000000 9.34898797755531 0.00000000000000

0.00000000000000 0.00000000000000 13.68318891534261

PRIMCOORD
 96 1
Ni 0.1533280781493868 0.15524462069507894 5.676196945511194 -0.4077877600132203 -0.21019951050966382 -0.2856135657746049
Ni 8.610642349285742 4.051898156174201 12.10967687965233 0.311107082060019 0.36408671958084393 1.8023188905813796
Ni 9.31034866024788 6.700616048248935 -0.0016846876426035485 -1.1456647996159173 -0.7876685092035274 1.9366456610221294
Ni 6.877255828045557 7.030812956401625 0.1274828007466259 -0.8979271829514794 0.3073807822483674 2.1163611440103227
Ni 4.4677785396013725 7.042639426256749 4.238696546361795 -0.26789480833860313 1.0272930098425275 1.1292933002364294
Ni 7.154602906877282 6.023366006529491 5.142196772847205 -0.22039881964016883 -0.9792280360145007 0.24651839954535612
Ni 1.7538234090688831 7.2461294996691175 9.5067512658364 -0.780457593277385 0.378051152180736 0.13186108250907613
Ni 0.7969778568970367 3.5286539942361577 3.4396665865926637 0.25991050458154596 -0.509932032184154 0.405249824082715
Ni 6.092221303353993 3.700067689725259 3.4196616220108487 -2.9716303830819597 2.199215457603393 1.5893672712478755
Ni 7.878607237723587 0.7665852317175702 9.604407990078041 -0.5212400009978055 -0.4306027010252068 -0.20178737518656858
Ni 5.352538719585124 6.974429209606164 6.700561824118373 -0.8113866787560737 -0.06881814721497825 -0.34438384183527787
Ni 4.006387282455033 7.767672145786108 10.287035569711056 -0.6268951145354751 0.5242754453900197 -1.535766198092968
Ni 4.681010258538674 3.0720307209839794 9.509050181992428 -2.283861315879247 -0.2502868654488528 0.49489802066916705
Ni 6.758963082530226 3.2326837312531214 10.053696047323633 0.9632918244002184 0.2375244235768619 1.046864761326868
Ni 2.823413082361581 0.34834235901578225 5.787482624499714 0.4811914697163519 1.2460373245984089 0.5834792094436855
Ni 9.009666507298851 2.724556882955977 10.263117118740817 0.3940009906417731 -1.2340816948984294 -0.5865907584894736
Ni 7.022249283368191 1.8488184764190196 4.531324546124905 -0.13922652173521186 -1.518392739811527 1.5095525158120777
Ni 1.0352882362188223 7.089739627940638 2.2328907978793207 0.8736896505603532 0.13183074349177293 0.10160896849275404
Ni 7.015798481629032 0.8141052029639052 2.2269252086188027 -0.30034058757213433 0.03726351233714873 -0.01154193920132851
Ni 4.431934519502915 2.440011083342871 4.814881222804672 0.5009072029777244 -0.5279292400925231 0.6194263169622558
Ni 0.8484814319420032 3.0720587679480627 8.161871291078086 1.807752145781809 0.5576979867145233 0.79561193242032
Ni 8.446034717080856 7.627998264651274 9.738777255405921 -1.2240765040566015 0.8066550776083592 -0.1503092619119347
Ni 8.442005303240888 8.549584108476399 7.747859770357665 -0.2945062402785444 -0.011806505716624827 -2.1270307079090274
Ni 2.305881152108503 5.045620791621572 1.6073228968761741 -1.184210006878967 0.36871521949179076 -1.3822816237768452
P 2.9702108923735726 2.1571107056226526 12.315526637642908 0.22940359424194043 0.1996253345382433 0.6128898013953187
P 4.6673046420899675 4.477333205365749 7.739635465589639 0.10638582105610711 -0.9949490462941832 -0.8670934854000745
P 7.273129377093308 6.620149308293947 7.398842414406277 2.2026638211633096 -0.7782235617405435 0.4647690624942706
P 8.179897074894422 1.5811662981720886 0.48154019614378196 0.5154748163792542 -0.7860674832649946 -0.4766516728644694
P 0.3801392021970194 4.645222332368383 10.434923471727087 1.4437698129893135 1.393436354842084 -0.8851032917139336
P 8.171277307932822 8.765648570786114 3.8928400832625956 2.433841219476221 0.9929957792225544 -2.7480264262409317
P 1.6382138231175207 8.987144795139962 1.1978054347007008 -0.7305200850169935 0.0980086527360054 1.2172227143595615
P 5.606419838467155 4.079365482999779 1.349260910548126 -1.4641416917774461 -2.1610952536929044 -1.5171632382798002
Ni 0.44410404338419596 1.533149895661479 12.58954641163555 0.3393056559814221 -0.3502292448724613 -1.0699974906895893
Ni 4.683534485306171 2.0372099341665453 2.3773859521400733 0.6093131397876539 -0.6740154650620457 -0.9305832784236038
Ni 5.37612621637918 1.1985402651596835 11.466731079703171 -1.4631986111378865 -0.7605287155639419 -0.5937957608783451
Ni 5.722506222807932 9.175470809971292 0.13328291291905234 0.6383900025489522 -1.7302974059377554 2.010576961093957
Ni 4.903310495862909 5.703294052410873 9.588412806461335 -2.152213634932558 -0.7513701889931254 -0.5697122375665801
Ni 4.481128894505023 2.326159107140729 7.2075378119893 0.7993348897978622 -1.6765513225645514 0.7736878786537191
Ni 7.40397781352993 4.97530705266474 1.6474281857176876 0.04762351541523411 2.5500694805440474 -0.11857722091597643
Ni 7.3962462004309675 2.0116404519106035 11.993726055637955 1.4537318092980318 -0.45678835828163905 0.4277917139389729
Ni 0.9811201995859423 2.6205867870991835 0.9265267839977991 -0.5879752975418261 0.7505633768211138 0.9375887632071594
Ni 1.0260701340234444 0.549764436276409 8.428352041125137 -0.017943986072930386 0.15510874018310705 0.5301208484272031
Ni 0.2508043669220929 2.5751974502243766 5.896373092755521 0.0031267185544397763 0.9973476284333469 -1.6681916377459463
Ni 6.576629769024693 3.4339113495627704 6.675125097492426 -1.0913075650212753 0.1450809236334598 -1.826818675494957
Ni 0.505580183958381 6.924225143897058 5.184204580752369 -0.38048418710226084 0.3916785131561835 0.17920871855510426
Ni 5.989541367845031 1.8855599993681427 0.2033264661218828 -0.5116508146474736 3.3646520405295988 0.540596036926914
Ni 2.6541777010829493 0.4640996589779832 10.919964863887268 0.9201338009555057 0.4189805434052462 -0.38920459769439425
Ni 3.7493649035956724 3.4574240544526034 0.3322705136972486 -0.3637447628603929 -0.15354988033641942 -0.21077672316937246
Ni 2.954373706654536 1.214340054926609 0.612684995500884 0.40915610111565665 -0.5925402912046892 -0.09102836476343033
Ni 7.030869050329791 5.585777272901845 9.672522847050743 2.5682075849056543 -0.17173529299619456 -0.5687894686419945
Ni 7.965814598046594 2.9949483146950437 2.7315340327210986 2.130699672120182 -0.6861387306881409 -3.2795261572935326
Ni 4.602749879758239 5.731864559823728 2.3920545143556393 -0.4037439289611498 -2.6138333531645697 -0.5082127355002022
Ni 9.277561759234503 1.219220226677103 3.2893703852606815 0.601237561868371 -1.0212830562030217 0.17082229426362194
Ni 0.17848807472971237 6.192554642867984 7.8071762946974355 -0.23397450144207446 -0.33890122145415186 -0.22991858620514596
Ni 7.023081343302661 7.48321983605328 2.5380539207900603 -0.8662542773282307 -0.9684044630364355 0.8697975145947987
Ni 6.050468722821987 7.6786510817857145 8.984382169177756 0.9394808380235498 1.5767899488034973 0.04689332211742892
P 3.3835577000452193 6.847011851775733 8.122874792216665 -0.19187474405854696 -0.01649774054470707 1.11222323212802
P 5.044536309010351 0.2646072128462876 5.7806821706083165 0.7170289925090941 0.5397527150900124 -0.16693555761470605
P 6.4041409399123985 8.060295471055204 11.23319990306118 0.35048275564416415 -0.358838326697711 0.24415838395361172
P 3.0079434080536394 1.5027282886191264 8.683899149673717 -0.49647770645146105 0.4205095784552629 0.13199606542504363
P 4.3637710477924685 4.906563943696572 4.597770608734651 -0.20195783932616185 -0.9192303153046297 -0.4888003924118614
P 1.1300402298802372 4.889100034060704 6.087623471041937 -0.8097483718217022 1.0685198777027984 0.28106451295134177
P 2.303123200640312 8.105890485666622 4.543790486761129 -0.3170509583482798 -1.998540598754713 -0.6571749964659391
P -0.013282107291048067 4.5540042561814635 1.0567338798557162 2.0910049246337215 0.5958629278200189 -0.45548789430266073
Ni 0.13216103435572035 6.763291663987082 11.363162990331572 1.6760193613204812 -2.0760434182278824 1.181552771761778
Ni 4.066211456844711 8.808523029881451 7.726253324126693 0.265341188678814 1.70196950552734 0.854919569041702
Ni 7.187380458902632 5.900987753246026 11.986021554604273 -0.5691537939599489 0.1323385363661269 -0.605856291587305
Ni 2.6276078771080362 4.759308033271219 8.914433040754005 -0.22528700097040558 0.7813947603796736 -1.1271824245410136
Ni 2.3658362123305707 0.6580668531852688 3.2831168471689085 0.4470397635353075 -0.9469236674548402 -1.351395732831266
Ni 8.10129078355696 8.621365638553591 12.762885063759569 -0.5142334877729854 1.5077419449659 -1.169222018110567
Ni 9.00674027404616 5.622191581269997 3.4808797305154675 -1.183072036619782 -0.5565142508190674 -0.9166648685702987
Ni 2.9170338484716365 7.468364294077159 0.32511292846319045 0.7825928944528329 -1.1844388350603214 1.1544507733386635
Ni 2.1703769196340534 2.971398213853099 10.507731520689727 -1.2459290811553188 -1.7935727689576335 -1.2363488936660514
Ni 3.0920562533394556 3.5033088876928824 3.110025008328823 0.5747078910089586 -0.05673679057041197 0.17969645682480018
Ni 4.563241056352897 8.098158872567659 12.407149525011429 -0.4745389973968408 -0.5859749792823457 -0.1412389241795503
Ni 8.73284297179668 8.629546003077888 1.4874174509260532 0.8491469282239829 1.0793750752497475 -0.708019075701
Ni 2.11731206358845 5.589984317514341 3.8348230682586846 0.6541660344362863 0.6396315882655371 1.4238733311757026
Ni 1.1404923984952804 8.479326463447732 12.784887907082917 0.638049588490398 0.8267245946647246 -0.3876629642388872
Ni 6.758411492236587 1.0159732269534565 7.124166341454085 -1.389229515849588 -1.0104975355517436 0.2891285209063988
Ni 1.5065426757344553 5.205058433447105 12.959197919063019 0.5359870773999931 -0.9299993808956757 -0.25837349911172924
Ni 3.1463084308645852 4.797321018592118 11.201838722722037 1.2965206780599412 1.4978835641145818 1.4771800130186432
Ni 2.654944318101226 3.4867611788837354 6.473407592210122 0.14184339053276865 0.33773676883240544 0.009879206786924923
Ni 5.15949146579977 9.221178012439044 3.5492956249026637 0.12461802779341763 0.8424517755919944 0.1748177885762602
Ni 3.180609867938461 6.109012085851862 6.165275230701764 -1.014587389350401 -1.3208445995172864 -0.9411312291427792
Ni 8.065558951314836 4.183896518138238 8.047931434388483 0.9412297023938565 0.7398516468305646 1.1697418951697791
Ni 1.6263219103462014 8.01342899407201 6.929618575090276 0.4931550698361313 -0.49840114872641905 1.1543260748353412
Ni 6.9971846464657474 8.418099940853889 5.383897095227859 -2.1315640770030067 -0.19961119347085624 2.5364156372060385
Ni 4.887220887467123 5.579532148899298 13.514954121766426 -0.1366219942328292 0.2199517048004212 -0.4800720113999281
P 8.092072681361582 3.858102983346626 4.641269580230244 -0.2965590090425151 0.7220745253528017 1.248341033030921
P 0.7241913106068596 8.987995553050487 10.645575804867528 -1.9789176823174628 0.1298425094171506 -0.6019996368453762
P 5.349294620739489 4.681141144371063 11.47162994942972 0.8862263495747834 -0.6122719653056616 -0.4152087350676398
P 8.51211336446111 1.9348852602026396 7.650804186046208 0.46800273894021976 -0.5148940041751197 1.1766329658626573
P 2.2116900977287544 2.11906967333767 4.755359955627093 -1.1257711460157838 2.0034465206967624 -0.3307436253440239
P 4.863025706451262 7.680885489924351 1.9508121962067428 0.3139188404772013 2.137238501679964 -1.379927778832688
P 2.561613370620032 6.932480300325575 11.824806670154661 0.2866119251321322 -0.13649960972235203 -0.03023848716956728
P 5.610178131654316 0.6118968758101433 9.256705101843359 0.13040712367136897 0.767117424525053 -0.06725851603734223
