# total energy = -340859.30219582166 ev
CRYSTAL
PRIMVEC
9.34320439255720 0.00000000000000 0.00000000000000
0.00000000000000 9.34320439255720 0.00000000000000
0.00000000000000 0.00000000000000 13.67472405408021
PRIMCOORD
 96 1
Ni 1.643703184965697 3.7588551066668447 8.381252116924314 1.5421273644243054 1.456768796352143 0.5572932950769369
Ni 4.3128790814226265 5.832177503518815 5.779307114359995 -0.2812766289621479 -0.456436117148543 2.121973605101094
Ni 1.8793761657107573 6.278287470678441 8.369737552165741 1.7552620463028934 -0.9842406587377437 -1.5185596044066945
Ni 5.399222767761387 2.8874518311289123 11.136202364492563 0.007857548371205822 0.8588602988570048 1.043219965485429
Ni 8.168258829862275 4.394052838824826 8.656879441451489 1.7822534872900726 -0.2663032954817672 -0.15411552303190232
Ni 7.0447852503471395 7.58741985927957 12.752103911276173 -0.11247136512855468 0.5238370723010204 1.1354001844651156
Ni 2.7836394901418218 3.0049706525613327 1.5905067179830585 1.043307640103229 -0.03076813442079217 1.9119113915002428
Ni 2.0609706810041684 2.7569085831519864 4.20281707119908 -0.17436064643418359 -1.4714947897084076 -1.0430811259147197
Ni 8.974418511024107 2.304108881841811 4.4586573580390585 1.3105959252060848 -0.9970007866168894 -1.3784848757385744
Ni 5.780117170157275 1.982235499877518 2.39166778494022 -2.892272769788238 -0.563225601400972 0.9708886629108698
Ni 6.762452308222407 2.2126856295190067 4.824797906807666 -1.6101333001506333 -0.6179142511931036 -0.861376123300323
Ni 8.52617829332492 4.499276003634169 4.634514211681837 0.8414133070251509 -0.8724771183094909 0.8290599276661205
Ni 5.981070804389149 4.619410922220435 9.320459024767468 -1.2548448955877098 -0.6133389731175953 0.12056931164534072
Ni 2.9819116247910027 1.9172348288085603 6.842052670050651 -0.39557142045268645 0.9329180972043676 -0.5053001898390974
Ni 5.798682116745463 7.777040186912815 6.44257276601751 0.47650846241838585 -0.059275240721549535 0.03939932773322892
Ni 8.476322956135908 3.155900771930017 0.5006770821867972 -1.8059755134973605 -1.9283973049704075 1.5490217775512936
Ni 9.334356106576863 3.3318613351385378 12.239506769271955 -0.5451787712015901 -0.6820604468537093 -2.397761443034528
Ni 2.791562527236328 8.899607475628226 13.29414242378569 -1.909352629634131 -1.7393024376498434 -0.4259158370724987
Ni 3.2512948860041955 8.978221195101305 7.15126507611074 0.6367537524971099 -1.041796088554709 -0.508770150665569
Ni 6.799124384396859 6.967666443533402 9.075640915828888 1.9195305986083975 -2.2330002673633222 -0.16880346406138025
Ni 2.9630663820791887 5.115777984346272 3.7474620035618442 0.35152970885143975 -0.23101696147564726 -1.1258040561362483
Ni 8.5578517552947 0.5873680016223761 12.593942151917927 0.1310578698814904 -0.6509400712998209 0.20199357766010373
Ni 6.3090172690320125 6.740925565927902 1.4934168123609408 0.3395470825682669 -1.1771147905950825 -0.681952203410619
Ni 8.779313722571905 1.7009489966143245 10.530617917795707 0.42178124607883494 -0.00213632961671245 0.6419049576807461
P 3.371121478854473 0.3542709422534422 2.9912641721160025 0.2008692342476734 0.3382571601122497 0.19936025380231473
P 1.8303056576678989 8.476986323628491 8.919940156436084 -0.4930218866923768 0.15621945674878254 0.9988746066008346
P 3.840505367479209 3.743644370358053 7.634543243583637 0.5857592637271137 0.5625424592910182 -0.49813066867385186
P 9.260021574591146 7.60474215971968 4.348110435521638 0.09704654593305222 1.7698175755195649 -2.013566382739584
P 5.300053999222374 9.243895204278509 12.757109065723727 -0.7953671633993658 -1.0905071806071671 0.3016515930740741
P 5.493925484730621 8.404697953345249 8.627013889479098 -2.126711119786079 3.7400914661191007 -0.06649798372223387
P 7.166882241798791 8.721526005084266 1.2226404794133248 0.7170955840809715 -0.21319818812667155 0.018094138497549483
P 1.783477518614052 5.865504712617992 1.8239345267778715 0.8667265889789589 0.4826724251372526 0.5262675361193839
Ni 4.045990455709708 5.552563433793258 1.6418149234128672 -0.4845246478546429 1.7638045365562656 -1.9831456043558813
Ni 3.5096905391712343 0.6508849718769381 9.121765511612434 1.3675926543061028 -0.8018098337009159 1.3418422848148759
Ni 4.444048324075651 3.195254347687161 4.980402431198026 -0.10899986164018646 -1.3236697276709075 -0.6773650982605689
Ni 1.4256234575802524 1.4897458674618473 8.622076940421627 -1.0834821554395857 -1.0311224108909467 0.6814891477312714
Ni 3.8585470946366267 2.9112956880453966 9.665048538910854 -1.978959848409308 -0.9050877052556606 -0.7004826581146387
Ni 6.693695669096856 0.6761891715975155 11.312128357845836 -1.4412709578268599 -0.37061346495576813 -1.4592856492367254
Ni 0.5166408807477316 4.314579544572626 2.6310986023826977 1.1347972607737942 -1.160264037586331 1.3894966534680457
Ni 8.106444191398538 1.2423284791368416 2.156627339114143 0.4211369276266167 -0.18155742129293895 1.068690856063024
Ni 7.984010844598535 6.492611230007292 5.620366131778068 -1.4198235865863613 0.9697401511287235 2.485418320222565
Ni 6.532469338786963 1.354811313548108 0.39716278941116295 0.31461406677201303 -0.2758878538464087 -2.00069852563798
Ni 6.200365148310307 4.559969457603401 4.890696459792639 0.7475780689405448 1.538585669819634 0.2736473945516642
Ni 9.295525750250489 7.898838195832599 2.0232297422782883 -0.6325096325087752 -0.7054040066756561 -0.6190838460211725
Ni 6.100177970522118 2.7739786170808327 7.071432068499887 -0.007066934149110409 2.5361919512310065 -1.972814911853835
Ni 7.208833228301539 3.5347490126234327 2.7809878888123163 0.792004674685036 1.5124776598786727 0.5126021228171496
Ni 3.043455310335234 7.826699316815289 2.0639399512737837 -0.20784926510993237 -0.4411018007843177 -1.9539299020238736
Ni 6.47952140103394 5.3370250579286935 11.61138557991513 0.388382358903415 0.3998867599985887 -0.19117103312330302
Ni 8.114675554229033 8.214339512586452 10.74963196559324 1.0926689641451761 -0.7502836407971659 -0.32648767828114744
Ni 1.5131319073764085 7.061500242519393 11.224390999548719 0.16473109376421954 0.16347690964214429 -0.7718012031539676
Ni 1.294968091153876 0.28858074272036377 11.28312424929339 -0.07029370331924023 -1.4587362044911587 -1.4001387065629243
Ni 7.236489112499341 8.77872510071229 3.7066293985923653 4.659043330951364 -0.9473777242731232 -0.5289818497267534
Ni 5.525327993780896 8.044470718464744 10.839830323855798 -1.461546163136128 -0.9753101890173331 0.1994420148828436
Ni 4.079654020157236 6.921240062256753 8.06122214913307 0.9503329502467053 0.10262583979304261 -0.6420710509449652
Ni 0.5223430382227043 0.6231870432605912 0.6844840682160321 1.078568263077736 0.5743777613630495 1.5689835653852013
Ni 4.051372141283334 0.6484426583197401 5.1286641314697885 -2.2177207154964322 0.7014113405764952 -0.9167548571809437
P 1.670947968182181 2.4452099504753306 10.607291988093294 0.5281161592923485 0.24225602472457633 0.21946190964819623
P 3.7249392757080524 3.248463895155569 13.390453106184125 0.7534003320492767 0.32521266822346573 -0.7470723329487198
P 6.562881468200425 5.249283028029516 7.32563168869624 -0.5814220698043405 -0.10781638285504658 -1.3931879862767038
P 0.9276157288107906 2.0498616113044426 2.1751016566223575 -0.7946955912536378 1.0092904026175198 1.3686992571067202
P 3.763087578133603 6.254396897741351 11.186238025521108 0.2069663482843468 1.2766018276488271 1.7513632254691192
P 9.380670369404061 5.213236946531163 6.718842902988204 0.3795940711878237 -1.451918667348693 1.351691152584498
P 0.6244315580494922 8.123691746205681 13.503775894645859 0.5680088817222282 -2.0145886533565114 -1.9820222893847157
P 5.922171245611125 0.09307513081137576 4.979596112682394 0.7329369219886023 0.6754719950029141 1.7115882595640264
Ni 0.3386911493818759 2.8894979928313846 6.834257634852602 -1.400402501747272 -0.13594579410141103 -1.1385415583075746
Ni 4.022342806079762 1.195070552693434 0.3112417499951445 0.9008451279292228 1.0795236850124699 1.8936917831684226
Ni 9.307671915607632 5.683928883732823 12.71534587762381 -1.0054206352494683 1.0358347287649516 -0.017221248974292922
Ni 1.1344705307654106 6.034700796042996 5.002719608561159 -1.2272567015567961 -1.8953151777044583 0.5942912124575248
Ni 3.710560084566019 0.927153240206807 11.605218130874936 0.9663478376177229 0.5932350032788687 -1.3839975780266873
Ni 7.647076217591384 6.313913107991354 3.3778616663072754 -0.045779006007327615 -0.36269755254280117 -1.3067097027778012
Ni 8.829869800069982 9.329787279761753 8.513705115823546 1.391309024086436 0.16960359136517242 2.624363820382248
Ni 7.994129534661447 0.941794975384637 6.280541051512397 0.594493301166002 -0.6292458741558389 1.0150802698264196
Ni 2.665008827419017 7.464510009069402 4.239643310241526 0.6325320011062784 1.942639416711719 -0.23358549353377187
Ni 5.8702230306990355 1.608787631165971 8.758578349666436 -0.09386994797728349 -1.9628295185063487 2.7047863846053737
Ni 9.340858976644995 6.9664518269976865 8.752219364941768 -3.481377552948817 0.7627491202540283 0.7615880100663917
Ni 5.054542624538028 6.838076202376805 4.042740889316466 1.296054279946484 0.44188727280009055 -1.7726887264197728
Ni 2.6553853271745114 4.255623926569878 5.812386728549969 -2.0449865489220778 0.18324277941516182 2.8629333973941726
Ni 2.8073712286088557 4.321764468541582 11.785533561524199 0.5326258742372441 -0.31926750638362433 0.5235629927040274
Ni 0.9561554801184284 8.756114546739761 6.602867578876553 -1.1714485934482406 -1.6040104750823472 0.5063294024345603
Ni 5.4312325850795204 8.657749293755144 2.571463733440361 -3.01585515722829 1.1481268880031645 -1.2514376696783738
Ni 1.2374700129939844 4.12750991166438 0.3301570667378647 1.1514700934437847 0.8896042649080809 -0.3228667936991085
Ni 0.9378054272250216 9.46681471139857 3.41148785793832 0.7151934819622521 0.7306792363026772 0.9178779150417933
Ni 3.6077007503992586 5.1751633897385805 9.430266899838925 -0.14883216314577594 -0.8727185448963356 0.36960379274433125
Ni 2.251067512047579 6.500422148652347 13.464064474170886 -0.2571979907463893 -0.46233885578622314 -0.2865767010188226
Ni 1.8191311855393275 1.8340616257244926 12.818576136994167 0.9442396928647738 2.0264434958125683 0.7937972478090844
Ni 4.521783782361367 7.227865335095769 13.581502944047868 0.8594562805697907 0.16084795665972945 -1.1764411615668258
Ni 5.644622023996283 4.316765854336912 0.13350784664448107 0.0918673157249579 -0.29414011518837724 0.1339231072444274
Ni 0.9364786922398567 4.574367335153676 10.523547915237438 -0.15737285362693543 0.6121076718136556 -1.3749663210623546
P 8.544733896708987 5.782957504210023 10.555806261785186 -1.5804699687582457 1.1737523018807527 0.27621669794073717
P 4.628445800605326 4.01912874386218 2.729898314358936 2.1055645676154513 -2.7404858948895128 1.8551936270932243
P 1.227444754972281 1.1231091945544214 5.559568033922683 -0.13365262719186013 2.4590956231676357 -0.6169925107097827
P 8.289253323227662 1.958998951228891 8.600622140798851 -1.551135995680819 2.28806506954795 -3.29904031606706
P 2.512172694409673 7.085671111580107 6.282550774718798 1.4405011695403707 -0.6225779752173599 1.6141203098228396
P 8.246498821170519 4.938556088581432 1.5155966446234963 -2.1187242449258608 2.6787539650973544 -1.0078467281924577
P 7.959288726494687 8.205781137611726 7.166444045525521 -1.4282344363578756 -2.209362316229408 -1.7559868402840597
P 7.146943844204834 2.5217868514500577 12.076366950758107 2.8187243069771264 1.9458422399197326 2.020854945981197
