# total energy = -340896.4911076038 ev
CRYSTAL
PRIMVEC
9.01018168176433 0.00000000000000 0.00000000000000

0.00000000000000 9.01018168176433 0.00000000000000

0.00000000000000 0.00000000000000 13.18731165439194

PRIMCOORD
 96 1
Ni 6.205627555783803 2.054258377062029 11.386729865574173 0.8988332397055165 -0.20856326045782148 -0.021104386078783007
Ni 4.586930376677656 0.2519354950928616 5.9269453360445326 -0.3040895130916053 -0.17565416843462653 0.30982127336905996
Ni 2.844063882310551 1.471696063186943 4.76874323096434 -0.8292093087597913 0.20942380868590382 0.04954464369734693
Ni 3.5523632830782197 4.171678128478555 4.749542533567845 0.06014787313448995 0.2645942832104604 0.2369369265045081
Ni 5.1333528513892785 4.454471694169031 2.6540391483396037 -0.21244716889325993 0.34811322697072306 0.18373823099434164
Ni 7.382077982045189 6.219404123742152 2.4445452135547905 -0.13281599022317772 -0.4080592685070521 1.320203880609494
Ni 5.088419074797855 4.585659941045134 11.36582714483737 0.3924164197634726 -0.5764436427531427 0.26499820351709846
Ni 5.721402365975048 7.853770008982744 12.255193356839433 -1.3912920548055716 0.27851397861534616 0.7536101340672376
Ni 1.9915294914334973 6.2247471615441805 0.3683398356863876 -0.23523948419742716 0.9778033877528322 0.020576538599771016
Ni 2.6594272370505863 1.6030555035170726 0.36534304922272065 0.33714438666404517 -1.293349222310495 0.03555372873489361
Ni 0.43709743395123807 9.206063143076138 4.743739976494479 0.34637618967495826 -0.17840319193467338 0.27402431827510876
Ni 8.366197067797145 2.344647526002269 1.4042638626635398 1.713666482249294 0.41827760380095064 0.02026826333073283
Ni 6.742427156342699 0.6459723692470132 4.764365183632122 0.023004688425289414 0.3585717032998857 0.26861600277534387
Ni 0.6721118076407124 7.610585202445245 2.4684014718826655 0.21739499981683852 -0.8977176380438346 0.1660395281629979
Ni 7.694722280009052 3.9843113981359353 3.759385724997778 0.2721289010246088 -0.43862042912336074 -0.6686909675253387
Ni 7.777228514668701 3.951469285507955 12.632495620353268 0.06695461164367823 -0.3063770235742014 -0.3175345828529177
Ni 7.967622666093076 8.81202086281291 6.909518274601164 -0.6071714108543027 -0.37026276648456874 0.11685329624633424
Ni 6.836430382967587 0.7249502167173282 0.405443764301483 -0.12115937982085585 -0.42123540087769396 -0.9856604219034057
Ni 1.9202859840125261 6.464255813910976 9.358468566033546 -0.5409133110570168 -0.31874582955219943 -0.8139189582596241
Ni 0.20663320206618901 4.8966013146505105 1.4130073430734689 -0.2943931117394478 -0.9670654325100377 0.05792901110630024
Ni 6.216007285206968 2.005504283391247 6.986070581133358 0.7832017316814254 -0.14685832724885675 -0.44481267397700164
Ni 3.416579843488738 4.105101895225292 0.6601255628042234 0.10344525037054443 0.48541939175477045 -0.1638864863757371
Ni 6.194923459816165 5.861150285552544 4.694247948935018 -0.5875536366233752 -1.4765372372283216 0.3697883979513115
Ni 5.17971023670367 2.894872297429668 9.124261504632539 1.4427375150700572 -0.8435879460789666 0.459957242927924
P 0.3457540129910356 5.582411301667991 12.244498271053585 0.2667938619649405 -0.2042864874593385 1.3485315239095936
P 4.136574460221048 5.96490252887523 12.712713268838016 -0.010489329567098063 1.0609343520460566 0.040482019274446404
P 2.298443313778323 8.475220267467533 1.3050410377271593 -0.012085727519940477 -0.40129880985476696 -0.4164595767556053
P 6.2674554232332405 7.792689986621955 5.825837581077487 0.32846357106059565 -0.7994374768139973 0.518699493964139
P 4.534130711382741 1.0835374316332012 12.566426660334834 1.020821800295887 -0.3374248940189415 -0.3212850510342854
P 3.9111847627206577 6.188517220562805 8.239432820180395 0.7300228336656008 0.4725530773150636 0.21361882060385792
P 4.631665929269678 0.8015115334313127 3.6206289254172854 0.5194978214957182 0.6531069970441526 0.27238549712010507
P 0.33915855992006677 5.6604304657957485 3.6085895205082297 -0.4463815611260183 0.06560941046969346 0.12070506589225662
Ni 1.385243368902863 1.102539905030296 2.656253851023817 -0.1145704137494285 0.19977343008033338 -0.38855359437395665
Ni 2.03023723240738 6.401184541374389 4.92050262388734 -0.6816459850241099 0.3588429546834013 -0.18999475342701472
Ni 5.887243772019109 5.660944046157833 9.244661860850348 0.6201673088933384 0.04051544361554313 0.23372973242112005
Ni 8.511468228812488 2.3473776110849243 10.04528949544797 0.7336650584038784 0.4348504205579672 0.40392699150623335
Ni 2.539285473050178 5.0777690399209625 7.0306835952530236 -1.052350724142104 0.10251913901184924 0.06999545535253106
Ni 0.3559508357238437 0.14010562379459646 9.143066655048413 0.6062303870972721 -0.3845642707089055 1.0123793259554887
Ni 1.3718452285797338 0.94316780951213 11.443184060603494 -0.002877578658111173 1.0101656061336215 -0.6011120920341002
Ni 4.0243526460148775 6.789937844926332 1.5831105651046455 0.8784955565894289 -0.9751865189552753 -0.16682474306845463
Ni 5.481875693244669 7.890035990691283 8.036413602030553 0.08612912768960006 0.42796140674761785 0.1359481080942562
Ni 5.3532102972700315 2.731058182288568 4.567781938335549 0.061107151723965726 -0.3137272932916855 0.3563145318345928
Ni 0.8094458995164153 7.206604691666611 6.968016879878849 0.009777648212054128 0.41806883022425423 -0.04623769081130101
Ni 5.117512951800803 4.5086409070961695 7.202263586079736 -0.00880217167266226 -0.11418629093713237 -0.7043832787206256
Ni 8.24551469288928 7.060036064473373 9.17120815583606 -0.566054843319651 1.0380800731557025 0.6271815354276424
Ni 4.4611392286943286 0.5141389933546797 10.348861441366536 0.3673103687244642 -0.934468729520939 -0.38006226907349383
Ni 8.21783541442751 7.232914422496159 4.802937771879141 0.0656999133009707 -0.356310932290167 -0.12110975752984304
Ni 7.141956637316609 6.032190566489978 7.021399503935638 -0.08106971088882167 0.6144304064095611 -0.3301576709335669
Ni 2.331808016950178 5.361742939426053 2.673991294897464 -0.020211441950868415 -0.38969259307440635 -0.29267715748960565
Ni 2.678051282812462 5.078021325011108 11.477445276863547 -1.7054476938839274 0.0436241644478539 -0.6292952393365356
Ni 1.2791124375873681 3.434149697981073 3.8097751666636155 -1.2098176801447422 -0.1647390641840195 -0.6160903106104874
Ni 3.633770275559373 2.5818585820123747 2.6862424390786064 -0.09718487128312941 -0.22142263291899283 -0.5423479866210144
Ni 1.050217779370301 3.3402365731740944 8.136611328636713 -0.6222007943835994 0.5660900674329605 -0.7713155217668006
Ni 3.520989830082163 2.6581658115998548 6.952086878472465 0.679474688404404 0.0892393911838076 -0.127571968215419
Ni 4.129285223152177 6.734858603638309 6.0352783557897345 0.7566085545739293 0.5236169858704143 0.10626960719321699
Ni 0.9483576742237122 7.479604189750335 11.480702457580973 0.04685552690095801 -0.023562360700972323 -0.2570915470755121
P 0.07539720122659493 5.537153158532093 8.065109228998342 0.7972088445937948 -1.3262688558566513 -0.6015692341761769
P 8.425826450889593 1.7073934086561704 7.8528203358219795 -1.4566420409662912 0.34072336226455513 0.6891546346963293
P 1.7848989924218455 3.267560446848363 10.203616409878387 -0.514754907494094 0.16767115022914997 0.7781415435496986
P 4.066015726616189 6.021144083614284 3.840857590787825 0.1719764624727232 1.1468145969496444 -0.42644034211740106
P 6.96484349385208 3.9327100870192155 10.536266915490858 -0.5887980505534376 0.8564241786116863 -1.7424114155924701
P 6.38740797341604 7.763722252164079 10.20890448557149 -0.7511511310037837 -0.3452916983615279 -1.1527530739212664
P 2.2704216484084965 8.531227557480022 5.725046984509483 0.7611473229845471 -0.8463860776493939 -0.4379470572054199
P 6.918242833629333 3.9467839909766655 1.6094977834975956 0.8439273316962562 0.1413037159792147 0.24221025908830543
Ni 5.4309050948533155 2.8587504786297853 0.3709230548058504 -0.48332342845769016 0.4474714517560874 -0.21010232281016722
Ni 1.2247359904790387 0.8769636967668323 7.0984005175210205 0.938585837013106 1.0273405752510112 -1.3742505259422526
Ni 6.892311530435005 0.705694557211908 9.384196239119401 -0.8712764131331705 -0.11147249155039513 -1.3756993425736372
Ni 2.6283330996900487 1.6503319273741406 8.998744266175656 -0.19056528121850405 -0.9548444649638136 0.6925142951971816
Ni 6.284827053726175 1.8646571216352559 2.407423264576114 -0.7041084277926841 0.21665323655480753 1.6124272383911327
Ni 4.051121896115763 6.934100753581388 10.447370659905074 0.7301429041832329 0.3287361079956919 -0.03028759523994784
Ni 8.17273945456385 7.056098615030731 0.36928139968354096 0.8936650652410156 0.6143473597774516 -0.5723319345776142
Ni 7.514212298009339 3.8624126486862935 8.065530905506158 0.20331358202310792 -0.5120200250614343 0.363349070083871
Ni 3.144193037766798 8.297341258550773 12.359386198051695 0.1863990656559564 -0.027512603597971974 0.5939608257012997
Ni 0.036079470945465354 4.826024560682068 10.229186404782897 0.41668814782664365 -0.6530347490453204 -0.3197696428310235
Ni 8.551608588691131 2.4107552298024038 5.698342607717492 0.1544212271977792 0.4335250168783243 0.33287172743062027
Ni 3.5538950139826797 2.594995427063567 11.222837361851491 0.17572487377156187 0.40590494116821063 0.9267273950126232
Ni 1.2736792979674307 3.378214489422911 12.54325697785943 -0.9578158888873117 0.15293847200466562 -0.24231850253139556
Ni 2.929732690778819 8.320533466480656 7.872205741945189 0.7090824839685078 -0.20416076051475163 0.13893598707798652
Ni 5.530197298189487 7.776994249942136 3.5432062353240865 -0.30734607235569006 0.48012060524967637 -0.3742253506767426
Ni 3.0440268467969065 8.146763100460566 3.3927262882154006 -0.29204363767066477 0.41275333154861177 0.9238603578774733
Ni 3.527864598788651 4.342249879962861 9.366565115390886 -0.9333670118163281 0.7952730610236626 -0.6939664542626758
Ni 7.320457348776943 6.197662555080611 11.423112979645994 0.05037279602559711 -1.0601473373683872 -0.36810149716719187
Ni 0.3710519004054609 0.22693944876843292 0.420063685275464 0.12097837415830132 -0.3095330527046798 0.04076175529839431
Ni 4.559935872031996 0.04453642757444265 1.4834147056242406 -0.4373009389809888 1.830433646539725 -0.6446696649100768
Ni 6.153377511578135 5.511393048791793 0.4306092020435814 -1.2973465163953461 1.0370819709084913 -0.6860821664185925
Ni 7.9309602363857366 8.760176276787835 11.4268449969438 0.33063203946682407 0.8074724313033319 0.22958280013228205
Ni 0.10241963743580632 4.891979091391757 5.8421369999373 0.09850538986676584 -0.24248613845751144 -0.0930461665244075
Ni 7.650121880143894 8.779115678912394 2.719461177305448 0.4473498385765586 -0.08105582693175073 -0.85006892581762
P 8.356700336189494 1.67885816292426 3.5947030283320314 -0.08306720093482468 0.3987763005432293 -0.5053117598033233
P 1.7177911584429162 3.0435042562530317 1.6204703828826037 -0.42818457850201735 1.357155775243495 0.12503300384364918
P 4.555601974590554 1.0846456839934868 8.073483291954842 0.6381974269221719 -0.9248510039255169 0.22664428632924838
P 8.453947228259121 1.8475107456870952 12.272323514460368 -0.16890039465056073 -1.324226628615642 0.6035613249055412
P 6.265770519238334 7.753270441286587 1.2223987493224686 0.7445405676658017 -0.915809719658855 1.1045425756543106
P 1.8772984066879463 3.3724659934402905 5.838076111004122 -1.2696094554913941 -0.8291807695147011 0.7531275380038642
P 6.748869436323222 3.9367736790069303 5.743482717471927 0.2757616126811896 0.45458338021052025 1.3956973829621186
P 2.4077278087206473 8.544445494167332 10.04139979996882 -0.5001178743072096 0.001866878005409688 0.877799816073985
