# total energy = -340859.7208056828 ev
CRYSTAL
PRIMVEC
9.40449590935507 0.00000000000000 0.00000000000000

0.00000000000000 9.40449590935507 0.00000000000000

0.00000000000000 0.00000000000000 13.76443038435568

PRIMCOORD
 96 1
Ni 3.219770297360543 3.5438868499527585 11.96130394146654 0.28366081292360823 0.7024354109656354 1.5383645549477636
Ni 3.798880356422852 6.966549745549851 12.038040867607773 0.2003827815295581 0.845184344031809 0.642788388726964
Ni 1.6073882549734113 5.703949125532794 12.179524927849272 -0.26720189603663663 0.5743461367941656 0.728849639293106
Ni 6.2415853569218305 6.693668887552645 13.32833208585639 1.1292801876103067 -0.023893261677829816 0.2788191685605908
Ni 3.8934519689131992 3.777024307553763 9.813020797215477 0.5082664715562729 -0.23829549741493156 -0.980690222382324
Ni 9.10868705161849 5.162635736179983 0.5035044937984224 0.8944047716205177 2.871011289306301 -0.19422807478207196
Ni -0.0921217412638418 4.267177238280134 11.320404462318304 0.1074217185197892 -0.4534178991475094 0.637909720478424
Ni 3.9865470755203933 4.825616214978304 6.54378943366853 0.6774388889212978 -0.3194893925864434 -0.8887318896054566
Ni 7.31173236934119 -0.17905408159568545 0.14884307841708655 0.8317662708536901 0.21757600547939304 2.590179204080739
Ni 5.754761617804607 2.141478991343667 10.298368030449549 2.308227660538754 0.6653379918927057 1.0701592130784343
Ni 1.0107764287229024 3.4129480511557118 13.618210630052388 0.41222805517276107 -0.5673668772628552 -0.9106222619206447
Ni 1.5451304909831471 7.846650701365696 3.290730982014945 -2.936524283407446 -1.571660597996732 1.3272944689076884
Ni 5.307747110556081 3.431813470274212 13.557413384301956 -1.121528568689346 0.09251266261844067 0.7632509995911113
Ni 7.0693596965984264 8.199742506352775 7.194888088805805 -0.06023580486260594 0.25045912936065895 0.463452400565376
Ni 2.918375007275953 9.371288795410054 4.223615612479091 0.8807866666164509 -0.751937374350505 -0.6622457261206273
Ni 4.91410311851069 8.617226895938245 0.23026908629933812 -0.29721206924548166 -0.6285953850560335 -1.1677899136497307
Ni 5.921070726324823 6.9733491962092105 10.926865800628908 -0.9526644265933594 -0.752649055705549 -0.6524950744917666
Ni 2.8192892366715085 4.878826853748231 4.261536421536726 -0.2970611454899142 -0.3841109852215707 -0.24367527366960612
Ni 3.7609050012880054 1.2334654911889846 10.527009198478991 -1.2274220234900668 1.6482295928017228 -0.8231998693409177
Ni 4.26659415952373 5.651594295905332 0.34562087330824814 -0.006542429104208088 -0.9896309765153795 0.07208370534012747
Ni 8.746021469631096 6.561366436825297 10.458668606429981 1.2204918720291367 -0.02572645823182666 1.6636829512423155
Ni 8.252990763106986 1.9108525341936295 9.61585835843501 0.4012121636782316 0.2758749983306023 1.1567984476352335
Ni 2.644375014246293 6.058649099348021 1.9194087447190586 -1.512612385684324 -0.932521375986581 0.6276728732417641
Ni 4.537227342959959 6.361915884150747 8.784032561851012 -0.030839353978359792 1.3979247296307409 0.8244232002250577
P 5.231382602459261 5.084409137861098 12.121631790485576 -1.1823451857560863 0.28806485552857486 -1.1697912603504756
P 0.6308620604916182 1.5481211207337369 0.7631927247071781 -0.3856569895524519 -0.855129885280295 -0.8821976880313646
P 1.7632301593665634 3.7849711067337886 10.399109932812102 0.017128175039854372 -0.17943908939835548 -0.5264973927420029
P 0.18862409679757258 6.253359786002769 2.413220964866671 0.23191119115514255 -0.6496354935557843 0.3603948725515535
P 6.618479941464704 7.565587931786688 1.598243322993935 -0.20508455788060168 0.58975887180481 -0.12294089720131085
P 6.952198484545448 8.88492587660031 9.564269995237337 0.5315753214855425 -0.5014239947131428 -0.41923585394916185
P 4.560146099885075 6.788137050586211 6.805120630040896 0.7795199119544639 1.6789010537436504 -1.0059734224291448
P 8.300502277257864 6.724393376216722 12.64726788488797 1.197388196132138 -0.36249417828274344 -0.044357443069452634
Ni 6.606037793162723 1.199101462545416 8.079900072469945 1.2133912564286136 -1.1432579899466373 -0.35544729873829106
Ni 7.121620481265178 6.571137708243105 8.958084391986514 0.1117889943495494 1.5402316900634894 -1.1596860535956737
Ni 5.9836294341893606 4.759671888528193 8.809675801287908 -1.3307060656923986 -2.2904538814951003 1.6306100799477465
Ni 9.64271195651625 9.415123151597157 7.581420400922279 0.3248036057105051 0.5465216583827297 -0.5218197847606755
Ni 2.393707575968876 9.041040511379522 11.454057398681451 -1.4149258921744277 -1.174996201590183 -0.05612101136328399
Ni 2.5095239450836955 7.597619645404639 7.69333954686526 -0.30254299454009187 -1.374011413348253 0.7205053810934688
Ni 6.667176422120534 1.2363244579945798 3.7320049848617094 -0.1418629309167944 -0.14503387244560828 -0.1377000577883564
Ni 7.558609795701978 2.950265653452839 5.412173694479268 0.45293813129761346 0.03964486808513172 0.23820062370828007
Ni 1.2567886414451561 2.166288051979062 8.887486720880453 0.462186646479075 -0.22965067725573998 -0.7449889680571299
Ni 2.581900946846395 6.7990650750207555 5.548634813369227 0.2982993887723895 0.6427428802010091 -0.17861633638674398
Ni 8.174510243394185 8.088026497524929 3.1436173904253217 0.4836581860892896 0.7659329172986487 -1.3858996801454069
Ni 8.283207408983229 3.379063651811766 2.67659011553763 1.8502324264332073 -1.5194983141708798 1.1566704066978013
Ni 1.1988193276632848 3.948665765346257 2.440351055132398 0.5616723979812391 0.07144478620454792 0.0013966232372104978
Ni 0.6525149722455734 4.5719675514463685 8.388058135679218 0.17131697451185335 0.045853567999004904 -0.12121337298724286
Ni 7.455715204188763 3.5296014204208532 7.858719491173658 -0.2546238022613099 0.5464039018579429 -1.6468478819628474
Ni 0.8205657934381457 2.7359371879939087 6.332326518162445 -0.013949005980924365 0.1554157299005646 -0.08782091356972617
Ni 8.752792706802241 0.8900114137755034 2.456895444620566 0.6719452127965782 0.5690072410797554 -0.010789891526652384
Ni 2.929491121631919 5.813859471115002 10.184068606550989 -0.4256733820443895 -1.1828524644098082 0.4059319377514041
Ni 7.262274124503606 4.347689129144281 12.37416790213231 -0.6267781293416367 2.8509204320936963 -2.418370891754764
Ni 6.486262131201998 5.349587713576125 6.526102397907731 -0.12301108831761395 0.7731248070613975 -0.23259587592699296
Ni 1.257512787642626 9.010522921629008 1.385362209480337 -1.5064360816702829 -0.7142558006393313 -2.258037669947924
Ni 5.351365163333551 8.53790937607512 3.1531008842633557 0.9707233409775992 1.0273616582969338 0.9778666368905997
Ni 2.712802127659158 2.1587456461300905 4.692404349480888 1.211710269181765 1.8804187202086 0.4205190915369596
Ni 0.7894858148225831 1.8384661279348584 11.22392937982318 0.5252285533319083 0.011386644570386842 0.5710831497721778
P 1.9077866684744715 8.968625891632538 6.019267772050554 -0.8223514052976933 0.6256198473674773 1.212706314546447
P 3.5643698423954766 7.066820482659247 3.61897140613431 -1.6277456139157578 0.28370503589798235 1.3694070818070223
P 0.7650839688670636 2.1189552232535336 4.059419694226037 -1.7559981531379696 0.9839799488771893 -0.9134039384308399
P 2.8305934409488946 3.405189341897106 7.4179815446029425 -1.8736474629230375 -1.1073409643350542 0.9466110213104277
P 8.091195812700867 4.333638812014152 9.623181639525527 -0.39822968401113995 1.341979838834005 0.4613194133827732
P 6.952781563301853 8.307000784042952 5.103782399767433 0.20011692946268117 1.8703181414394885 -0.7597165040752917
P 2.5921330385716836 7.309898492607337 0.0823786833342476 -0.14201693999615542 0.2680549880655512 0.023902774759526575
P 6.92636433383831 1.8636889863973796 1.6302317759299598 0.6991770519293379 -0.8880803720643867 -0.742641807981192
Ni 7.616061862199943 3.615887671872617 0.5505166292079288 -0.6721791831842553 -2.1462103661612715 0.886041230147171
Ni 6.712280385277227 4.449210664231124 3.6520883985988593 -0.641159080653657 0.8274095365468912 -0.42991210271608543
Ni 3.2402720987954035 1.3444291403311488 7.198260541096879 -4.005682566025192 -1.0594621383759044 -2.3522616588305163
Ni 7.2322173550605715 8.576881607793496 11.793129921375437 0.6793852140143912 0.9599805006387984 -1.2569179760666547
Ni 9.500515975922172 7.807057772906631 5.4757245766792995 -0.48238883245856284 0.3788237686807024 0.025813618628994252
Ni 3.0627998534388667 1.3788213824629307 13.035259774794667 0.09667527863656254 -0.2925457741180639 0.6428927755153121
Ni 8.693770089460415 0.7240671997028434 5.053170223261934 -0.10668998256008722 -0.19063701499670396 0.4660219610647651
Ni 4.087899329677958 3.7443248747147675 2.588428607569302 0.20110680417977622 -0.46062238731574867 -1.2645202138939446
Ni 7.634701573412738 6.450252315745996 4.534457718867038 -0.02247478406374839 -2.3480710177879365 0.6799899374779257
Ni 2.559734549606961 -0.038825521579668676 8.927375890965756 -2.1483837196635065 0.7947372431248506 2.2536549674991964
Ni 5.8926785526863625 1.3479182083735037 12.879047333256317 -0.990129770528669 -1.2067259285932959 -1.5715729233789322
Ni 2.4865863791664364 1.4136744449021936 2.1142031313888388 0.6757969824425006 1.505986395727374 0.37290843163753196
Ni 4.9012471723815825 1.252443764260337 1.2453894517574524 -0.7817680845586923 1.1956745558751407 1.6215621108128655
Ni 9.297858490087398 9.093291891550203 10.02104260760917 0.11954112749114251 -0.463288364183686 0.38076212335399584
Ni 9.580454192525984 4.777389959126028 4.752101269191009 -1.1233337402188848 -2.3200524210878237 -3.4520320099071644
Ni 5.243204054020556 6.229810927840893 3.0116845363935667 1.8798677328011366 -1.5924821627277734 -1.0855842893842529
Ni 4.983423659050303 1.615513739578787 5.6496108876839495 1.192615714444159 1.0044767832789605 -0.376959461778454
Ni 9.397094732628979 9.436659447599832 12.67668232724935 0.5526336848177386 0.505227170509317 0.592953724593024
Ni 4.160050623534953 8.823364045319302 6.1906769387900935 0.751583590555512 -1.039334257277778 -0.3738319718930659
Ni 3.324056754292271 8.420955062935706 1.979971818517322 0.9464171601320669 0.7426014416615597 -1.4627342699069583
Ni 7.868676031164064 2.2464143585042966 12.240900550108073 1.3689013458151973 -1.4355947333776888 -0.6112946889940569
Ni 4.730057130400498 2.305888391657534 8.305581645585832 0.7124133481139537 2.7447133027072987 -0.24816930488521777
Ni 9.455844619584747 7.035635173687687 8.221494165315477 0.5134066209963158 0.01755857770905363 -0.7665065304139316
Ni 4.7019000691638135 9.420295624436227 8.332449350411178 1.3484739311987808 -2.069339780955462 1.3418852222376696
P 6.108398883563806 4.819888876871043 1.5520079989598963 -0.352793920275844 -0.0890820396703369 -0.35670611084605663
P 0.7131382348186914 5.901246048607077 6.207854250863843 0.5870898096130792 0.9474476582791104 4.081408753213912
P 4.46949616225635 1.27967918488206 3.459579304474341 -0.13774890874842083 0.6807959783189889 0.07148438119323172
P 5.573715663941075 3.89264318225109 5.206561315978973 -1.3328454806329044 -1.2287816228417547 1.523363453553241
P 4.6453226208004565 -0.18337544754032692 11.679849004401369 0.8667888096754621 -1.285001107456116 1.6097774594731113
P 8.52168662035258 1.921959244053524 7.423983493995479 2.102727098166656 -2.222958566856604 -1.522547642520165
P 3.1155402674052413 3.298890322806176 0.5026919453378849 0.4402016575675516 0.018949287408993168 0.8010904390363881
P 1.654495375793235 7.364237670905787 10.026107869193032 -1.8168985881677677 2.144970065996267 -0.6765238333061961
