# total energy = -340896.8871203155 ev
CRYSTAL
PRIMVEC
9.01706411403845 0.00000000000000 0.00000000000000
0.00000000000000 9.01706411403845 0.00000000000000
0.00000000000000 0.00000000000000 13.19738478971149
PRIMCOORD
 96 1
Ni 6.385957052324849 2.052572373843292 11.424976603764927 -0.45254320985203994 0.06653295072522734 0.24813768031633396
Ni 4.659279415317521 0.4152538437488195 5.903665844262848 -0.9376908360026625 0.05230883670604539 -0.24829451760917237
Ni 2.782684067761947 1.760419491504593 4.728965993113144 0.23258610573498006 -1.8719194244883373 0.725680240426189
Ni 3.5073855231187743 4.163674511861291 4.830044578457345 -1.024416716735997 1.1548150986566177 0.21800075172163744
Ni 4.9078167577836185 4.618928052710556 2.618585220236722 0.9077847924718495 -1.0721911559067987 -1.0579400453044232
Ni 7.262469801726563 5.934409524890435 2.5883374781439703 0.13157106207248306 -0.31910218445035365 -0.9697787176761425
Ni 4.9932534417391485 4.380264395619795 11.659876538229508 0.4653539884634631 0.4008825482529548 -1.0019136505374744
Ni 5.557063419331489 7.78898520149937 12.237763956559725 0.4486117360081177 -0.1314337651636704 0.5470693033560836
Ni 1.8826187464877426 6.385497182047094 0.32101289824034185 0.3477375887988592 0.5323073145555607 0.13333098218638328
Ni 2.7957047085674125 1.4875450925745408 0.38138034011321587 -0.3352327714636291 0.15592917920187338 0.529950641397926
Ni 0.5628703994954358 -0.17568938193751354 4.7177487651616214 -0.02193536662051061 0.9683342719201322 0.012724903765836149
Ni 8.511486493174388 2.265618551343799 1.4377366329615004 0.8027729689451336 0.3495910970678302 -0.12334070374289079
Ni 6.846900360728304 0.8279441361257596 4.759755660768505 -0.07110308659441303 -0.4680089095878069 0.09806598833650208
Ni 0.6514405132846909 7.2559684983881 2.291303658916076 0.19457800192232294 0.2530708559518932 0.44857239812975
Ni 7.626614925194651 3.6852471158388616 3.8946936812828996 0.48118658462034547 -0.005137578336881474 -0.31658276046260964
Ni 7.514586918707736 3.75566137072105 12.61639679718996 0.6724589192082031 -0.0715651138324961 0.44601826424932867
Ni 7.907289084718004 8.818760992293395 7.178281981172389 0.07401974602057575 0.2763488526432273 -0.4245693503469333
Ni 6.8346281362572245 0.7113534951183714 0.431066167652188 0.29962427823140014 -0.44189987120558094 -1.153296348019246
Ni 1.7339363737444462 6.526641289060909 9.197402849987899 0.21294673423749774 -0.7397819699348936 -0.48078986340255914
Ni 0.10275575929836754 4.768196534631383 1.2082307063430593 -0.0970599156694909 -0.12257837165556952 0.8449516591957125
Ni 6.314091050095237 1.784008131634162 6.964510831704596 0.41386276256270654 1.3261379867057421 0.9453879475366042
Ni 3.269298958141275 4.2360184184971965 0.47644905212165317 0.220495236008717 -0.03252034122520851 -0.3017359252577642
Ni 5.967096382868144 5.460779207059494 4.6603262964792345 0.04707149956650603 0.1873082077337871 1.2213670755452386
Ni 5.2715200451024895 3.2128701699414113 9.213107870826459 0.4781714519431055 -1.7299600772029948 -0.21587470651757013
P 0.1655956801939969 5.325505208885261 12.302444260272804 0.7917820171512686 0.013429643142344613 0.5025287977415474
P 3.9694289133631346 6.109556981265339 12.640838451599443 -0.3204666688980481 0.28401125428449153 -0.5443914994136043
P 2.499611369142849 8.50606723754829 1.3719869054260347 -0.18233826532302147 -0.5772733377432897 0.5022223222447222
P 6.396002061921309 7.990363297834869 5.793216725729562 -0.6970589771450705 -0.645128092603734 0.4729076324410049
P 4.868601545274637 0.9370984042299154 12.574270876334714 -0.49750691904692385 0.6014401647974804 -0.0025433352471440065
P 4.054017993277311 6.1697549023299425 8.188647639419429 -0.9106585144752188 -0.16676920724017083 -0.8887133776626952
P 4.8005227100383046 1.0188921942204814 3.673822495409136 -0.8660760998791536 -0.28693742679235096 1.6021878200513116
P 0.25887089811918823 5.5087950742957155 3.5531976198474777 -0.29804716355226735 -0.3097302563171504 -0.5487047820769776
Ni 1.4144347354757083 1.072615863139431 2.6312947723248827 -0.13033616122411745 0.3557892554587421 -0.10198434955430179
Ni 1.7846032578759632 6.6186694469976 4.64177098162502 0.7653312791589076 -0.8741611908801332 0.49976100518842326
Ni 5.967583304338709 5.701886488567348 9.10504737261822 0.4523483202324145 -0.0855136055927882 0.48519364889720956
Ni 8.627770553996605 2.2611010021446725 10.290990601205829 0.3201056860142036 0.7726023588990242 -0.1863918665671048
Ni 2.383336325384901 5.233071283056433 6.8736206272787435 0.25056197348711046 0.6030257641170453 0.6031198664927484
Ni 0.6959379220428703 9.010148181418053 8.932254271724137 -0.699603340833479 0.0656862864542159 0.48675996494306484
Ni 1.5827202059413605 1.1014704688025123 11.318750176429146 -0.6082607872637396 -0.4439230722831968 0.08648316859490912
Ni 4.042431065690731 6.822572321328618 1.7280924143912455 0.4880609431426756 0.7652232928261338 -0.9586239866109038
Ni 5.528326035503913 7.950228344770377 8.098495932557267 0.3257700833888325 0.659166058754039 0.06743155128009677
Ni 5.306731681075718 2.885226122637122 4.742519542416949 1.0172510522254932 -0.6851174885124782 0.3026340115920013
Ni 0.8674893731870125 7.410232433914349 6.858126605744096 -0.28757737436919506 0.10109526208112911 0.09839946041652085
Ni 5.081530500939638 4.4675135094935365 6.979040929068812 -0.08891903172991138 0.8735454116730053 0.16669310258659678
Ni 8.147665984020012 7.085771410297269 9.079945669104193 0.6041501075294756 0.5427434222872202 0.7309615434297864
Ni 4.350444964079854 0.5273449696856208 10.458333788455295 0.5303481339466608 -1.035117905203585 -0.43459999511005803
Ni 7.983357038897302 7.092597327949441 4.558693161682447 0.2531019663001447 0.338391628807585 0.0364574714960856
Ni 7.375273275740672 6.33471307608007 6.875850547272645 -1.0703062801792598 -0.7370627712315178 -0.21486554852676545
Ni 2.3550227435780027 5.229455440284279 2.504362460306561 -0.7195476451658898 -0.16233559694884947 0.6260422796168766
Ni 2.2975119076657737 5.192900261734862 11.362711069863277 -0.03981070423903466 -0.10420449713407215 0.42036559667823087
Ni 1.2670868882443296 3.4355465720819716 3.8276905818139437 -1.3681102173724695 0.10257004685444271 -0.17223588678169693
Ni 3.5561047213680332 2.644263114157584 2.7071264794203147 0.07213101363829513 0.24017780203930894 -0.965332251869015
Ni 1.2930379992125633 3.3893701859567718 8.160853440514465 -1.6516918403187102 0.3835682253442233 0.1454370214212979
Ni 3.5852478730877455 2.677662320212601 7.129861247750457 0.5005894146269895 0.41757697818950024 -0.5098047625776704
Ni 4.174197425864045 7.074265636289114 6.121118661071965 0.33276425531847853 -1.3455467302496569 -0.9590027101065614
Ni 0.7293614741714151 7.215716323488102 11.449140532594901 0.29883032157519507 0.6760648913919066 -0.6506073705507505
P 0.13830733859456468 5.599082938828351 7.880172067339696 1.400120451730479 -0.7309972817637281 0.5109028807378556
P 8.49133335453158 1.7176154874162657 8.109449862232115 -0.09726020460575507 -0.3469960826471443 0.008308776976011498
P 1.7421869875512335 3.269154685112959 10.333222923419456 0.599590256072935 -0.9518784403569542 0.43407291896199435
P 3.975605602387888 6.024940850158353 3.8728254970159917 -0.607395868160283 1.7330770255654218 0.3921384835117376
P 6.935015112771938 4.015713504259571 10.350155166705123 -0.4811606164784165 -0.14629525565653514 0.7971242552997885
P 6.464585852756746 7.7544408282821005 10.19201028671719 -1.6090459806237254 -0.015099574645599802 -0.19357192925531178
P 2.4807566877548792 8.46335340410266 5.768959921137608 -0.17619667120165783 1.1077371713322082 0.17182348183462665
P 6.9423459860232155 3.8894926386121296 1.6639792840207326 -0.5944837880843051 0.46542546513134686 -0.30357323557681914
Ni 5.202800998303007 2.892340586345926 0.5949549175799282 0.4018035174053273 -0.24378583110554145 -0.4484001342179439
Ni 1.584217038610133 1.192470681412455 6.907682587557584 -0.5739471015835342 -0.5744037295049784 -0.4967810966244928
Ni 6.764484393303128 0.9382525884564387 9.407531105490726 -0.7778540942162668 -0.8613735521971616 -1.4807584743985207
Ni 2.6121984336144846 1.528554700873195 9.085185485151323 0.0622741754488734 0.7833302868394897 1.031408831783114
Ni 6.383928212864164 1.8475694176713684 2.5268239674024158 0.6911176719599711 1.5022451835173871 0.5614692808314976
Ni 4.080392906266222 6.823960949226154 10.273715709477914 0.06108504023677867 0.5798668095020788 0.8379729138850344
Ni 8.247061083465058 7.045077399248054 0.14695921176135424 -0.8572019373179753 0.39690685143465837 1.221927833144715
Ni 7.539140384714164 4.020871265021847 8.216256086800437 0.690865703850165 -0.8239352048450456 -0.9220716414081669
Ni 3.114061179673897 8.355770810300715 12.339238391025367 0.13835723175638107 -0.6310626156496035 0.4323839612953457
Ni 0.07940787478479988 4.763011722676299 10.126432785109275 -0.11366872787076554 0.17613547894641923 -0.32338564231705597
Ni 8.622684929748488 2.367610565298522 6.001998733536922 -0.09595819796487991 0.7085381814292635 -0.3722957377541975
Ni 3.559179540284006 2.553758840082476 11.594549711008293 -0.03325927627376207 0.6778880606435744 -0.7071227891389757
Ni 1.2007122781549726 3.1567659960552574 12.62060686449749 -0.8386473142442396 0.6845402758527694 -0.21450225165007578
Ni 3.001293773916867 8.383886016693681 8.04673618023626 0.8000100614880158 -0.45038116920371474 -0.25542650066826333
Ni 5.66728801296446 7.643990808042386 3.5195315086900782 -0.2827020485547647 0.8296093724116873 0.3189407191718249
Ni 3.004413678154188 8.315157952829928 3.5395782459745035 1.2739499918482768 0.44158413973737504 0.08365341245559788
Ni 3.3784505211261493 4.392924353854471 9.362423241481487 -0.33693715574924554 0.48871194646311317 -0.6302953984662758
Ni 7.2670414533113075 5.986185507927127 11.449655406964704 -0.7470157686791715 -0.08703055645794688 -1.1197079705408393
Ni 0.6465568712762144 8.952898840369645 0.39236132098087234 -0.4564973094037816 0.35463765835280214 -0.502259860350877
Ni 4.6438422012877725 0.5471653786568768 1.601608250467128 -0.6072955951369927 -1.9464374503015704 -0.3819178342249938
Ni 5.882408115247001 5.553186081695512 0.37833076897719903 0.5396172179534126 0.6328546745530198 0.8357476240989413
Ni 7.99847865567761 8.829464247581544 11.241453196389886 0.37195738057817235 0.20663056221148282 0.4980237107823423
Ni 0.14590241182894387 4.987284145192598 5.71397927345946 -0.33675615008669096 -0.8322527235718054 0.03196164050826108
Ni 7.8871720143322745 8.925892732881854 2.5510942975907756 0.7351329011986565 -0.4898599440246273 0.2851312268215476
P 8.574019833884847 1.6658034361224954 3.7875971072450927 0.730355020194039 -0.30623432734875 -0.6312989000301257
P 1.67288183157422 3.125774346160254 1.6193583414820583 0.4708756896126407 -0.1630670757982353 -0.1455702045650525
P 4.586033802254644 1.1355820229348361 8.246240530616513 1.163799304433099 -0.5226654205904224 0.3318931655674348
P 8.618077209906664 1.5521974433883823 12.438007706210092 -0.5576635339321622 0.1422866487177743 0.2633781514151722
P 6.432773650013199 7.757605817840769 1.3566380586261295 -0.40680868392940267 -1.042643781266985 -0.029490296149633083
P 1.7957844175704072 3.2872970184236214 5.992378427667566 -0.17416884213835165 -0.24794459046892134 -0.21075204057902414
P 6.90763028858482 3.939347986959372 6.023498119875199 0.19360226827261498 -0.06708265258111028 -0.3804168241994351
P 2.2969979350024 8.316753973205667 10.273254035787303 0.37974808026718465 0.5146659473247137 -0.12158952537973898
