# total energy = -381171.79515481077 ev
CRYSTAL
PRIMVEC
9.24529756591677 0.00000000000000 0.00000000000000

0.00000000000000 9.24529756591677 0.00000000000000

0.00000000000000 0.00000000000000 13.53142751671508

PRIMCOORD
 96 1
Ni 5.2341973538970805 3.1089346275608265 12.727322244972305 0.04238772093759151 -1.7807519630438817 0.8789622118132023
Ni 0.9914194603965992 3.7969234292152576 9.95827803074888 -0.19776077052567875 0.3688478884149131 0.4701048728848871
Ni 2.763142016400724 2.6764858444205184 12.99251065579183 1.079106394969393 1.6356088187139186 0.481605417325319
Ni 8.831949342488251 2.5991304415656824 11.501131402009126 -1.503512737375901 0.04370078332206022 0.6762636376662741
Ni 7.702719479921916 -0.11362655338430813 11.893217990546427 -0.5604076723362026 0.34199425855717874 0.7157858641306124
Ni 0.4929869901312805 7.9635200726232505 5.281817106913025 -1.5453278736394742 -2.468499175869723 0.5327623998151082
Ni 2.8091928424578456 6.513210278690165 4.937537026397963 -1.3357233164013318 -0.13791757311580116 -0.8611598935244589
Ni 5.770544788559159 0.8201068742511163 12.815478928711007 -1.6883981946008084 -1.7672295030774146 0.4118932975411616
Ni 6.839846633759049 4.6645760941035865 8.432243704411968 0.8119659482983114 -1.1430283904343348 -0.6406584868681547
Ni 9.062295925747275 6.283251997919478 8.808377532386817 -0.17364819374819127 0.07922468726028291 -0.12038470643836041
Ni 2.495592356640224 7.940212678025779 8.565691250766335 -2.0117231588832576 -0.04596438254525632 0.5564926535525125
Ni 2.9773740463938227 2.0481661918069753 2.754525399278612 -1.0368171472828789 0.4184688938761503 1.0237770262694692
Ni 8.106618784872223 1.7590102721598078 1.8797316667238457 0.12689371120147178 0.6240612446311059 -0.7251986728040801
Ni -0.19821270328979168 4.360387320979431 7.190275761535824 0.8292720436769266 0.14460346977640903 -0.30787649093786335
Ni 2.1179034696525627 6.921528835769624 12.640247261022536 1.283685988189118 -1.6163409716232422 -0.5793729005847956
Ni 3.930490239905328 1.683855250072206 10.970307107978755 0.38358648017666835 -2.647987373338459 -0.4558774164315955
Ni 6.257050825254173 4.703082757530192 3.4387014403094827 -0.49712485311715676 0.686824958121888 0.003420081425142497
Ni 1.3267648855610086 0.7490521415343907 2.057994867410534 0.5224445628288679 -0.882520361478106 -0.08781371448087456
Ni 4.1613638051128055 3.339891400444376 4.1131070511100445 1.9323873999664072 1.5425138012294466 1.3905418069031084
Ni 1.3295939465474529 6.158985956354776 10.725131067784252 0.33336537923758713 -0.5750441913024548 -1.0914001247350817
Ni 4.597242593566744 1.1033245394159534 4.073379083904652 1.8322994961038703 -1.915230942791779 0.24095504652496572
Ni 2.191764150112379 8.932880253563457 6.3789990707754045 0.9440180637722709 0.3052647643466291 1.619865182726417
Ni -0.2148718045691187 6.479076640906006 0.6115782681878783 1.3239908584557523 -0.5326153327142829 0.9722431200562351
Ni 8.407423779169456 2.6875432200407388 8.848172990262801 -1.0643490341545603 1.2242320557978594 0.12554568181400957
P 5.724392264231283 8.51100809058162 3.7110614282766714 1.0530863167565478 -0.9052597120571506 0.23564520427627805
Ni 2.7175442099133265 4.433240264029044 6.082998857506456 0.7041683344963421 -0.7313806332450759 1.6729764607290993
P 9.393961722569838 8.81521535430046 3.369040898431828 -0.011212066665735529 0.3724392053105973 -0.422773177678459
Ni 6.436058272376838 1.9315182752515234 10.855194835311696 1.3282630034685445 -0.4857595487030085 0.9018141767107114
P 2.6497114633200516 0.5118057928695401 13.45163212176185 -0.4091679281901986 -0.7569137445191738 -0.33642679177173024
P 1.0113893026538534 3.3915541219876797 5.239504154571 -0.7339792472101876 -1.192913705300552 0.7047743435114572
P 8.259905814791333 6.973570614503922 6.934125553397174 -0.41406022328549336 -0.19809989903265238 -0.9010870687366997
Ni 8.10253236344736 7.169848277060175 2.812547960863011 -0.21909321345486782 -0.31910269867098595 -1.1700949076338236
Ni 7.510204653383581 0.711167686618858 4.030578904392739 -0.9225609223397596 -0.13617616494466225 0.02046289584004218
Ni 4.3047583668767 1.3099014632104384 1.1984854604204402 -0.14193517891562651 -1.0310005406011018 -1.932114863031311
Ni 3.1066233032254957 8.412536428599207 10.936735584272947 -0.05191365815015576 0.46869436569060563 0.41970328050388356
Ni 9.289767221533145 8.832679720978216 7.498575918387667 -0.09116077657623654 0.46874321665067015 0.4664577630506031
Ni 5.265122873503801 5.191918609155218 13.2392704154209 -1.5156434592011638 1.7538052592517086 1.4376490448035562
Ni 2.0655103696192945 5.288319324533176 8.451580243801342 -0.19706374445865416 0.6965205881430971 -0.3928655914857492
Ni 7.1118247909460415 4.138925468465418 1.368663648582143 0.8236639534615298 0.1969148775856157 -1.2685635307253829
Ni 0.8280587544943868 2.9111777174299616 2.4746545317513338 0.32873456533379514 1.937058837300148 -0.5649436125333431
Ni 3.7153336801780963 3.8151274196803198 10.934611014943911 -0.5108787123681395 1.43884023689818 -0.6459053370893909
Ni 5.229870554741343 2.9083116752541525 9.321853950485936 -0.5975230891312612 1.503264883031153 -1.5089205386550335
Ni 5.8646526701964685 7.010635011545279 1.3981885056416528 0.18162221309260332 -1.0375038889372585 0.15179458820820954
Ni 4.923296494903124 5.665333304814921 5.45947104250492 -0.6810877985277948 -1.175894030814104 -0.4893938030214862
Ni 2.3769659464537294 8.675435703797023 4.046505778122633 -0.5288926324470569 1.8957301537546898 -0.01266294017964916
Ni 4.251810549002952 8.074038357041406 13.517787771417408 -1.060677241729928 1.191811987595941 0.37800332966193606
Ni 3.8757950608340703 8.251011838748981 2.4898094231532273 1.2402279170054835 -0.33060709976615965 -0.5941302613996283
Ni 5.396452322237272 8.988999208425279 10.565595141392144 0.5284316336502383 0.5150032760594743 -1.2317530467652527
Ni 2.9488430587985053 3.0017261595908638 8.891554698977485 -0.5438878203043085 -0.8800441320234714 -1.2312529672003827
Ni 7.913623202872139 2.3276145492457556 6.30477874824901 -0.7215369076817767 -0.3667948625406264 0.16137040482210274
Ni 0.7632335031262435 8.507494877591919 10.228365524629572 -0.5906649285588472 0.24241723289278896 -0.9405362758712577
Ni 5.382279281413026 7.155952595156169 11.801353018044122 0.8175992353246887 -0.7713258061794458 0.781301429334919
Ni 0.6150785377613025 4.697027087771625 12.887859437066478 -0.09665059604621419 -1.3265048831268573 -1.9631005127795482
Ni 8.77498906556837 8.92233136929701 1.0962333963551598 -0.719588011485522 -0.7204395608525399 -0.2466672664183945
Ni 4.301124965021561 8.025343375944667 5.562390617038244 2.325642513581091 2.1718848881092403 -0.13500708433722555
Ni 7.22557892943366 7.004394435839887 4.818919861508809 -1.0559325279560912 0.2143073620304503 0.7996341662058357
P 8.965599360854394 5.098661294873309 2.493991071140707 0.03441190182096654 -0.2844768810670004 0.046446464387997426
Ni 4.369364504697854 4.930378392666578 8.186432512290118 0.20846890097180226 1.0429713398097327 0.1970984543513315
P 6.337179817311405 2.8852354130902143 4.763968587701197 -0.71626486064956 -0.42514270635190005 0.2944787294747187
Ni 0.7089367963703972 8.737749007877529 12.535460136426265 0.5091154498201297 0.26731116792099124 0.3205466302063641
P 3.2155698870956275 4.984398665031919 12.521021755568325 -1.0666524854767565 0.8376885498753961 1.4099271534082556
P 3.4514636487594426 0.8381342795369588 8.735145532146213 0.13991172072769453 -0.5335812961719777 0.23194975770256182
P 3.312183244312436 6.646647655217456 6.95382728203153 0.3533639338467011 -0.7182551516067114 1.6672439291206966
Ni 6.061438824106495 6.630496120762167 7.148964074895865 0.9791976969971975 0.17819416124766085 0.6108028369593028
Ni 0.9117536577361669 1.3913802686795038 9.068072387526131 1.5884730415683803 -1.3108036703415167 1.6421887859242814
Ni 4.010397344826369 3.727380302613838 1.4358335073560453 0.24187113058133183 1.4280297765462373 0.05393968744124904
Ni 1.8749185649279538 7.815697013432863 1.0536625002173112 0.17307329508132774 1.1556190826151518 1.2414368497119201
Ni 5.26238626549077 3.371436354972965 6.753981859231261 0.5344940377942343 -0.5312701315402979 -0.732264578511926
Ni 2.9127863991673517 1.66107483742319 5.408781850771657 -0.9055317347716147 1.1749990298036603 -0.2774084042559932
Ni 1.8862348088737313 5.315241630391104 1.0937454868406102 0.8220243609755779 -0.46288752920084153 0.925471154008019
Ni 5.935434666641625 6.232828146219911 9.788295842890815 0.433988329667988 1.6163797952809775 -0.8949238773487812
Ni 0.7532633744733627 1.7693834957767702 0.04869867921567629 -1.5443307998335274 0.30619884612512427 0.3721466137708429
Ni 4.703249172882335 8.102365948095215 8.30063782128799 1.0755497879663862 0.7631653818558405 0.3298913046460577
Ni 6.303739576827846 0.06950706994178833 1.6590205323539484 0.04240083356371407 -0.14540256863893666 0.2130421221647815
Ni 8.347384818234914 3.319181934399816 3.9786998428916482 0.14561648442195566 0.36065403975021115 -0.007676028488019039
Ni 7.210425887091234 8.298338515839205 8.966951947855428 0.35662357843457937 -0.30399103984052805 -0.12112132749406883
Ni 8.43284834685809 6.991719133184936 11.055947221781146 -1.1316299187894059 -0.8429798801813224 0.5862500873206032
Ni 1.649934254126898 1.51778197393005 11.375126320014523 -0.12914805445328725 -0.8458443462133111 -0.7427677920360949
Ni 1.360796825074413 6.717854935340314 3.157179362677044 -0.6572863252328228 0.10464955509129074 -1.5722768914244922
Ni 6.848953251640251 8.829674999342286 6.296605905399282 0.0033694306928651646 0.837718631782383 0.707517196363917
Ni 0.42159018141292603 0.9858630366944652 5.143038722111652 -0.0717520330323216 1.4095088349239144 -0.764078123478097
Ni 6.583724161512422 1.4003019806138792 8.4192808730097 0.153105079489517 -1.5205133856989554 -1.001279359387585
Ni 7.07619341499259 4.86042847298214 5.680235799599397 1.2261994639368754 -0.9326015944052133 1.148031757186197
Ni 2.275258430401853 4.5352621201905245 3.813927380085416 -0.01776092352784683 -0.5181726749263914 -2.426506633488021
Ni 7.402469203465162 5.466226581272224 12.710163897636546 1.381187362271402 0.14205319255072954 -0.12473629853883679
Ni 0.4168454948173599 5.496227571144812 4.887551401792374 -1.9662560276893941 -0.3548934831173501 0.6727409692249963
Ni 4.732344123615473 1.0148562891568491 6.814630085260595 -0.345549837118921 -0.34416889761099434 0.630209780731005
Ni 3.690556283303355 6.1034587005228005 10.233561381735397 -0.4765174612794503 0.4606056751452003 0.45584167809765364
P 7.470283459463754 7.582068349617672 13.388061457242927 -1.902092605637608 0.1207775710014049 -0.2972709475078751
Ni 6.2052771601427725 4.378166027766792 11.084106548423346 0.15720418925955507 -0.3571635100984494 -1.0841061621768295
P 8.23414841639841 0.7348485912289187 10.08057482397988 0.47564765707998724 0.5347241515271693 -2.0908971954112636
Ni 1.26590309316309 2.0465852459616096 7.055082703043416 0.011176842552425912 1.1599241377484086 -0.8639582822052024
P 3.575295161349101 6.008833082234376 2.3044153246271777 0.1898551425253569 0.0874812708421203 0.18701278798055532
P 8.22021575330504 4.772783054186413 10.292503850405256 0.3629862874278136 0.0660207869754992 0.19422421812733
P 7.157912598192529 2.212011351289873 13.415313820215939 1.7330541427472865 1.0068347419881758 0.505624920168368
Ni 5.883161755473795 2.376235567963765 2.44139457456593 0.2514626309245089 0.7667091333430409 0.9833443721757194
