# total energy = -340874.0498083082 ev
CRYSTAL
PRIMVEC
9.17662585079666 0.00000000000000 0.00000000000000
0.00000000000000 9.17662585079666 0.00000000000000
0.00000000000000 0.00000000000000 13.43091952019472
PRIMCOORD
 96 1
Ni 1.019798449046211 4.931711529603741 8.512584250308596 -0.1490918445650658 0.927064723747384 1.1850512718333397
Ni 0.6181916704634405 6.337038390791853 5.645565855623081 0.9832638966467712 -0.30561032061150595 -1.002424785845938
Ni 0.9148903427802055 7.925246231832767 4.065928983280171 0.2136051937571031 0.3392511485944028 -2.9870996823621527
Ni 4.904704719241615 3.8547610537361514 12.38165625231513 -0.31128731639162516 0.28266888132398416 0.24309986078211032
Ni 0.23338729411412285 3.999118557578012 5.908006347700672 0.18838344307583682 -0.3470199939065443 -0.4287427649983326
Ni 4.493197278851269 7.810373227377079 10.617477430810704 -0.48419940330474026 0.27854097519853965 2.7045696406088773
Ni 4.242326676853381 3.2580601237372235 10.025738302498082 0.5336967387039195 0.1865096230918917 0.9640176468226495
Ni 7.679771485931694 4.627414610946561 12.561764973448803 0.9650283474753509 -0.9043474846555264 1.0670463784810653
Ni 5.957988676616536 8.504768517931627 5.039106501519809 1.956741917551372 0.6378248740741015 -0.9124104641693189
Ni 1.749551279636527 3.0698475241697105 7.441172785903657 -0.38224307877489655 0.033655226160600106 -1.4471942652898302
Ni 5.3298578025162575 1.839234445681057 5.934438701274259 2.134305130083253 -0.40024465755863975 -1.6291723190599554
Ni 8.997975459733459 8.796117217281651 12.32286895073788 0.5605920204328667 0.6223725440747733 0.43306633207435097
Ni 4.018701477494007 4.814608605026411 2.514187218697637 0.9837706610798606 -0.6791293892498432 0.5485870255521906
Ni 0.649230690296554 9.095697350167123 9.6173307263756 -1.0052529993233528 -1.2213300516597159 0.01450950647008469
Ni 2.5699783518809927 6.634874964734476 2.3230518637443485 -0.033131235336330035 -8.124685989663426e-05 1.104759833871439
Ni 4.299432820544684 8.52092855634403 6.60250625179179 -0.3070776491856518 0.7909808614062119 0.4372590299994599
Ni 6.630149002336755 2.3036726649258856 12.693884528837069 0.9933814446967474 -0.17442363846163508 -0.2940192733397968
Ni 5.509894028304412 6.501896477151209 0.7887209117000619 -2.2213624260140774 0.32284236821907625 1.1648740255545165
Ni 3.2634651564600548 1.526403264829934 6.125466689703173 -2.526643902531255 0.040341637041840205 -0.8197283658525495
Ni 6.432567067607932 3.5299635525614765 4.071140389194086 -0.5095525373575482 -0.525485920758353 -0.43141362696227636
Ni 4.512229601206365 1.470912207317269 0.1844841364176218 -0.26589911806481303 0.7390335218046434 2.51597639551508
Ni 4.068888445170006 6.041165614816437 12.394616401236105 -0.3165683622849064 1.5881709369469292 -0.5462601771912269
Ni 4.256623860184741 0.9388422543419396 11.522909425157254 1.466910769882151 0.27728704818678046 -0.4177369008061321
Ni 6.516725904791437 6.487929652356388 12.00940458269172 -0.2935503041231783 0.5241270927376134 -0.3809528992085633
P 6.484424181218661 3.8082263832141203 6.147466732911519 -0.6111867026612829 0.7522605620178786 1.1262691686981248
P 7.563567870703833 8.011341337105433 10.945809768326354 0.19558484592028252 0.258729082678935 -1.6006662412004626
P 9.09370602232187 1.7034937936672754 8.197078082974102 0.21364478874578688 -0.14354957459059794 0.10590116811020471
P 1.782752312558773 6.948192506764395 10.331305266195738 0.6434890143384143 -0.011944059735753623 -1.4174645994358814
P 8.616099344745527 5.983187691653709 7.453300614845072 -1.656693921518992 -0.6225126691970634 -0.24605123010095042
P 6.120626019480264 1.887797150552402 10.565500103399179 -0.07980215703030771 0.6945752914912683 0.2677603396432679
P 6.242987150764185 4.381618683134964 0.8265983532395484 0.06204020506119638 0.06258527893138899 0.10770762519132418
P 0.3033453025394246 5.286287182197069 0.6780985204145201 -0.2763586228352402 -0.6881495904705827 0.6425053102689063
Ni 2.179090790146336 8.054627482018157 12.154687090435893 0.9187353779460822 -0.7369270169846018 -0.8452378229775637
Ni 7.715477737756034 5.607560858981986 5.297477159959752 -0.10899909030923809 -0.840182005721211 -1.3535577734795914
Ni 8.104208792377166 8.016269185275485 8.235490521810263 -1.4497777097462903 1.5988669832081948 0.9093565078343435
Ni 4.349885910375117 3.826809050894482 7.011477272751593 -0.20554401401552344 0.12354587777516142 -0.8144478341799005
Ni 8.61709959698116 8.620595891492872 5.720457218194044 -1.1773590453954046 -0.3834209011330816 0.9609672900321
Ni 1.8079972107260198 0.5840197505088082 7.641481096221533 0.03134637552176537 -0.886357732946325 0.48216566070416317
Ni 6.895573733194422 4.147926725037144 10.323985071623579 -0.08386450002513944 -0.6156586223897075 0.5870039347674924
Ni 8.831685819715764 6.480413995650109 10.001643235570516 -0.9450992126515917 -0.28922390883368254 -1.4725679681679285
Ni 6.633250701929822 7.017531092933684 6.770553215691356 -0.6354756571156346 -0.07137922307393513 -0.3595790615184775
Ni 7.966017981217382 3.8261208039433567 7.976113187496476 1.0909938904355985 0.0958458407567317 0.3747709387675675
Ni 3.0614142048619315 6.994470231758006 4.829745449638142 0.59986819232467 -0.6504227653437702 0.25160121338490216
Ni 2.5121105482304444 5.31995622304608 6.457076000368778 -0.07016771926433721 -1.0900104434764066 -0.06731893696163245
Ni 5.511086989686361 5.893651351625419 4.933485371412439 -2.303873754445432 -0.5593548055916561 0.5806239993830775
Ni 5.840344331104323 2.3600538551620045 8.383446180712602 0.7102510503553122 1.3570066512601404 -0.8013226096518522
Ni 0.30033812219431133 5.752450607132716 2.9080360776473326 -0.5917771877864195 1.1514790923048492 -0.060919204082875725
Ni 5.950931851211006 4.871402743433205 8.315351027368344 -0.37543351205223086 1.2408341831309146 -0.39710714037092254
Ni 7.709338574952003 1.0573124961955038 3.789654727484977 -0.3164986853892356 0.0011803934613463542 0.8538746727169553
Ni 7.690765083897656 6.974024708996601 0.6051984856888113 1.7280726303722949 -0.4429766492095274 0.03499322824573328
Ni 0.08815525781303361 1.674651658102151 2.0190302438676184 -0.13598076110440452 -0.7971404532497045 -0.2978160213780678
Ni 2.355107653739923 4.924682234076256 11.092395356964653 0.39279051527343967 0.06502731271397832 -0.7280844789923074
Ni 6.163012855043518 9.14878413166386 1.6335890096728605 0.7653729310301206 -0.6579578973785508 0.6244880477558794
Ni 2.0492965917902697 0.8307204936454835 -0.0368414004623938 -0.5518559261114495 -0.14173488997936237 0.9173456966874073
Ni 0.9421366630813222 7.427634509543737 0.839114353461398 1.2075260558970882 -0.32217233873524515 -1.5929506177237598
Ni 0.46190914111509623 6.012378539007402 12.016334770658244 0.3014916704574421 0.38875156931737564 1.8840889699713357
P 9.17072544446571 2.8073042538807504 4.083389349598899 -0.8854467910962814 0.1877604647798573 -0.23420384384406115
P 1.6449193898135728 9.28546079953117 2.12769984913717 0.6548517476494012 -0.9315574694114149 0.3056316607677446
P 3.478060555820674 2.302030048869202 8.271431695260585 0.6358973180340854 -1.6688881495923384 0.3571401130596817
P 4.859436423109654 6.852250881777639 3.098392337051948 -1.2929676706013602 0.7815690811740088 -0.9309882271715063
P 7.700639133489789 7.7315643631603175 3.829356482276244 -0.3532963138335593 -1.367877275426057 2.0703749070881954
P 2.720172189868389 2.7469771144581845 0.7899166260698155 0.41395043718050645 0.8530933144662405 0.11723124841104325
P 4.222688697181295 6.447396495248163 7.090611907191888 1.04350947170139 -0.6908991281912616 -0.45291447714852967
P 7.93356025500235 0.9588105925505651 0.4335955792084358 0.18588433080306696 0.42712271289640635 0.7411978764458139
Ni 2.764871535187421 4.999086317805822 0.4816049335310765 -1.6973374060719673 -0.9305467687587134 -0.2543875178807877
Ni 8.726439095949805 8.425436586032008 2.2573481391395975 -0.9912168329452608 1.4837910905772576 -1.5865562841616416
Ni 7.597897628625923 1.9743602637518343 6.489162073230202 0.03078124704691473 -0.9931461887574895 0.40605097982777166
Ni 5.839344078868688 7.201366441892046 8.87425159948631 -0.3307829632223916 0.1290999748241712 0.7128113548833208
Ni 1.7519280257744103 1.5345979918613226 3.9018967932621647 0.13898509514836707 -1.4428722408757089 -0.036539489686930625
Ni 0.44171322258129886 2.898639212607979 13.367781072199323 0.05731683144359807 0.5578648513096908 -0.17401329039709387
Ni 8.1422367305833 3.851448291744739 2.368677130628294 0.01357053959558308 -0.4217789320859897 -0.6839368379408156
Ni 0.9880564996603489 7.412860141659598 7.659841689552332 2.642616853055165 0.5961079539512895 0.7007842485154576
Ni 3.738750147654605 8.565783904305317 1.6480412779838736 0.14016574572002957 0.43078987733534835 -0.12121671542135254
Ni 5.224620255376313 0.4069714341511355 9.237679025533703 0.31507403712756704 -1.5013422120871434 -0.46926386504083056
Ni 8.378076019168628 1.6107364579077226 10.673793467002115 -0.1633468118221832 0.9385948358741707 -0.2283209027007229
Ni 3.659610924901303 3.529587310894862 4.716831654836657 -0.5671848431590361 0.7963819778171253 -0.23479082669578275
Ni 0.5353928092553585 1.524788178651295 5.860541167300721 0.46279651214893197 0.3084539607078881 -0.06369008195979353
Ni 1.3986462774491963 3.6083319387295196 2.4361134022246755 1.3536351636847461 0.3980749036008306 -0.5401491791974826
Ni 3.9184101317761453 9.068919955455373 4.118322929512775 -1.3823746977112836 0.282908508138616 -0.38033712000143527
Ni 2.61485205309431 2.748252665474268 11.949932704813753 0.6804632775699184 0.42023189931384397 1.256028888593482
Ni 6.537088837918707 8.937896089213297 12.715226607960137 -0.8751140417117057 -0.2618275190986007 -1.1957182646288826
Ni 3.4888706212663365 5.266043545207993 8.81123387331615 -0.008071978374857066 0.35015365443951957 0.6646016279473134
Ni 3.324370423321566 7.777438316609269 8.663091011243104 -1.4147086339572992 -0.9425695042512025 0.02877064437478916
Ni 1.6508841967233185 2.829979696763799 9.746536703004105 -0.7367897200757891 -0.14075324279238338 0.5579998342256584
Ni 6.792758815322437 5.733262282135365 2.7533255043353564 0.03062903773976661 0.7088806523703468 0.31971873498843
Ni 6.23759129466737 2.405358857798027 1.778562265120327 -0.10791202789264642 -0.06743875036894838 0.10005627929365349
Ni 3.63597193628668 2.0661999369098876 2.8547015272481913 1.4222792472157053 0.2364304191817347 -2.0393470912481138
Ni 2.9621414646317334 0.5562934926671074 9.8117164422634 -0.8351362157671874 1.005581843417681 -1.0539977728272234
P 2.087664065158957 5.034049262922946 3.9805615844504922 0.8426505218663617 0.7284133230866359 1.1196606622426717
P 5.53859851447931 1.1183370591952095 3.5061951735200423 0.17827206567344783 1.055756664499859 0.2131241403556265
P 5.145462679370981 5.731894964859131 10.545461105170238 -0.30449291917761107 -1.9453650431729983 -1.5858242910916236
P 6.389785637126034 9.393469687727643 7.306930676918124 -0.04451068081786528 -0.4616189469010631 -0.24568896166552526
P -0.03686984800304028 4.154864254304479 10.683194920354476 0.12197493374361576 0.30312637784738766 -0.25933946256942436
P 1.3641880467628964 1.1412510943546479 11.242768139159342 -0.23367779613726208 -0.49355204816423387 1.2600346673187652
P 4.298405038431005 8.456857353507345 12.968385860486165 0.13665079058823562 -1.0616678877779715 0.041269805283064405
P 1.8799970184396575 8.798787615452014 5.589398480773111 1.2631338750693795 1.4709018933194151 2.05674214679611
