# total energy = -381165.5916186212 ev
CRYSTAL
PRIMVEC
9.27800070017174 0.00000000000000 0.00000000000000

0.00000000000000 9.27800070017174 0.00000000000000

0.00000000000000 0.00000000000000 13.57929185938861

PRIMCOORD
 96 1
Ni 5.946901419867515 8.397694528040503 12.419987009483112 -2.2581610828996657 -2.294889034448319 1.0342594138580317
Ni 1.8007949496485716 0.8678474656954038 12.41228719687414 0.02117689118793127 0.3595515507146517 -0.272451317361034
Ni 7.154368238001678 6.702780120015738 2.137108550511747 -0.016666147801771294 0.08910466537815623 0.650342289814822
Ni 7.958436872709492 5.731289966415391 10.752857429534128 -0.726748019569071 0.6961536917219817 -1.071156543994697
Ni 1.942210233159793 3.7452319029266365 0.4843431709257121 0.026468992824806026 -0.6948054052242034 0.6964663378663941
Ni 0.25391289508649145 3.014060518090733 2.1243169712323264 -1.4770892530770496 -0.5887265738855538 -1.7851791455772996
Ni 8.6365288167261 7.380649392020519 8.76501149535041 0.9900202415339981 -1.6603058072399663 1.4337520237419952
Ni 4.757925656715498 0.6968696892139811 2.1627603662742336 0.3776842557596205 0.06936476374706764 1.222553896764488
Ni 1.7484763048696859 4.601127448387218 2.787814620473764 0.8604610676852212 2.23667103134669 -0.9180434940853802
Ni 1.2513424824646027 4.676678206400069 9.241441459655817 -0.8934190106684806 -1.4329364698192355 0.26765158197954547
Ni 4.237949397097148 7.730968134627573 0.5056371098567319 -0.020036606935900977 -1.6424896049941518 1.0516801804376403
Ni 3.557862682974588 8.514588056249261 6.776433526927812 -0.016128787241062544 -0.9420105464239389 -1.1869544023933234
Ni 8.280132983796264 4.42506811103589 8.51197537131049 -0.5013224361382721 0.17049936370656443 0.5043761353629314
Ni 5.978567235549433 6.010863955264862 0.2742484165666053 0.25752606350976937 0.8519520017729456 0.026784724293011937
Ni 3.689127833946689 3.108993019133038 2.9007269586710622 -0.482823091782504 0.7373126824587947 1.3419824099371664
Ni 6.598662398485563 8.80725330379407 3.738908945590795 -1.4740939178941517 0.11564822019463955 -1.3050708816227976
Ni 8.25026710020995 4.573664566928537 3.313456027193017 -0.6259628325291928 0.7196265780329413 0.23815897183706722
Ni 6.214237726066986 1.1160970692810916 5.965463915453455 2.966541912815459 -0.9208596233779366 4.532458152129245
Ni 1.7608160455251067 8.794115655096268 5.438194219647716 -0.8693496284241028 0.0430243260803259 -1.9557949802570704
Ni 5.880183318323808 4.871024482722701 8.965021063173847 -0.6392616065206281 -0.35931398078254895 2.082046686999169
Ni 6.114452830766948 7.333053249492468 9.962135198535202 0.9559086445622699 -1.0595834944451172 0.06960207656885432
Ni 3.962485562465986 1.6796242632126344 6.896243130691456 -0.007790185468380132 0.818551314825313 -0.37650643340143547
Ni 3.9265147545554093 0.5592639527051023 13.664704999595857 -0.7772979646024807 0.6995146377744147 -1.0785016715058586
Ni 0.5190317591681839 6.277476577425896 1.3402275827857026 -0.3498358660887846 -1.0279380996256942 0.9714486491793979
P 0.012190364847486814 4.016836089352794 10.774407441278749 0.8947081617935495 0.7616975390610624 1.8615802473458585
Ni 7.339649907842847 1.7818678286432643 3.060975655382613 -0.018562336383219646 -0.37249756935235845 -1.21781921029298
P 2.6858605286585093 6.874154067118204 1.888580606911275 -0.08874445382526006 -1.2539007865068856 0.05059082557367416
Ni 2.2115413094652157 4.20592173939601 11.75834959934048 -0.6589470007646974 -0.474335366026467 -1.2228251481480035
P 7.482957903454599 2.289782687620978 0.30788209615304607 0.5971261108031587 -0.3723165636898039 0.016819128439867808
P 2.3178671951126764 5.997735584567553 8.150236337896851 0.4596476821073051 1.0551357430864086 -2.251629966649367
P 2.734931873264916 8.271458053335499 11.716253455504559 0.7228494558456131 -0.682941821017398 1.0076698362949612
Ni 6.121411331136545 1.1916478272939428 12.434135960234629 0.9024577238319813 2.557707456705279 0.27921640399900943
Ni 6.1278688194795325 5.909473965879569 4.812419064809896 0.46100316769393507 0.7357805620849844 0.11377928530670083
Ni 2.5565437577898957 6.417500160863197 6.003133525254262 -0.16229780173237854 -0.10509692704135448 1.8422820612378787
Ni 2.182974345947892 1.3279694885346185 2.076694850302895 -0.4226320241149044 0.869271981108632 -0.8559822059782614
Ni 8.281302011858356 1.3240263383251794 9.167284257316984 1.3190849365137025 1.1706222408922033 0.42633261289494323
Ni 4.179099039971332 0.220465703309956 10.682407716192216 0.24016648918539932 1.0337089406712003 1.0003054255100903
Ni 1.74401358663265 6.904817858746901 10.102694122600939 -0.38219268515293536 -1.1976149674309633 -0.698649718670958
Ni 5.584057376595185 2.2772109969532375 9.1623010432523 -0.4158553675127032 0.2897378723556236 0.3770502217200474
Ni 1.9639114763124468 2.7538033262672665 8.132067229531806 0.6428557516297897 -0.7257316624894147 -0.7543105025683718
Ni 3.8086655922958936 5.229962487787563 4.62393926819886 -0.46044061032224576 -1.2065888887947993 -0.22674841600728046
Ni 4.442761257975655 7.2161318872822315 3.4098145569110656 0.9248386626303428 2.1048202332502592 1.163633725389512
Ni 1.788483042994629 6.676708938630978 3.981217845460944 -0.9437470694990715 0.3368093719221296 -1.3572251950288496
Ni 0.6420524789023849 7.900811211648726 11.629834447714444 -2.0926085216754156 1.5374744390333264 1.5682585142937187
Ni 0.08107580730631214 0.7988646042314042 0.8607182501167381 -0.8665304138077528 1.0507173023037386 -0.6860312585759991
Ni 0.29571863750698835 5.284155288665995 5.274224116938504 0.5142900520425336 0.257033440144067 -0.3009309128579656
Ni 0.12114656363465585 3.318917058283078 6.76745706145103 1.6352660906625192 -0.3322250949855569 0.5044789794893828
Ni 4.061110707704424 2.3479093607083557 12.219054280610644 -1.1806441439045796 0.577498052159586 0.27000568403401887
Ni 4.01655774933801 4.349860639041272 7.107374237705608 -2.214747491800721 1.6077421742106375 0.5659483996487737
Ni 7.534756980205888 3.0624545686611655 10.450853874493317 -2.154211124978561 -0.29344257490072045 1.143389116207863
Ni 8.139812504343194 7.550492469041673 0.07065754055294968 0.05363938259201085 0.28397268773707224 0.3802417320741516
Ni 3.849507350465189 7.526054215743644 9.543187086282927 -2.7196702436957416 0.4505855719050369 2.737100523357048
Ni 5.645960195883131 3.955397170089488 3.987938829017927 1.7932760636528216 -0.7668130059107569 0.01341190253053174
Ni 4.5715584608166715 6.329674608198375 12.104838383344108 -0.8097761397358441 -0.21881039210712638 -1.77458234389806
Ni 1.5686872113202532 8.263905760934362 0.5674499325398976 0.8327160363614691 0.33965224068756344 -0.8343947096154727
Ni 7.800182018303842 4.759836924817015 0.5055582468525431 0.8897593024287064 -1.2356413260760655 0.7875566662160115
P 8.407028196536258 7.451162195765781 6.379917764267021 1.4239386371959992 -0.8021813581077217 1.1410362997049703
Ni 6.856414530175975 6.234862721162475 7.495497121120615 0.3082194760995789 0.8667684979604879 -0.060327079024831594
P 4.907013846634263 3.9730903170292535 10.830136679038787 -0.2081832514105834 -0.537604558398758 -1.2796619546313897
Ni 7.617433242597208 9.023792557295474 7.802321525217483 -1.6410940101982057 -1.0352024944975915 -1.2389541924993823
P 3.1528315714615074 0.7629865763257557 8.69658531391598 -1.3195860445198369 0.0011194583164238785 -0.1402297661887456
P 8.037485436908128 1.646130681433635 7.080405873673194 -0.804049264554396 2.036732279333086 -1.3961370416026988
P 3.2156158007962685 3.2590090091010833 5.469779316725347 -0.6820956709670188 0.38491599762136935 -0.3340310378460441
Ni 4.2080185675073825 4.559469226174556 0.3420826615695967 -0.06607529436251847 0.4802931262717987 -1.0851667422308602
Ni 1.192056059315626 9.167332502919546 9.359988327552392 0.2757580131367638 0.44523716310893 0.7610879305015215
Ni 1.3956617801300701 7.8514800830285205 7.494369844060739 -1.1937120328321313 -0.7047231785585476 0.3659327716506472
Ni 2.4858546720352708 5.939961475498903 13.295742114998529 -0.5893395248792044 1.8206696251744259 0.2518578094803985
Ni 0.676198304116028 0.8545762137905062 7.172215399749623 0.9921606849157686 -0.028742362240015015 0.07779772500576924
Ni 8.502684381617001 0.022591003399912962 4.992182179957948 0.4074666292283756 1.0136754190590929 1.2943709787067903
Ni 8.073224294806385 7.1577825421830275 4.311438583400499 1.293716632952243 -2.054317596515017 -0.6046301324896878
Ni 0.1890856500432158 8.438703290218669 2.618617292286909 -0.4073205905688146 -0.07831708784434899 0.4187116060145757
Ni 1.3144885538185835 2.9587543571531665 4.123229704403853 -0.0019105867591515482 -0.7884290415186357 2.6789431982900247
Ni 0.06659377633710431 2.912308686686221 12.749746630798175 -0.3047171193732752 0.23546034195898158 0.18814381626120502
Ni 2.6885697048024064 8.67642421884513 3.0838301539965216 -0.0014207916069265854 0.3409781585878386 -0.014103272170601517
Ni 4.61628770119245 5.308955383983243 2.4124424931360093 0.38483012277578243 -0.11697259543301788 -1.1048649919907358
Ni 5.921247748504929 3.046283013802219 1.7532906593253983 0.5623995059552507 0.893897492966796 -0.7928688224575442
Ni 6.296951100460277 8.000790944959114 6.020541837578899 -1.265036748519047 0.0999305523490666 0.066768206664485
Ni 3.174041080588043 1.3838323295017532 4.442369726354859 -2.4547034076372114 -1.3002168959646059 0.3763884197663324
Ni 8.545947697914917 0.844981833480904 11.66656697946548 -0.5202575824798782 -0.8392109000571935 0.3795025399152819
Ni 5.909464687879076 3.656682666223375 12.582951376938906 2.298750317175938 0.7713389188055683 1.2051855806893697
Ni 7.035043873663807 0.030117317399670405 1.3596269540160935 -0.4246937917399396 0.032593617665305157 -0.6769308389366278
Ni 7.596641243492848 4.486497752298703 6.233506277490428 -0.27182602507220927 1.2145665076836372 -1.8344558803252409
Ni 3.4673836221688257 5.116288425749807 9.698941519555767 1.2691790528221947 -0.6838833589950609 0.6560413970821282
Ni 5.0402552117113295 -0.09797197400374592 8.218852718341386 2.8484254335859847 1.273458139813523 1.269515610226007
Ni 0.9137809905351463 2.0273266096807188 10.381993482635824 0.1276565575094253 1.1093469390214894 0.3960527309644792
Ni 5.941612959586621 3.4937888115713274 7.174849424089529 1.3205039283484161 -2.426346967981705 -0.6976266767230823
Ni 5.273281472088436 1.8104347921605883 4.378235547948395 0.3733465476162151 2.2168537395104466 -3.892366079287522
Ni 3.2202455230421747 2.382516302546491 10.078183500899067 0.5095566511226063 1.3741857341425883 0.1546521122616627
P 4.919251529284263 7.030720325434164 8.053307211148496 2.907167170401567 -2.0051776444552565 -3.766796743324429
Ni 0.07144802619493604 5.817631039001366 12.601609435929921 1.0682774226746892 -1.443408572995153 0.004647011853708125
P 7.674724895640233 7.9384891716499775 11.563052327967336 1.9789361942602237 -0.4988585479788119 -1.7780499907316862
Ni 8.167451667811237 2.555643791742094 4.959930922444935 -0.004660124479830684 0.18609721814482144 0.4677016627600332
P 3.9774880892628395 2.632122349804225 0.9529972430181034 -1.2595533568069726 -2.7486576320670273 -1.4794544108751166
P 0.1408409752807174 1.1970197895792725 3.4430567048767102 0.9472478835634782 0.16169796336485057 -0.7160817981044765
P 4.687904586996354 9.128754576870493 4.912362613918361 -1.1711179495816992 -1.9960047197067365 -0.4594983010136345
Ni 6.518045852203645 0.27687501850611634 10.1021643487728 0.6819362625710191 0.3633102464261356 1.0954727521425585
