# total energy = -381167.3044955062 ev
CRYSTAL
PRIMVEC
9.27212314101361 0.00000000000000 0.00000000000000
0.00000000000000 9.27212314101361 0.00000000000000
0.00000000000000 0.00000000000000 13.57068945744110
PRIMCOORD
 96 1
Ni 0.2705624012752515 4.206873434979777 2.9645443364874753 0.3342500958353856 -1.0534686397966309 -1.0854814452578014
Ni 4.100429463840447 1.0524230400869816 5.033666781469312 -1.3960663362657633 -1.460050295316892 -0.8162152104929684
Ni 7.084569504910315 0.4203155313688238 11.891248226774174 -0.5457333581534795 0.9687898714003121 0.20413839191724845
Ni 3.171019678553596 3.559827609022719 5.942835522418433 1.2217326864147733 -0.4419731476456775 -1.045331355401477
Ni 6.24567418358358 2.6597362764137915 1.5241923631843324 0.9000588845825014 0.5613726073526333 -0.3965312132627945
Ni 5.179546945818555 3.903202137176275 8.12201713926671 0.3907025223961594 0.8937239435034092 -1.6303758524497531
Ni 8.219023016484199 7.078653890486368 10.482963890595192 -0.9294512217016895 -0.4393562788481208 -0.4985939814635155
Ni 0.19602102347207917 0.37244263351259765 4.10772569736741 0.4841803771413468 -2.526175961755901 0.5997409227181865
Ni 3.96884876746081 2.799420808226859 1.5403953979897311 -0.08289467991270241 -0.6815446835595552 -1.6164391877640034
Ni 7.123781312745526 1.13057776419268 7.938486592582243 0.5584094109592511 0.24830531624244973 -0.36384966386937334
Ni 3.0109828369277385 2.48244401403094 11.407860933656128 0.7715055262904197 0.08410901193577773 0.21655270642120125
Ni 1.0609719374206457 7.291449111535814 4.753717282948289 0.09876532839637184 0.3700164548017176 0.5267807283103767
Ni 3.811936631259513 5.557701207050824 6.754660880875718 -0.924003568323557 1.699684823258221 2.6459029800056046
Ni 1.8377069466813463 1.5220467939402869 13.491789104519087 -0.4804728463827725 1.6068965383808906 -0.5296477654455266
Ni 7.662009504095338 0.07238190037474462 0.7262928061429144 -0.19053339953930412 0.12817592034800507 0.6009580829547393
Ni 4.652148594041107 6.648186311730746 2.3805563640952565 -2.172090319251827 2.137513609718222 1.1582477784872502
Ni 6.0305238433120625 0.0782057207817667 9.82976601107969 0.047892452805904616 -0.4270016139375098 -1.0893861796288464
Ni 8.658466010227878 4.577971610668751 11.201762039780622 -1.3960730211339827 0.35593657966988373 -1.2918860075014074
Ni 3.157871808250846 6.322243374669694 11.397573513274674 1.8241275018160392 -0.9896206921027345 -0.7606377303379803
Ni -0.1444513302070332 5.424164092734741 9.048379177749249 1.107048887015932 -0.5105786646292174 -0.199692697441069
Ni 5.429124678497768 8.836518586690296 1.3227592015629477 0.15179870197326759 -1.0755042794404317 -0.5636259221631842
Ni 5.54074249422732 3.0521788790681605 4.150676952376881 -1.2063394917881547 -0.933457257537289 0.03328344464347816
Ni 4.935291411696309 5.177544167267501 0.6743522279610067 -0.470436545192693 -1.522955676591861 -1.1461587085332001
Ni 2.734738478726164 3.2164159923774776 3.336191421853404 -0.8365634351320173 0.319064903454515 2.420657116685779
P 6.916901706120026 6.456893143736363 4.542639259063914 -0.5777109395013406 -0.23778204811362272 -0.22213945648035935
Ni 6.4384138027537245 3.2143575810888945 10.175913831199079 2.0368356376801695 -1.8193565627899573 0.378059122600536
P 0.897522027347368 8.861655311930603 0.19939793064010564 0.015687843048902014 -0.06056619161883118 -0.38223870789952236
Ni 2.5840293927593807 7.526840496145064 7.887406467407454 0.968967534628757 1.0049015295212047 1.0388855997761333
P 4.8694500668304235 2.2473215209864157 6.497862946077499 1.1282221786594377 1.0958342492470352 1.460370397660472
P 4.938647920193909 1.5397750929662797 10.950704476283132 0.12003272241558038 1.144874442504138 0.7845307349054941
P 0.9106142649125888 3.4347466708110845 6.80187360357993 -1.057098009019102 0.88669146213666 -0.5542239121229938
Ni 0.14644020057370452 5.865665497767002 0.7279126460173082 -0.5686866245155432 -0.9270503255696809 0.8350112601535491
Ni 1.181463174786116 1.1400260574497338 11.074034837687178 -0.5834660968175629 0.14075761366775758 -0.6499149724694162
Ni 1.8780406813900647 4.107596814858801 1.0630192221617227 0.5239653703487687 -0.6694697546728922 0.19624099144704266
Ni 5.6887533924239335 0.8970278231956497 3.185461010003901 0.9241701758084083 0.3959352315500084 0.21129762866984902
Ni 8.814710553578823 1.7461354607081732 13.521807602477589 1.3175710709723372 -1.7053579623835984 0.5300833103210484
Ni 0.9774301098975302 6.2669629778114455 12.052183537111128 -1.5573578082208146 -0.25611761319801696 0.03962738458363498
Ni 1.3692792966849203 1.6479436789690174 2.4303615723683323 0.09113172311051401 -0.7284719442387131 -1.4277117310851861
Ni 1.6162237464544138 4.193503033726911 10.482271263012953 0.44365104956873275 1.2020861158284393 -0.4593044398352735
Ni 2.4724764818902796 3.8372495268353295 8.392928172363812 -0.1514390046410037 1.0302245816670257 -0.5461678745877367
Ni 3.5786036579388467 0.13570679107972464 9.935956853263262 -0.7971841620034464 -0.8294414793752555 -0.04259238074922987
Ni 6.014770506468358 6.939145529008812 6.731916363349169 -0.5732547035021999 -0.14875194472714381 -0.7056654878671589
Ni 2.8627401356580857 8.187571975534322 3.3809739211398795 0.7765598008848755 1.232992832709625 0.28418608929945893
Ni 0.14511243257133932 7.882009164654824 8.001807774438054 -1.523831394328595 0.4954163550664822 -0.19082547685842619
Ni 8.59603680659712 0.1971392414964174 9.649846029060873 0.012325868555204579 0.36487810513388774 -0.0596346809434973
Ni 7.9356020351413505 7.368769344578573 13.346311350304639 -0.4132665237396044 -0.9196979989696676 -1.3626306823151373
Ni 6.355020329197354 4.837869216159643 3.0434445392760656 0.9742038433270319 0.309851355276047 0.2039303896715004
Ni 4.063470781875171 2.1784111034334974 8.808191323952686 -0.2614066295110982 -1.8803999511555225 0.4970600613174923
Ni 0.7852041663372392 2.3603116109083566 4.606665122261763 0.39126585109879713 2.9685062356306813 1.6661401545335564
Ni 9.069100518054316 8.676166492885105 11.842312743631139 1.9565300586508823 -0.05318738265625679 1.1863206254640664
Ni 5.260205143113071 1.4617130900897972 13.295476009174978 0.03296257096894968 -2.432854944303552 0.3236034147548169
Ni 8.067247636381438 7.888036044553828 5.686240647112195 1.1006416979380078 1.2037336787341912 -0.09493541312732037
Ni 5.860760544741505 8.293274176839928 4.810116825043167 -0.9006654078182489 1.0742449531120337 -0.8147162573499388
Ni 0.8122036610724845 3.465520846787691 12.520819809873288 -0.21062425675190824 -0.7083965136450767 0.6221393450180447
Ni 7.628314609398446 3.354672617260627 12.964473274635639 -1.822109442944746 0.8808712559104572 -0.41341847593643644
Ni 3.722608999033354 7.757252750745443 5.814836647123388 -0.06913182180065512 1.4117994307303041 0.18115710053072673
P 2.6593468472510864 4.480558687255005 12.52233951082013 1.1765982559699801 0.2747005184065269 0.5878243737862586
Ni 7.3974387486519895 2.930009387453891 5.714712554967382 0.673972270528936 -1.239413391523988 -0.47253405115167
P 8.227061947057178 2.1944426039648475 10.955305303676802 1.1353603323661157 -0.5545532704379547 0.6167780807061314
Ni 3.348821907697132 0.16342394812909747 0.48378599440367204 0.9739256499649807 -1.230196243801094 1.4770671415898629
P 7.519209538980633 0.9342034728372899 4.595958601924255 -0.8280813658029351 -0.20349150236186886 1.057785779114746
P 3.647198823312433 0.8682925870494913 2.7124010073958718 -1.235272115662105 0.17282441229531528 -0.6522269084320444
P 4.096006661206871 4.693780425958842 2.8369117100478314 0.4604328970127618 -1.0353071383962555 -1.0663917756162022
Ni 8.170807977292169 5.864181958099556 6.924729232290393 -0.2769597467543488 -0.11503321231845995 -0.1726050971956576
Ni 8.500580301119818 5.0872893227491875 4.853502942617658 0.03560540790843546 -1.290723354651874 0.6665525810260973
Ni 1.6620651221785296 4.9439144860133455 4.982248223807887 -1.2134815021495746 -0.40396607227428494 -0.23868707642639536
Ni 1.4071002860819002 7.789631003987476 10.151920358714998 -0.20186425117109105 -0.4009663662160127 -0.7054484867603463
Ni 7.521323583006745 3.4995866264014452 7.989892169271577 0.09582630037270592 0.8782798410341971 -0.6923523156980206
Ni 6.622029652969069 6.620305038105662 1.5444259898237267 2.138590387722169 0.7983514428386702 -1.2983821567487124
Ni 4.86324701659591 7.381611234824913 8.738981416829402 -1.1345440071124073 0.2441216171784054 -1.3277672947790489
Ni 2.501665124847302 6.33032866585728 0.45045827577447267 0.8706439217554941 0.8181239974799072 -0.6261322682275217
Ni 2.4594955098001177 8.297938054669466 12.1344893906488 -2.2386268695214797 1.7345680082886514 1.2312228852933955
Ni 9.267718663156721 1.0378379907313924 6.606387581600424 -0.4506483068221723 -0.30060232587395325 0.021030852528370232
Ni 6.776484676596157 5.685628686999373 8.61668211549423 -1.2089864424926984 -0.08224521925416159 2.3483489540396714
Ni 1.138190177111268 6.119925652521594 7.03530300697898 0.6033162987742706 -2.442782230719593 -1.1685854129678328
Ni 5.144387055700059 3.4028042073463642 12.465139784517124 -1.0237052924912693 1.3185306066721292 -0.6543786646677247
Ni 7.47044744453623 8.622861058209148 2.8814234633449978 0.3129608474393062 -0.6383630059657587 0.6951018534186996
Ni 0.6479943641319322 8.340599092231491 2.255380850229822 0.2421416106338991 -0.8182713216910488 -0.7823774360079171
Ni 5.094475218013385 0.19290837180731668 7.302049002459723 -0.8509942658453667 -0.4589807379472676 -0.09290809828464644
Ni 4.624981273880982 8.660144264476678 11.86561358853298 0.9827723017223333 1.3593245007600396 1.415494105973072
Ni 4.74233853369897 4.446529996132937 10.219923035433897 -2.923231680063598 2.3351252562605462 1.3644371393962567
Ni 2.2175765506541008 1.808629569199383 6.996368435619123 1.0725289988621916 -1.7321146616521526 -0.4096075868307784
Ni 8.604455894209881 6.386823710818251 2.9819008233843145 -0.28322089717271226 1.0078174176164192 -0.31448011229731004
Ni 5.621771576438697 4.4889777748677675 5.989993539597407 1.389885404266032 0.5493002495691314 -1.117569841151914
Ni 1.7209338306074153 0.3409220516408073 8.638693208097685 -1.124575840156102 0.5587302846337797 0.24120470064192653
Ni 5.610728478039138 7.027499588328208 10.706459141496099 1.4614823997777282 -1.8672994092178228 1.6477724506596458
Ni 8.158355516208534 2.08122998309279 2.8499668591213663 0.0400816985122342 0.36863191574936516 -0.21391141214361226
Ni 3.751445301319357 5.924413668597907 4.506296246060629 0.18934040767246746 -0.312266649585759 -0.5042774050015378
P 3.2621461026265344 5.843838920409686 9.219084524008636 -0.385903044124987 -0.28819803867232946 -0.5015659196076458
Ni 6.550393231277217 5.150154316157259 12.204962160914 -0.5253961892580241 2.8297401984716557 -0.4082245904403228
P 1.8577161879460393 8.900922752503345 6.112455103083706 -0.6273612555386163 0.504109511965106 0.34465535032910966
Ni 9.253995921232836 2.627626914736483 9.045094991810439 1.432548233241881 -0.4462494064235282 0.26688205080337263
P 7.902908529719985 4.102552779989481 1.3820933705624947 0.6248130351954658 0.6455160720707722 0.9994183949194464
P 7.115371497255685 7.902509828434359 8.426623994272996 0.6294135100819547 0.4992863795448498 0.11855690920100227
P 5.146834896151346 7.013572859700048 13.068451788290131 1.0017717256429717 -0.8208097718421864 0.718280348417692
Ni 1.9076372977556346 6.153500009620506 2.7599929599275748 -0.018463863132142395 -0.993848871251469 -0.2829319051773837
