# total energy = -340887.22735088493 ev
CRYSTAL
PRIMVEC
9.08808374287350 0.00000000000000 0.00000000000000

0.00000000000000 9.08808374287350 0.00000000000000

0.00000000000000 0.00000000000000 13.30132919528328

PRIMCOORD
 96 1
Ni 6.665554914726258 2.381977611764356 11.259787451434406 -0.8483992514246809 -1.0008728679777859 0.39066781250348204
Ni 4.666258325309082 0.8404686936205448 5.764210602218795 -0.60260307475733 -2.3951615435178364 -2.9312663774426166
Ni 3.0758346150455016 2.137344578622402 4.392657025834564 -0.8946569968406399 -0.7580614849703718 2.02891458306088
Ni 3.9085757112189623 4.793700521005256 4.999703746186991 -0.9578048331437182 -0.21284466144199474 -0.9504206248645051
Ni 3.8767765068589175 2.934296801755035 2.5323999355384985 0.49366903335807233 0.5423644416812466 -1.795602654903469
Ni 5.278495250179948 4.9383464588716395 2.474898722075668 0.22276423454855185 -0.48581457031066017 0.32969050148916124
Ni 5.326035015257798 3.5247768545944793 0.5506215359825463 1.0484189931878654 -2.282331766608598 -0.5541868882374714
Ni 5.841065798421022 8.262313019227891 12.303382991791427 -0.5935903297357584 0.5198788589842208 0.13408585807453682
Ni 2.0908226789027475 6.889585262448314 0.20044586208765947 0.8786909604296868 -0.23711536106390133 -0.6529439891037272
Ni 1.0427939713874432 0.4569170328687658 13.296553300541788 -0.03145898984022969 -0.079462771413018 0.32597680008299995
Ni 8.099854437593091 8.817694893376713 7.0890496115119985 -0.6634536303857993 -0.05288424959354118 -0.5913110467832784
Ni 9.005572844715727 2.7929680143863402 1.326967438461859 0.037050110774762 -1.21074096328996 -0.04128574612266438
Ni 7.213684498197937 0.7594347965995836 4.509509786572085 0.0573109179063271 -1.3236597003685786 0.999809202599962
Ni 1.568257874472168 7.459217251611866 2.5246723380914142 -0.6461747887006936 0.4135372609024878 -0.9464451851565248
Ni 7.743292567383885 3.9838977477254085 3.7902534073705465 0.13737455612813762 0.5766403321449812 -0.6562134038836182
Ni 7.5994009404525915 3.891617347304746 12.733069399903405 1.201483192137118 0.8895469293075842 0.249783443449873
Ni 8.482208288932279 6.929445596921923 9.884669528679781 1.7387877027969536 0.12985870736706667 -1.6946277204502878
Ni 7.523170095590615 0.6383833412595066 0.46975213327393633 -0.14936515283111051 0.4869633392031226 -0.20687096035706307
Ni 1.8978554007727562 6.79569627123836 9.263670782453234 0.731412772034592 -0.18218142803018303 -0.6351558118823707
Ni 0.31808928609449366 5.216105556572715 1.050283461045378 -0.26375404669735225 0.3486832405415802 0.8222351914348033
Ni 6.901272537900448 1.7464115764069967 6.51871511348962 0.341884729562508 1.6205814920671509 1.5965344784202764
Ni 3.5324744613658305 4.698911809523326 0.008525531183240464 -0.9157680677876421 0.7957767401329585 0.8877942082825355
Ni 6.137237353405164 5.689476564718377 4.7115169814145474 0.5238550700231493 0.5979270094378992 0.6528753406493206
Ni 5.700945726165185 2.976956265963681 8.92739987639798 -1.8236382208844464 -0.114041537829152 0.5899622460648678
P 0.2492770438387194 5.828197072106697 12.239630085650896 0.3605288270262565 0.833695626665919 -0.9345810867290872
P 4.246188927215338 6.570938876831879 12.207627308219214 -0.6317077054327701 0.8696064816299153 2.7094390528860366
P 2.7551888510468983 8.887854898423738 1.2417066737793212 0.1000141132018084 0.13856471978149681 -0.2338066084056425
P 6.417686523838612 7.886857023307187 5.71808130770873 0.172409950465716 0.3581418148513187 0.71947591138769
P 5.125906327286219 1.5787182586443351 12.59947093640686 0.15619066039337617 0.25965853647173986 -0.088856296812776
P 4.091518833187442 6.535213620375938 8.212493053986014 -0.003533981295187462 -0.19340455043951207 -0.5339224815614805
P 4.997237240310078 1.1101184943652125 3.4147174363145547 -0.1968752825969319 0.562192017930135 0.2890853263732892
P 0.3761103379366875 5.7348533659100625 3.4515087249715344 -0.42137758288251304 0.27955090452029274 -0.15113844268144938
Ni 0.5214996810378967 8.962395359744429 4.556130746402492 2.044632250906453 1.627679536564513 0.9089885829719636
Ni 1.8771254821830843 6.681177330357843 4.698827290346262 0.6244024300206085 -0.09530282376906812 0.8917871314920126
Ni 6.049073854835059 5.6581135883689875 9.127731228632841 0.20925360165662674 1.3177618468269048 0.7738208046871576
Ni 8.792239171338275 2.4986504284474824 10.240387115926698 -0.32960539797452265 0.5719128447623247 -0.9637695353675854
Ni 2.5290773321906754 5.51799351611315 6.871346387561153 -0.2397494562526387 -0.43543148987241787 0.6934326932463928
Ni 0.7891891821596831 0.04737708838220964 8.826309487778794 -0.578323633384675 0.6104002022042455 0.7747479444871173
Ni 1.663900865808297 1.6695354776125921 11.028078581916466 0.5979478353735057 -0.2565888964074806 0.545250247869474
Ni 4.193105431168747 7.213648145863716 1.558383671689319 0.019879512532746408 -0.09433068966378592 -0.518931407469287
Ni 5.640155535263686 8.310216307647954 8.092368583168579 -0.3550688323529498 -0.32903152774892364 -0.820694843530877
Ni 5.570777105402415 2.9445208957547635 4.828688733884861 -0.2016130543922334 0.39616688794484034 -0.5998820762817411
Ni 0.9463148763642253 7.541673433709234 7.0577248051135415 -1.0041420256473608 -1.3764627031022232 -0.9353128226887891
Ni 5.309376558100907 4.595534859081624 7.120799740220846 0.5712459006022871 0.6299027910135475 -1.4640797281912592
Ni 1.3002321142588351 7.846496844238036 11.371771725811346 -0.4235697054378254 -0.3029201753738525 0.5791011349806479
Ni 4.845184514346113 0.8930014518036843 10.528201269273373 -0.08963842639443917 -0.7339897887331488 -1.1845257383471728
Ni 8.272046356715634 7.272966067229253 4.732865798494337 -0.5606287872080732 -1.652614866353612 0.3388433716330229
Ni 7.239412862743032 6.271531964102046 7.070893438185192 0.28162989853650855 0.12041298857313457 -0.3208513059309765
Ni 2.763631680669785 5.313729750123903 2.463073307753493 -0.09707662784003926 0.05105388125302175 0.2027623375053282
Ni 2.79946599412839 5.349300509159403 11.17678780194043 -1.9208675722522661 0.5513355348316054 -0.8288544965235338
Ni 1.158430746545264 3.6581899211864948 3.515754205240763 0.4112788038856142 -0.09998608817735039 -0.19326853908228003
Ni 1.7886439006885428 1.426483771009263 2.4181545459729956 0.5803388640424908 -0.4515445933841966 -0.8124675705250783
Ni 1.1853769142867712 3.3243664360326854 7.929999973560975 -0.23161165763685276 1.3376940669744575 0.662125398492679
Ni 3.703512193876848 2.91694765024794 6.722039171639248 -0.07713566594173812 0.6759345364616294 0.18008443629183823
Ni 4.201330146786306 7.289279177211042 5.809023033421695 0.7316300302517206 -0.41162436015049103 -0.013379763741015667
Ni 8.776871222046239 7.605844391693309 0.34246261738149136 -0.48871451756627443 -1.2597582737289272 -0.6085289533234617
P 0.0883788861503662 5.630404021608834 8.018147113580682 1.0944088296544185 1.374691470134413 0.48722816282873505
P 8.718253083114462 1.7991315491113757 7.838739256115219 -0.009980251141163457 -0.8820269667814551 0.33366388431461247
P 2.397536410811054 3.513353133565449 9.875186113489809 -2.7862738997579046 -1.8142688638544044 1.1910792231949747
P 4.36791471835522 6.547773351849383 3.6051255101153696 -0.923811506917409 -1.2943586374116158 1.141191594335912
P 7.14685981981571 4.382292066539727 10.602010139867858 0.36847790667000413 0.05870445581974406 -1.3696335959955315
P 6.686084895477713 8.012272576370526 9.98097140607367 -0.23672121094927617 1.4875024779905737 0.767915237836
P 2.3586485012778637 8.705057185792144 5.673309772881829 0.4009573673549482 -0.207938482389629 -1.019823698048676
P 7.212266757163308 3.9624226062842007 1.5520520038763315 -1.0905213216745542 1.2907732340532028 1.116782055143296
Ni 2.9340150711648203 2.2223363360317028 0.02613096664659557 -0.12057908183735364 -0.25294178657319666 2.4607089904013426
Ni 1.6522681188574946 1.4042634067165192 6.644452384710818 -0.46371542441877556 -1.0648362582036244 -0.36533267617280313
Ni 7.047109014712579 1.121233220553362 9.179233398140807 0.3048140499624557 -1.7271377772628513 -0.5111239956097262
Ni 3.051796634041695 1.5681215532188384 8.62388969394292 0.1850975732357135 0.4806330261097206 1.4033770109945638
Ni 6.844335694426403 1.917467485085125 2.6365630052077345 -0.049152550465250834 1.2003033128964038 -2.192372980760263
Ni 4.591154402807963 7.384195121862746 10.329559391771442 -0.5924096791640959 0.47880574309299473 -1.568795360633795
Ni 7.110516573678007 6.4625453042676435 11.604492099028993 0.7186444166253302 -1.4483890569288798 0.41669457558454687
Ni 7.597892318582409 4.003091780194233 8.215858371326547 1.546273525382195 -0.22231454860564295 -0.29138337837884654
Ni 3.373632936986045 0.19717142558267967 12.381608670993797 -0.19424607250420095 -1.826811990626738 -0.46337860990464713
Ni 0.5752893211767361 4.75870231123374 9.923097581185072 -0.06260507642573089 0.08614069765382583 1.2023856493467293
Ni 8.991159144196997 2.589240445326857 5.3287387201155045 -0.6895477563696899 -0.6391189102951768 0.8003638452830086
Ni 3.798628076366769 2.9692677472758846 11.418153669044248 0.6258833854415091 0.21130225665553928 -1.256658551757681
Ni 1.1346744961316722 3.6713494661745902 12.425742222355113 -0.43837566010240625 0.6357219687984857 -0.5971952734781972
Ni 2.993360256781023 8.376432084431976 7.652719817863266 1.3508791982061639 0.7364421069283834 1.463035603197461
Ni 6.093496407253435 7.943630281277237 3.4303598457299618 -0.9240963851476796 0.9023489661682589 -0.23608229181369664
Ni 3.4594607980824343 8.533946748612685 3.7070401879130213 0.002461831276931244 1.0977337802625933 -0.394534751658056
Ni 3.846231458029506 4.522057703536908 8.992828625146108 0.9908252539337966 0.8590572453591593 -0.5101909422724955
Ni 5.140710815397827 4.881636817486479 11.35529139509214 1.1964551427949073 -0.9630964205599606 -0.3644502735678497
Ni 8.601925613606436 8.717353362842486 2.4947307380100754 -1.1393522271343282 0.01887703941016104 -0.5284637724397544
Ni 5.162085987919927 0.31960608723987566 1.004660372789344 -0.7671660183748014 0.6856684759199416 1.9604594756122753
Ni 5.905345813407761 5.866576048960789 0.29298163765622653 0.20867767454849867 0.5953461360846005 0.30960350093129907
Ni 8.214491523559827 9.044133583240926 11.41864533436459 -0.1649771483367546 0.09854704173797867 -0.5090303463054912
Ni 0.12579997899772888 5.1252428971866815 5.914209421299259 0.17474245525363452 -0.4771918616386556 -0.7018916226470234
Ni 7.45226486769205 6.204098384121613 2.5145900181951486 0.9972434987553147 -1.132657845833288 -0.32591612204839354
P 8.971810614307733 1.6114898879447987 3.341307532588147 -0.7904558421406773 0.6472849910457368 0.2405423844675793
P 1.9466129690470182 3.7164536248596156 1.2259661130615165 0.9007903634318873 -0.6525022735806181 0.9024019308933814
P 5.045658549492793 1.3659843987815348 7.5990092440513575 0.49601156544832 0.5795824454924405 4.247213025437654
P 8.746744225060372 1.8749079897955874 12.427259023500495 -0.11966762576667778 0.8331125004689395 -0.9485622314995277
P 6.695063922030363 7.759532972697231 1.2389438963785055 0.2294071937863662 0.519705309520834 -0.9017848661346727
P 1.8128636433634557 3.499202987469824 5.8166315769742045 1.175286479137092 0.8557549204588035 -1.1995492083391988
P 7.192045771252734 4.066372105989887 5.964235686037843 -0.7754873937563032 -0.0892890134748204 -0.12937713974495782
P 2.587222890777577 9.065717781684798 10.127392246658406 1.3396262510001637 -1.1244192599735796 -0.47320665173866244
