# total energy = -381171.96149908873 ev
CRYSTAL
PRIMVEC
9.20905143264883 0.00000000000000 0.00000000000000
0.00000000000000 9.20905143264883 0.00000000000000
0.00000000000000 0.00000000000000 13.47837763686157
PRIMCOORD
 96 1
Ni 4.996002447039587 6.180000969856553 6.034202348002992 -0.1286340909313462 -0.282224594697714 -0.21329614715711653
Ni 7.61653009875031 2.3003013091715863 6.557311458989237 -0.7126475756119468 -1.0652059828382172 0.3262447090324059
Ni 4.048418690439648 0.5886692684408893 12.967681452852572 0.34340348019987954 -0.17985200856605799 0.12742618666617408
Ni 8.370272533517037 5.61951968668809 5.958197284508952 0.39387397814560554 -0.6390307214567446 0.46179609590887566
Ni 2.686630222289792 4.247674934465741 0.5748971321493044 -0.1027227703822231 0.11009206626310072 0.0677285136952253
Ni 3.1208646205225574 3.382751622769358 3.1809509178556925 0.31525478567980547 -2.1520475416683387 -0.7875425251486242
Ni 6.945116583038597 5.1793362412842345 9.123634634463071 -0.10471666088380031 -0.20307755475290185 0.054055644193823034
Ni 9.059975225206744 1.0351342077695116 8.720146495967326 -0.8889766586264108 0.6485764561636507 1.4424917176078385
Ni 3.1359766737853394 0.3733303371398893 3.3748916974434686 1.6640351923754115 1.0945983199574054 -0.17371452820975242
Ni 4.255935453525288 2.894635065096898 12.13440780883049 0.6436095990766787 2.379238958750309 3.5618307132995626
Ni 7.402907734620658 5.744661485461975 -0.33247622264282617 -0.8853313485643397 0.6941256055483593 0.03189916270144184
Ni 8.917437528435663 8.580128395645177 4.121714451026979 0.2844115750467037 0.6106740246909225 -0.378648933665735
Ni 3.487007293084993 5.986592473436717 11.76984448857431 -0.9363572047929035 -0.6705017954818324 0.08235860490357429
Ni 0.297271861148028 2.10012416001065 11.278895226707073 0.8464079320262649 -0.6065695156042457 0.9011392621308739
Ni 8.954927576475141 4.0027878410081525 7.914126118505803 -0.6133793394372274 0.68538899700631 1.526155157365765
Ni 1.0444353496314311 8.448356079900417 7.708526679910909 2.779722728902948 -2.0905974047826574 1.2667210782000056
Ni 0.5881636915218601 3.4985554434759307 2.0269324617035567 0.49826025227318055 0.3145844990856583 0.694654738578952
Ni -0.3736996200989615 1.2045807525807195 0.3101700584666464 1.403553645781744 -0.8684553987446075 -1.8909245048359304
Ni 8.925661211289814 7.775321771151379 12.834151129205395 -1.079212067309322 1.1603617395064596 0.7902576100869423
Ni 3.8518975346640416 7.011744069544525 2.9550399956066893 1.4934931483563698 0.7219850509627889 0.9552067333992387
Ni 5.519251535606327 1.1536731167265697 11.166417715347555 0.7864305230313683 -0.6734310533134854 0.34432650623478117
Ni 1.5626747142646227 6.067733424867781 7.568945088622677 0.056058276446148615 0.012397602333404456 -0.9959129528693494
Ni 4.671429432263987 4.946043343474326 3.4958056207432877 -0.24380331460703816 -1.2472100047502714 -0.033489390006697164
Ni 4.985246275064615 7.655723821289251 12.602768188645152 -0.8051162723663295 -1.6588040258834593 -1.716505751470302
P 4.732117080650175 5.883791833234135 8.41936322354014 0.5388718551469558 -0.003142659394039749 -0.7543719519339266
Ni 1.0218271285710228 5.254113738233529 9.679119086369873 -1.4333727860257057 1.2791988989520422 0.1488596739496017
P 1.5653361301043203 2.539515626998539 13.021271685364521 0.35091572941652466 -0.8443582485860877 1.1336958001794992
Ni 5.951220507207378 -0.023216939354540014 7.275925046482221 0.04693291710611272 1.6201130370711645 -0.242429317077647
P 0.5658547646302758 8.663194038808063 1.3611677780889726 -1.012383696830863 -1.6344849895221205 -0.6561103026468507
P 3.0144816593454338 8.122079390625357 11.203241028069408 0.7042873765727097 0.7891846887377377 2.3162392179893208
P 9.39525836670057 1.532993941768616 4.93389476293547 -1.0313913482816175 -1.0980032318738961 -1.0061318023838801
Ni 5.3453846461478705 7.622331801099825 9.6608833228897 0.27914569866207406 -1.302356568015428 0.9509320172832847
Ni 7.946315436589124 7.265646824272232 1.5747459387721516 -0.4882558327623011 0.4404482263607189 0.6622148728826919
Ni 8.299399674339478 7.256143083280647 9.89656596952453 0.5593566053638689 -0.10084535085385214 0.49574288516796555
Ni 1.8184376973647138 9.490203686102939 13.25029618787443 -0.989277706941019 -0.19561132828284375 -1.3748256817194322
Ni 7.102978141253472 0.4606699010335837 4.7661703107264195 -1.6033337607302967 1.3022534667786605 0.5153210644102092
Ni 5.621600932292836 3.260575138529668 10.145214960457956 0.04219026021480476 -0.7503013814089787 -0.8377777671550927
Ni 4.686154705370136 -0.06941414544396525 5.235406471324318 0.13806823976105254 -0.5328475033297467 -0.42868851472162944
Ni 2.8884281644880527 7.07356443124657 9.45182036008266 -0.15441891320493406 -0.45081568563797203 -1.0364119414246602
Ni 1.9158786696825068 9.189095334163152 5.247415074282677 -0.2639430227797067 0.6858726215109477 0.8000239454450867
Ni 7.692790252966702 0.39743779175982297 2.2078930834157133 0.6358276411384147 0.6721637565652876 0.3742286931108523
Ni 6.772345570690603 7.129389700520784 7.790489078722252 -0.6507130428906793 0.14839867515278313 -0.25134513151003807
Ni 3.197529972998281 4.610750992929148 9.354815896798783 1.215161975175791 0.5357358806211354 0.34351378052549875
Ni 7.087479307834056 0.125931014474447 9.50997920296857 -1.3054388064851774 0.2053717501037173 -1.6228520332688825
Ni 3.4185656234634223 1.1317924107226875 6.868904315889217 0.45014077105813444 0.07322193270962873 0.6166649521670348
Ni 2.2061387591338364 3.783372983580335 7.101244997789697 1.007533310717097 -0.0698861834681764 0.5687460169985689
Ni 3.3772906553197357 2.239143999166628 10.400765214471898 -1.8146961811998104 -1.134815258495923 -1.452072419317738
Ni 6.009338830267352 4.169536133774269 7.165105164365421 0.7842283731737267 0.1969130778134028 1.0620980333368546
Ni 8.169929621431828 4.832376022680591 11.083108032323935 1.6608017730397786 1.4938554167917948 -0.15849642570841735
Ni 5.735977350040402 3.649206314484982 0.935949041126325 -2.0055548252890167 0.4186714968052596 -0.7067404660988925
Ni 7.662391174465518 2.713336471200254 1.2399269334662835 -0.22088090148290992 -0.674280031577342 1.0216702643391113
Ni 8.516641195649065 -0.31008073066856656 6.673198161157945 -2.5209838760320005 0.742355901309657 -1.6313135337726745
Ni 1.7391293471519897 4.169812405314722 11.682707523810281 0.6309880536579262 -0.25880801554598654 -0.8442674886444944
Ni 2.7587094671939947 5.292506273305155 5.189121779247082 0.07071279313452983 -1.4367478731455257 0.1738204576599974
Ni 4.394301450035527 3.7113397839328743 5.677860868790696 -0.8005520500344149 -1.1588740992173396 -0.26035916208319027
Ni 4.271277733071781 2.8237806240220373 8.361635364257339 -0.17705619098847572 -0.4121527218501353 -1.8795550866567243
P 6.361907361142194 1.6313097739645102 13.233839613114776 -0.3904294712404308 -0.2796938578560602 0.028393977761660777
Ni 6.290739812321488 6.340606825373263 3.467932585026979 2.0133077297615585 0.7019091061485202 1.4289466319335518
P 5.570684087387337 2.5638735678151505 4.252764777146021 -0.1603918429589173 -1.0740809167303438 -0.20955339228523268
Ni 5.558813620199205 6.557102413523627 1.349064321901724 0.08494230647035049 0.21647325933351752 -0.9421357591478936
P 8.657005556301915 6.276032957318035 8.014513066349961 1.4431841156891727 -0.8266721441602344 0.09595177020697668
P 1.9906285394777554 0.8765635526008057 8.673443712958871 2.2700745465078 0.31654213703266126 1.6262533456409476
P 6.81815139209772 7.543447067249129 11.437050553659963 0.23430848774272553 -0.04767493747845983 0.6929806933106388
Ni 1.7956176681232914 7.704025295611793 2.907528657889842 -2.820651863017142 0.48308945807001324 -0.1385462078387356
Ni 7.872412799517931 0.42558433630118037 11.53483594449819 -0.01833402242249746 -0.22266987506253264 1.5574231142411115
Ni 4.358165132544267 0.3942754035267703 9.241341966083365 -1.3460982318777526 0.5952309506629748 -1.0220021937572337
Ni 2.2254225126574596 5.3534701932317965 2.7305573972218276 -0.5332136284199139 0.6332025448107418 -0.8979392671363374
Ni 5.645654974414949 5.184447264782616 11.13849034622829 -0.06585880747633818 2.3039439455617354 1.493599334916931
Ni 1.0553849116847205 7.079375342647434 5.248156402916226 -0.7800729562444565 -1.0136111414800608 1.645443031195521
Ni 7.404003611731123 4.751824450535827 2.071316405582475 1.1768677075812828 1.3591139274111301 0.7672858317821174
Ni 6.6282699623443335 4.328530405305003 4.777168680751856 0.6604035307055659 0.8960615904976503 0.42200750315702806
Ni 7.990758318396672 2.927133807305526 9.826923439607123 -0.8710298443400031 -0.5270247260003826 -0.8017013331475097
Ni 5.853383545681601 8.493010769888981 3.0312329237482376 -0.10609528639888181 0.5268177521958991 0.6440119767214199
Ni 1.005269254246536 0.9928462439774971 2.7007974268842245 -0.6519425444224062 1.4144898330782736 1.0304081584327416
Ni 2.909599773538105 1.8197361736048432 1.352770965069469 -0.3842071444798028 0.5628409643680435 -0.6192887629431271
Ni 0.5141855402296104 5.862832032365096 0.9013340589178267 0.4646245664966063 0.23780930180713236 0.24928799187069325
Ni -0.21742293962115083 3.975998710635554 13.208432761349579 0.9992849546653757 -0.40921652203994685 -0.0910864716948754
Ni 2.7327491514427553 7.350600322961547 0.6655418245719521 0.5205375756141423 -0.25362878533789224 -0.10517226036398017
Ni 3.7942120370174433 7.9140100844588135 7.224518280044985 -0.2640607793044936 -0.24740260192252228 0.5391395069860456
Ni 8.806311905814095 6.312602100222673 3.664528334118509 -1.1967829584479712 -0.9458939406387452 -1.5857772399037722
Ni 1.0784904215179445 6.425063035289763 11.812908775394998 0.8367804362388298 -0.593139615351585 -0.5372890840408683
Ni 1.44839959608189 3.0247589606502876 9.39232620475123 -0.7548069825888162 -1.3200460148753912 -0.5866581213922993
Ni 0.1974963943134067 3.5158592509596405 5.859697271286089 0.7446976620689562 0.6011390886172937 -3.053339013106361
Ni 6.039351128611902 8.900050839489817 0.5562515658841275 2.2684616934947255 0.6667580121686839 0.9694984674315628
Ni 7.789697100306286 2.542048116119359 3.629457503868263 0.5310451600136854 0.025870440008858676 -0.027851989215261705
Ni 6.9095604357822875 3.3761671510552267 12.202784094187486 -0.3651696682323775 -0.8375887910727381 0.2203859641243624
Ni 2.3417604583422413 2.3923089411938028 5.022380853722045 -0.26457859948117657 -0.2188862396503843 0.0013904525896234116
Ni 0.9286407379762067 8.638688753169877 10.765907784057893 0.28626482620535865 0.8299338456306418 -0.3571614532159204
P 4.607085790492471 5.171969000205486 13.592673982527092 -1.06833115873076 0.7480277548834536 -2.163645016697951
Ni 1.0938511191671345 1.6530247170441206 6.921308422587487 -0.6503340622847057 0.3525892604642057 -0.38956480924729037
P 3.1138012781383075 7.319418475095746 5.133415306735262 2.1795169507332015 1.6992374513081572 0.0042572326144571845
Ni 7.04813824047354 7.349007157078267 5.517764273813555 -0.5494390891398409 1.29409072846221 -1.4375778252459885
P 4.226890105572323 8.905189490142243 1.6901482448399325 -1.275633550198287 -0.15238748459720208 -1.2982343183169383
P 0.8812583269782379 4.757755079604219 4.257724772202289 -0.5016528228944974 -0.6156807338768945 -0.16939610334005664
P 6.398725148433238 2.1186527713237018 8.401935093863225 0.36743712411031554 -0.6616258331484411 -0.18732800522812898
Ni 5.222600364519184 1.7940152931886637 2.2387719534921513 0.2868476952920221 -0.8586921487102567 0.720303806605624
