# total energy = -340870.53450078546 ev
CRYSTAL
PRIMVEC
9.23728489097971 0.00000000000000 0.00000000000000
0.00000000000000 9.23728489097971 0.00000000000000
0.00000000000000 0.00000000000000 13.51970015701540
PRIMCOORD
 96 1
Ni 8.501442940596464 0.8286537503461299 6.698700852589044 1.3472266890552411 -0.29872336368368557 0.6090899680332542
Ni 3.814767801456879 5.210179795866906 3.056818078487494 0.09610449373475707 1.350679680600848 -0.6647247837887391
Ni 8.347097144375038 9.42055280498283 2.5014281611582745 0.15059928234852774 -0.4300802528628335 1.0942136829244768
Ni 9.11874298991654 8.66570958098222 8.904521111876498 0.5455508098290281 0.5826919376556997 0.46169530866495323
Ni 5.481026231381203 4.435448697112287 4.5401588657428205 0.4524035989503821 -0.1071628084314477 0.42894305393459675
Ni 3.9046927716056357 3.292602551064593 11.083801727431604 0.09772608849858008 -1.5394043090661875 -0.07131571682585136
Ni 5.747013854949096 0.8681579236731122 11.93158220024204 0.29657674965432795 -0.21073429996721127 -0.7473710951360614
Ni 5.8659161883599635 5.8000635831015686 1.9340066800264089 -0.7667618409578473 -1.0496464378370634 -1.382789673761515
Ni 6.5650401088231005 8.378956540578741 7.655287306229701 -0.9982158899709132 -0.23403080860130662 -1.0869212630281215
Ni 6.681808629382981 5.851459837226652 11.231991796882909 -1.4574578519993673 0.6073776133278378 -1.3846742923787378
Ni 0.9764549300960198 5.047695951499507 1.644833470934799 0.5547281054529221 -0.395548537634551 -0.2347563739134215
Ni 2.8005508499979297 8.681209745328353 9.58128987874364 0.1861720372468149 0.7770719646346037 1.49455707084451
Ni 5.236099617771108 1.5994913334440763 4.318381812244672 -1.3193186497910634 1.6736148656440466 0.5642303885164025
Ni 4.132428797701932 5.780794606447197 11.203762653711404 -0.09970378105024118 -0.9131871944343435 0.012909766083132603
Ni 2.368652349301961 1.4028387716056707 11.012607200217683 -0.6325520557109364 0.1671283903518025 0.4745256276604021
Ni 8.800278349870466 5.4114325256697775 11.752959895130225 1.8416737382299184 -0.28226933189272035 0.7022022119089067
Ni 1.7110869743651989 6.707959383413914 3.226584598403458 -0.6106922795233676 0.47990180437065094 -2.7516254564461
Ni 0.45634682308864644 0.9875673840342791 12.683426077780679 0.15781559759130886 -0.5040249226710998 -1.913313928274724
Ni 7.762081406371848 4.4810254616437675 1.671683487445471 -0.200274538086468 -2.238940544107157 0.175653139993362
Ni 5.326948316426786 7.1368003427519735 13.124195143328608 0.032460948742182805 -0.16332650010720903 -0.5525403537729839
Ni 5.351842799688305 2.31325635074191 8.472336255343384 -0.3218085276379232 -1.1143101965640358 -0.8895186471728099
Ni 5.448049123684124 6.97625632824911 3.8510998910910947 1.966828869473729 -0.1541252932239152 -0.8220811823554424
Ni 0.3817973139375895 2.287031698430424 4.796005797761736 -0.5987397351471817 0.04760603191373737 0.5831210547733183
Ni 1.3936753848170147 3.788376878014147 10.634163944488725 0.6969124242648772 -0.4161608145682639 -1.0871845439918373
P 4.576289582562527 7.763901151530483 11.07187731613576 0.6882470352803952 1.8175894435872053 -0.5226667061420031
P 3.370907016596284 5.422932945580944 0.8822373935756016 -0.5921733947835738 0.6088516267702031 0.13819268115405878
P 0.7260062674715508 7.735025398404133 1.5778437558843834 -0.39895344955104195 0.3403366683490977 -0.902751086702684
P 0.6655242197523934 2.436278513293645 7.062326579338484 -1.106426680050901 2.238695003755254 -0.4677813669580331
P 4.441175813855197 2.7386795146043634 6.059205454704671 0.4588629814224807 0.08548583767864633 0.3709759905015095
P 3.646898619894131 9.333537579630875 3.020625471857824 -0.38562896452799394 -0.05082813839546085 0.4228636805097363
P 0.15583577030308854 5.28878909180588 9.453095760281656 -0.20286595296272805 0.2002603970190809 -0.4261816891393757
P 0.737998110948399 8.389320774426395 6.60696906948075 -1.100320310042847 -1.1872341384172715 0.5001500130967258
Ni 3.897949553505113 7.4954748847043176 1.5512505358986353 -0.2396422412508131 0.3616356869371901 0.8490291716991958
Ni 1.7895484737430658 6.629303901049592 13.423954281109532 -0.3879740677214028 0.7387913238868502 0.12916090996909368
Ni 2.5695448249871338 3.380827860760615 3.188121467103776 -2.0935780846775365 0.5321944431267802 1.431741935290502
Ni 1.7494863683979036 0.6469138615234565 7.618175589735644 0.5520634141365653 0.7656845487332684 0.11110148136422157
Ni 7.792693769091209 1.1090376826943869 10.80393046440469 0.19479397458787098 -0.17084594841270578 -0.2586195536842643
Ni 5.025147738645566 0.04828421278526607 9.47259197414873 0.9969030846967606 0.2284584567198517 0.6008691227853586
Ni 8.378513150895419 3.437406231809524 10.36979931190749 -2.086269981051897 0.9343172915447393 0.11184735839131062
Ni 8.291350128982357 6.431191848170252 0.6598913233171892 1.458778370583004 1.4480766678947834 -0.2667920621927276
Ni 4.235710882060766 6.875893225972146 8.717624046799685 0.7581252483287717 -0.9189806611876691 -0.3369847211577293
Ni 6.160585582067754 2.1920354587786712 0.5807942987265604 0.1921043435708498 0.9037162788294307 1.1117190387980918
Ni 9.004634807456592 4.83176517572166 3.968762580845674 0.9360990660355103 0.6096599816041113 0.2923722246546771
Ni 0.3823654069693459 8.890877641829276 4.512119086915235 2.9041679785639274 1.6363066161118915 -0.6822710202026185
Ni 8.206487191051528 7.772325555513603 11.826222650471141 1.2640666712962938 1.0492535732740187 1.2096202194219554
Ni 1.787654830303878 7.255166913628827 8.332475445838986 -0.8524978469740867 -1.985916482232799 -2.407319519036609
Ni 0.8221368457298024 5.0501161201876394 6.961942231305862 -0.04279112702359727 -1.4280829983816758 1.451846676460177
Ni 5.353653307561871 4.2795233251440274 9.559793792659082 1.50523023428764 2.211150518478082 -0.8371221358489647
Ni 4.709380385839701 4.166246498340309 13.279049913957346 1.414348679514719 -0.0898831954153936 0.17407165443885503
Ni 4.107802195707419 2.1259611586786145 2.103746411815672 -0.21714174615545184 -0.5107750969107397 -1.1829540229846789
Ni 1.9857299340429417 0.21925250348873393 0.8331107403920236 0.2803507747137688 -0.5973073735760293 1.1847404254611402
Ni 1.9533717244455 2.679413093600314 0.8671602968856376 -1.1985611333943167 0.37585311608815275 0.2968531432441662
Ni 2.508735777376526 4.451456912137227 12.511982066896145 -0.6871684575042358 0.8063352323750952 1.6999529893179433
Ni 3.783185523805251 4.890542020617041 6.819228948172093 -0.42232323462523397 1.1006576387776077 0.8414104788116734
Ni 8.00868920586454 3.781929253035839 5.943585128678893 1.2495376244421834 0.6857569218686899 -0.5373903855054228
Ni 2.277341786392823 3.2981449221061188 8.293227145308421 -0.5441973811249272 -0.5289353127595342 -0.06647741489694359
P 7.345618409026529 0.9152625351550402 4.455538868409311 0.5407559595435462 -0.9574752177184414 -0.39694901752650347
P 0.6209912684337333 3.3256720316123634 12.678207011716573 0.8434663328994376 -0.2767283474698331 -0.4488009692007883
P 7.294369951462553 5.9241203215810545 4.913235258846569 -0.2611400061132728 0.10731090397353776 0.31541907917181167
P 2.0930210001218126 5.126868721827703 4.600713888014025 1.0026214752377764 -1.4958991866947011 0.22276911964455826
P 3.4973285000534875 1.9149538558426569 13.15800822532445 0.3390709142627967 0.13231282533451408 -1.258246207959775
P 6.7899864748284955 5.246205207636824 13.25119949947368 -0.24056732416824375 -0.6047576592064875 0.41421448947517053
P 3.5402449264850357 7.505284881447818 6.5596095089309125 0.6108023227386706 0.3109998670581934 2.1866309360701632
P 6.118140257174735 2.886882516254764 11.051570992368118 0.9547161669160655 -0.50741260819641 0.45078586084130107
Ni 3.332369063287541 7.274879279966521 4.536683799099784 0.5346858420900662 0.7936908041382073 0.18237863164265364
Ni 8.616788919255685 7.195983628190401 3.2745122519850525 -1.3886780142214923 -1.5177687330742826 -0.5256062483863012
Ni 2.971532996629002 8.616068411020287 12.369511724359695 0.3940914934730503 -0.35994030151263817 -0.7082602451775285
Ni 4.799203745852696 0.42237670724662774 0.38309792367533424 -1.3693862558714158 -2.353967842888346 0.8562845677100285
Ni 1.7583911112046215 6.2954591813632845 10.696327178090478 -0.14140501744376938 0.5379454866779445 -0.03167984760178415
Ni 5.800747142196689 0.435874228189757 2.5490583741606407 0.5937492239111257 -0.5780899201073141 -0.31210724118975924
Ni 7.762755728181901 8.240979213499957 5.386369923819997 -2.3849779181166153 -2.0660773081541066 0.6033492088947351
Ni 4.052553993708476 0.38448721134974334 7.092042925406132 0.4394179853239917 0.4516520654963383 0.9411299435911984
Ni 5.598090345063298 6.5345108816693624 6.313037734849991 0.7087042746934826 -1.4477465382488743 0.8601710472486283
Ni 0.9316818093655604 6.668562362593733 5.360804813662453 -1.4194302078026846 1.0241498362278556 0.9929713537425221
Ni 2.7648025567800887 1.1571269887646924 4.993339147509742 1.207089996800934 -0.5553793658836758 1.1593723790099968
Ni 7.812018169455997 3.163003441543581 12.785499925252457 -1.3951746776894294 0.7537762273314567 -1.019394066710425
Ni 5.346826953895724 8.60493748251189 5.492188566658836 -0.14349918096863673 1.6256596779210064 -0.9132920954433239
Ni 6.674141682775537 7.93820872078647 1.5083387281096217 0.33790800430294704 0.37230242262241686 -1.0327396347793953
Ni 0.3509604851910467 1.8108958395380095 9.305230843264786 0.7888147069928285 -0.11809668173513209 -0.32198181999099384
Ni 1.6312121703717424 1.306198295211599 3.133474612362838 -0.7927184129226089 -1.014705145875188 -2.8992625708425104
Ni 6.535222152619692 1.8232738015307506 6.2476432989310275 -1.5891965499979663 -0.0977811101062316 0.49637897609006776
Ni 2.3477945596156853 3.3933813311696706 5.879055302642408 -0.43943546882548834 -0.9087780096230543 -0.9773963821224005
Ni 7.681569229708616 2.933734026125796 8.10420827585121 1.1287338281885333 0.15785982056568298 0.431294841996225
Ni 8.358385106729612 6.8563563680507675 7.443487444334806 0.26659794390405056 -1.5771079942645483 -0.1761961569810256
Ni 6.044232739335988 4.171465564404412 6.888219459168499 -1.0002699442864644 0.7661360344483903 1.4975259236648468
Ni 7.100996625823717 8.137909586697715 9.910873438827522 -1.0823801806246585 -0.9231733591127778 0.22154501742947005
Ni 8.61402697101999 1.7070318062198155 0.9829561313277296 0.4086339100635995 2.197808549953538 0.9172050573444849
Ni 7.501248187872574 2.906668780873011 3.659283047986421 -0.6551615655803362 -0.4011278314945414 -0.4817910509735638
P 5.679323029961928 3.5221028986091083 2.5350380228825937 0.33668493052912335 0.5498484087631176 -0.3454104833275793
P 7.552524357291757 0.216972741533653 13.381637354478976 -1.030546740893135 -0.6887787394141492 -0.4992285297237209
P 1.118395052469496 8.610775446675628 10.952228610091302 -1.1681647804906463 0.1172271346459852 0.6636104676786377
P 3.2138731704197188 4.878792194009008 9.287101747587956 0.2125520699022404 1.4656535004362823 0.8509078767791475
P 0.21029880307114898 3.1839166549402718 2.6201716132659514 0.9579112768145955 -1.0647143879137793 -0.6942970981292172
P 6.531166984474309 6.118648307853542 8.780301797179794 0.08328111671784366 0.7439443288426995 -0.4284146922349525
P 3.368588458043912 1.5630779557012515 9.047248250937871 0.2665439507376635 -0.6887424868595751 0.4659384002120233
P 7.228739041045818 0.892495398644959 8.541949359353454 -0.16712093415263476 0.2512965376602898 1.6956389353236216
