# total energy = -381164.9102613518 ev
CRYSTAL
PRIMVEC
9.33994709231601 0.00000000000000 0.00000000000000
0.00000000000000 9.33994709231601 0.00000000000000
0.00000000000000 0.00000000000000 13.66995666592929
PRIMCOORD
 96 1
Ni 4.821346039179829 5.228661129383241 1.529011907301142 0.19597102561510765 -1.0112454694613617 0.10302718899651934
Ni 2.4493730901301083 0.5147104711872207 6.655847066117641 0.2103920861364441 -0.7943672613799415 0.9123562138926158
Ni 8.244119069367478 8.084237856019575 1.9647690042160282 -0.01573026625106323 -0.19177472814557295 -0.8631260161118941
Ni 8.389103067194295 0.6203172523137965 3.4309538897957466 -0.4602264374289106 0.1652687114352444 0.8971856767997645
Ni 4.53441352631262 0.9128154396192588 11.593394188346029 0.6213597865395427 -0.04564607997388913 -1.0850908946876023
Ni 2.988409453370408 3.0120208394752974 1.5555728486797353 2.6648957190580234 -0.2485266882246365 -3.628054103204171
Ni 7.956943717877354 9.219452378461297 13.152207064652263 -0.14590650485854872 -0.37828923633347106 0.6773316739194722
Ni 3.436082454712754 2.315307490387394 8.280767153544046 0.338563635609075 -0.33906268673268053 2.034193829181948
Ni 6.915633022927151 0.9377306823302568 11.179563551090888 0.694626713554494 0.562474067946928 1.126831468959498
Ni 8.627103597544291 0.8542128759418388 7.099710303064343 0.21142001318032622 1.0392527533075648 0.2649475527848211
Ni 9.032419939082178 3.1949343622119084 3.5559793548031275 -0.3154712725659857 -0.7804287969219785 0.33772725575070867
Ni 1.8106701520775954 5.342365644589302 1.4767380917347477 0.8448801825278287 -0.7676128761042328 0.014990559871561279
Ni 9.144200425198996 8.755705328271437 9.996483668083371 -0.5236020734720789 0.7734441380740292 -0.576938323001374
Ni 6.792196282910451 6.346008333146696 2.8111858263676175 -0.6128733463350864 -0.1298941885906924 -0.3848211239147179
Ni 0.8149206527596162 5.6936503925287765 8.222588623462023 -0.4673707617831757 -1.431284021817477 -1.5289424903029154
Ni 6.978901824143339 8.865692544557504 5.863659844441608 0.7184410423652724 -1.7700626016508354 1.0911047049818499
Ni 4.2310707265046315 8.30776146846507 5.649232406413657 0.12970932627339596 0.10159199921188955 0.8960664755936567
Ni 8.94475519621015 3.6777442443005333 1.3339116216730516 2.1856881125409195 0.4872014233558577 -1.3182480424347038
Ni 7.307116902905963 1.572025165382173 1.3400946666103286 -1.4453348434835882 -0.21734512041550955 1.5131572024442004
Ni 4.850878951705011 4.615325487478228 5.973046502133315 0.15751015053574807 -0.3282745949782411 -0.7154431360792131
Ni 0.6420027413400354 8.034885575885781 7.651321036998082 -1.3414468491486704 0.7393531099275912 -0.47657171155615347
Ni 1.491486802097972 7.240915358320736 -0.047066795094291465 0.015044038817316025 -0.4277611178113536 -0.3360061592945439
Ni 8.252170103711787 7.38513348049067 4.278778241965535 0.6912588255235256 0.40155206351615363 1.0475972686175183
Ni 3.6571216412468956 2.438473371940074 6.042489942334446 -0.6149546543441474 1.6388833757001322 0.22455835033449714
P 1.8437522444761387 3.181363419169818 3.0576548866943947 -3.491882052024567 1.0135162677734093 3.838877877561395
Ni 7.341394508525007 4.609693499416025 4.784006798922659 0.1421912607904906 0.11955192612441992 -1.2299185646596753
P 6.89594441457703 1.4099397245339733 5.16870614137513 0.884627894739412 0.43674712336004784 1.0257578041449238
Ni 6.669702877544303 8.317288214440936 9.825732624375947 -0.2841549789512074 -0.6298107455203734 1.1008131905188656
P 8.750278819044008 5.974670718922728 10.25134653881065 -0.8103129860759206 -0.7050515084322438 0.0334474810251682
P 9.102236043170015 5.946781637075736 1.531677528184977 -0.8633520160797712 1.0169389203017132 -0.05535867927596273
P 2.5143978013889052 8.000439851220102 11.74551390570771 -0.5012355328514206 -1.1150460462887957 0.5225394365355194
Ni 3.1650745515404957 2.9378616600161114 10.82102820226802 0.266113033847832 -0.06753310985496756 0.2664395639493153
Ni 4.190890274359364 8.237908004589094 13.182704793706177 -1.0706294678466335 1.0588607573464794 -0.11746856123282994
Ni 0.1312794935421254 1.9421859462797102 10.35965349862509 0.026770069004992608 -1.0482086769492722 -0.7601857304022261
Ni 7.933948768276785 3.6617449150293013 11.031723397460718 -1.0435364682845834 0.3276073937078874 -1.2704818307940184
Ni 2.2659832300947036 9.202584434115794 0.8222160853887812 -0.728029714494972 0.5318512008547486 -0.12279588698301432
Ni 6.854717888363825 1.1324592380663476 8.893974838174676 0.4776222643078548 0.9106276612372833 -1.3749164416610258
Ni 1.3849460262678799 1.0212484887186746 3.0779001558878116 0.5169568002414193 -0.2777663018160442 -1.3138491420360598
Ni 4.4923277249721805 0.21548285204292417 9.190147360643772 -0.07489854908110327 0.36205092009773776 -0.5457575265231955
Ni 3.2273906781590957 5.70049657370555 9.608831034378381 -0.7586968045615256 -0.8027953375426368 -5.158825933406341
Ni 3.820524014627054 7.300999237597932 1.6829631882764196 -0.6758044386416684 0.09299577290244629 -0.041052547065935745
Ni 6.521281779208545 4.118458985101683 8.853074276113 -1.9903128115282818 -1.8055546239098585 2.4034615787430993
Ni 4.91657613915034 6.1029081917155015 12.756325003614593 -0.4024504069607069 -1.1992249922305604 0.43734670461725966
Ni 8.129947556809658 2.3044357920384653 12.984517655582966 -2.604957133720862 -0.060466175705857154 -1.1690584959495092
Ni 2.5676074796482227 5.478233854109802 11.583784316841552 -0.652181914126722 0.781849331418589 2.3528578976536187
Ni 0.5822569681455116 9.064568036777207 5.444142113436758 -0.7080735830880193 -0.30721571742541287 -1.3173620402853248
Ni 2.942970611044345 5.9733537863907715 3.7507079105392185 0.50418561661868 -0.764973895819489 -0.172036112066065
Ni 0.6578003277553083 0.3598625552965677 12.026184918082548 -0.5364943560537146 -0.3086930733018877 2.1802934238879095
Ni 5.312216295559799 1.156929899298472 6.7806810622108005 -0.3477820688835494 -2.1926694289547597 0.33943858201486055
Ni 0.8114359185207972 2.683329423413879 13.274361429941035 4.5545405858505825 0.05248547149322574 -1.0371812154905171
Ni 6.243437034806548 2.468286482876311 3.6016647717309187 -0.9232530633107777 0.6938304429054437 -1.107364875594454
Ni 6.381154553840011 3.1043648958119427 6.631268995494612 1.324854749117944 -1.1408910323763577 -0.3248285454111696
Ni 4.900343311203229 3.21780789250102 12.876046312700705 -0.7311957709277794 0.6316038328650542 0.06073768419968893
Ni 0.9625749414437875 4.073421760498133 10.419691612161813 -0.25917748307026334 1.1282180648943796 -0.6912128027769386
Ni 0.07364735036165877 1.1484679072846151 0.9505703075194938 1.5451370977849066 -2.0430695344050234 1.3947147073338755
Ni 6.921423790088952 4.560275839652983 13.144852790356776 -0.2714066781466035 -2.843764537775206 -0.7888941540805123
P 5.176413465668545 2.48351993649066 1.3590715709963708 0.42137629733093235 1.894613009431111 1.7695568656590106
Ni 5.403803816186597 0.9823009095820495 13.754436575537763 0.25263428263510684 -1.1771947519033985 -1.8072921754262554
P 5.417552218222355 4.940962740859148 3.779360066058985 -0.2533451926592024 0.29250463646748337 -0.18968544971671203
Ni 6.158247377898836 8.433906793121968 1.19555151428357 -1.1608553913134265 -0.18265142568806608 0.2104360520005021
P 5.505179601306245 2.4231558588024087 10.026571373462442 -1.0590733875779181 0.17089685625529924 0.45560565082744764
P 5.788768413134865 8.47913081666622 7.742690936858961 0.1509589796807916 -0.5906245622392151 0.13934556381157936
P 2.755994211347439 4.296086097816393 13.256344672110208 0.0375735873783998 -1.2269995912406675 1.051219438751138
Ni 4.828070801045146 4.71895219983335 10.679749361430048 1.663958316390889 -1.4806998532464435 0.7277882879081271
Ni 8.51652796459501 3.4193546095727787 8.402156577170638 1.756109224794537 -0.8203955671229033 0.1914335427560703
Ni 6.039312492353084 6.7073148442549 5.443280970320116 -0.10301819013545482 -0.3852777518361623 -0.3343033176708242
Ni 1.0554887345495783 8.077615833571645 2.53558547123817 1.3766449943163581 -1.057036045432915 0.7240853851352433
Ni 1.26871038541529 6.942896328322789 10.028936248051744 0.4551760194891967 0.996276506856355 1.9060076244212982
Ni 3.744627605019328 3.528790768983771 4.094138697016826 -0.09564092383477721 0.08158804528613692 -1.5731526091612262
Ni 0.4653862108945305 5.454874646574862 3.811484813886424 -0.2707304780151853 0.3563626114637089 -0.1881070494859986
Ni 7.2463792273363055 5.134523803215843 7.058891932536576 1.015091068459697 0.9974692416128758 -0.8250009271053985
Ni 6.708594416998718 6.036277009566657 11.21104571056231 0.7185647124273301 0.7222565594566207 -0.9089032223470089
Ni 7.1209437386540815 6.450503660576088 0.28702497834285745 0.290154648178068 2.0232887522336704 1.5781834867169144
Ni 7.66139043389669 7.080202889686704 8.165474847342008 1.3191486998721023 0.6665230133397425 -0.13559226741673422
Ni 9.320071627871096 4.578694215206323 12.607787155940896 0.30628060720565314 1.6785678387739476 0.2835867651525632
Ni 3.432860172985623 0.8587156644074904 4.410406115532071 -0.007193689534961804 -0.20758238460179088 -0.6241630603162928
Ni 5.865944395486409 8.748691028048029 3.7658274167997385 0.06528982234674562 0.03890233349215236 -0.627404450071726
Ni 2.4228943402854237 0.4596776352666396 10.708975923692476 0.0995320313590673 0.7157683806291156 -2.48052602512727
Ni 9.022061937820183 3.440360150454858 6.087696219979334 -3.6483485917871494 2.343433004795293 -1.3866067335147603
Ni 4.089084851676099 0.3868101704824169 2.0644365130229447 0.6054233178149444 0.7383375241788832 0.5290152740678502
Ni 3.6926414598216164 6.299112459083148 6.779395885498762 0.322265926890316 -0.5828271776819834 1.7949547369068248
Ni 6.9541603044471945 3.9489669662546008 1.9223647106816897 -2.6850397981060663 0.8170469623656444 0.5521639442701717
Ni 2.711545403407103 7.746094413558573 8.372055795865718 1.8922882179526768 0.730441152149942 0.18457795328681761
Ni 1.9388702650822278 7.066893465161599 5.6858001670457226 -1.43925598427936 0.598188490629402 -0.520731179682187
Ni 1.2938255029928403 2.714945144127902 7.113818293060956 2.2878236429611047 -1.0753376719555803 4.4792784827824725
Ni 2.887295186767745 1.5994379099303735 13.111866899412695 0.07470031702736811 0.10972748383483039 -0.2911020996930019
Ni 4.4920662064551955 7.405027567675566 10.441318259521733 -0.19331867559392513 0.6681965443874235 1.4661448382504039
Ni 5.556586669787776 6.109268695646447 8.684236053558378 -0.9668990821355027 1.4987135162150447 -0.4258014229818215
P 6.1676527045632445 8.375989781556928 12.414726714745285 0.1540180782220896 -0.7719541837920642 -1.1448289339781832
Ni 8.723211652536108 6.845116422811679 12.382027560175183 0.7473268721616871 1.0228946236645158 -1.1162732338276777
P 2.820243707002317 4.316876819916664 7.654560130629876 0.2267458449041192 0.7311430633129731 0.3670743414542581
Ni 1.1015253334858914 2.0371918875213773 5.082134172306213 1.1966137798599585 -0.8136729036870891 -1.1764365335811353
P 3.4363626531238087 8.030168902633024 3.672611943404712 0.05307373989652796 1.2369034806179406 -0.26342545971333986
P 8.98671957823913 5.973484545649263 5.955917973265531 0.566174913837283 0.05028100764273921 -0.1825498671131953
P 1.1148067381698916 0.785114079786304 8.469494793310044 -0.33560095343632523 0.009025857647694133 0.6052202006652028
Ni 1.9782848415706111 4.502601666710858 5.6491782347208535 -0.0866520900726056 0.28945659366977894 -0.39980294203553085
