# total energy = -340863.831762371 ev
CRYSTAL
PRIMVEC
9.30023152408577 0.00000000000000 0.00000000000000

0.00000000000000 9.30023152408577 0.00000000000000

0.00000000000000 0.00000000000000 13.61182891731044

PRIMCOORD
 96 1
Ni 0.7165260846545632 3.405735375213565 3.774872712903391 0.799714641734784 0.04143744120918025 0.25087307696962596
Ni 7.469824818777926 4.3653704341734105 11.555162500627347 0.7851593696284285 -0.16967403959179167 0.009417179548841845
Ni 4.95172211236229 6.418759186622292 1.2668486670688033 0.8435696912465215 -0.40520277289486345 0.4048518173133479
Ni 3.409446167473266 2.700619744251801 12.897479754036489 -1.3150961270692836 0.07031041548978859 -0.10896103798245105
Ni 6.904761369868384 5.719521301796195 9.594950904798743 0.5946948756538467 0.30657371296603975 -0.08932886557382035
Ni 6.067787060565668 3.9264553216312437 1.8043155398575181 0.3276876121265195 -1.1640458732262662 -0.1764139294187865
Ni 8.803812785099879 7.028835754672067 5.472581562248379 -0.44898454596650417 1.2682246593287254 0.2890153923673023
Ni 5.6091833585152635 5.703524904085204 3.619752296216666 -0.22447890324681338 -0.5677036917769837 1.131578239615864
Ni -0.028347104780873097 4.906615990909787 13.169539418129297 0.39865880112875857 0.22347000236632483 -0.18630984837625977
Ni 3.0537309234907086 7.20452642278738 2.932981371350792 3.2646713516688877 1.0114264751239161 0.7232844865005028
Ni 3.5092283483111886 4.341822248705835 4.489399247844081 -2.4489253675028535 2.1117452425048664 2.0026224821335705
Ni 3.689318025797024 1.8058816987961988 5.670851331737381 1.7988448159898502 1.8952910093347421 -0.3101344337341046
Ni 4.521233009312077 6.446399473829889 10.575124594401005 -0.48718111164088357 -2.7088317583193415 -0.9910941913244673
Ni 0.5272087177449802 5.658614087488473 10.779274900095041 -0.7776707745608671 0.8649057337201362 0.11304112158909563
Ni 3.8403723813911648 2.8726182205698683 8.042194529339653 -0.6183891339469931 0.5052875914336071 0.12235777100433119
Ni 5.823404884605366 8.22152530795734 11.26048002407408 0.9035445291382568 2.4651816814607157 -3.30276275922397
Ni 6.146950628772622 2.3935912107442676 8.310034678524625 0.5105465258397014 0.4147251105630019 -0.37568625149298523
Ni 5.377979610204075 8.11065725149645 5.491501952657241 -0.7305967038911998 -0.15963413885728636 -0.09296749076767215
Ni 2.2278424898109606 1.0520328562032755 9.39827333489586 1.2019781294956653 1.8240866212757745 0.8775169947262436
Ni 3.527214995504827 8.451492125515294 10.143275797545357 0.31577466273901744 0.6981835776678169 -0.8927384396616884
Ni 6.638904960004197 1.6372034050262858 0.6877446590753743 -0.028924396343834056 -3.0140728685168865 1.9578328366227056
Ni 1.9237435291400327 1.4940728464378221 7.097683506401675 -0.7989137431000435 -0.32517307323478195 0.3073219039859739
Ni 9.1470564190066 4.82302551263863 1.9295719840501944 -1.0623780264711187 -0.8227548113836991 0.2867888170296287
Ni 3.2481336568353907 7.092849246209715 13.333602937164214 0.8278836479698323 -0.9197195962362225 -0.2543769763578264
P 5.926153839204804 1.3454551514252393 6.427586966103265 -2.196229892612508 -0.4887780238143582 0.22459280311685836
P 5.70503154154403 8.007480486260556 8.96928342911949 -0.5560874476942939 0.26492621262858246 0.5831272254209053
P 7.086422786431636 6.255623830663862 2.0898651893455553 0.4608512154971031 -0.6704328899171099 0.6478015256708393
P 1.6308327466355712 5.871375477275885 2.598729200994646 -1.994357928131933 -2.2125425137296024 0.05320049528237935
P 8.523401513364936 1.8455564852119486 4.463536234824025 1.4057383121378886 0.2794138647217962 -1.5838496838637561
P 5.2521660821608815 4.593151697392947 8.729102167604568 -1.0556445644020271 0.24710821061055507 -0.8605785670996922
P 1.964283237059923 8.400257151683986 8.263917621937711 0.8482652969499778 0.30578772672963467 -0.8733695482167733
P 9.052807875748934 5.004603227120836 8.921219834136698 -0.27685021775967805 -0.6822172841465477 -0.11026330173364238
Ni 5.682980693304053 2.8981845562137725 12.872012000843593 0.7450884697494717 3.0466135214570693 -1.118765661232228
Ni 8.097460223384882 8.041658836020959 9.716041775424705 -1.78694369367689 -1.633002491439323 -0.27722045661490324
Ni 0.8349180281783541 9.068562467448015 5.826529762297746 -1.8229373381626799 1.5193648739168093 -0.48006378386981186
Ni 5.970860050714534 8.464289243684087 13.473164997030754 0.2437331234907351 1.210943051998437 2.7124061059341606
Ni 1.0434394425492313 7.660061048532769 3.7818423061851454 -1.1187296657879702 0.5508136008898643 1.2750974751891588
Ni 2.4656401020623204 4.97522379667373 12.139327694454684 -1.0228830537002898 -0.18961191616629927 -0.06967072502326065
Ni 2.8057588582766604 4.950996694326561 7.146400907639749 -0.08010169054859753 -0.315659734427708 -1.17916910202095
Ni 1.1565116538109947 3.0916665666669494 1.1445896874006927 -0.12658877836654328 0.31819535636536816 -1.8168975597265031
Ni 4.2448952388547 6.73105165100449 7.664439597394591 1.0522702486131554 0.8111123420487644 0.30225605942729233
Ni 8.26747775045153 8.933197601934364 2.883869640308681 2.080345388037346 2.297325411803953 -1.2326840432199544
Ni 7.164089017410991 7.5708904315252195 4.079927737344488 -1.7155413306745033 -2.5618721296059297 -0.9213972410489615
Ni 5.337402701359275 3.7076580817773 10.58873641282531 -1.0819001556644465 0.00841753463973389 0.25134950238541226
Ni 2.261044315292495 0.49730289421040824 11.867540527136835 0.8111452521692288 0.9706312954844252 1.9658107126218596
Ni 1.9218834828945683 8.598528781219233 0.6879009029599933 0.06212993656152526 1.801385580133833 1.8090127576617876
Ni 0.880783978522131 3.5586032758970334 7.590023797229185 -0.46926180815830154 0.470944338067047 0.8211414441499922
Ni 8.912067476585891 1.4626380648894786 12.515382544131391 0.32497921205642094 -0.2603038833652227 0.8901801920162089
Ni 7.318575158328011 0.21850242252403765 5.186582711592063 0.7206136245365589 0.4753504375545427 1.102247608972547
Ni 6.202956621223546 0.594227113992175 3.139459524921027 0.17730533088480432 0.8549527362724826 -0.8915966127477613
Ni 8.412124246730047 2.157039829477369 2.178845151612945 0.024406453868822484 -0.0619684712829965 0.08749952567456544
Ni 0.8400294352608895 3.3483994496971343 11.478378861591466 -1.868129618428602 0.02583393034396841 0.004067999421786542
Ni 4.036988569767949 0.18899557890911767 3.5552598427708118 -1.1097662859470951 0.18928615739576435 0.652581977778618
Ni 6.8412407905857835 5.280727092259983 13.67593979852627 0.3192232834092502 -0.39987467581373065 0.8412148178610996
Ni 8.483131512150639 2.678987406417054 9.058808384936802 0.8380783291146471 0.17184507910118146 1.1154625650009242
Ni 0.045654835094916676 6.876897877111331 7.778656667120438 -0.13677960285661603 -0.4107920940571828 1.471627715741846
P 1.8713553266365357 0.40281533501019945 4.026378865983822 0.6973801079299151 -1.0801659465821591 1.088071831692797
P 7.854752089045498 3.2158339537829064 13.702211091697206 1.1757770456202652 1.1944669087202846 -0.40227685749732006
P 3.7082904975007582 6.565963246488322 5.448542324572001 0.7384596515790443 -0.3728978901145707 -0.27694277747348434
P 8.277466198789673 8.064835012239442 0.07171129292450072 -0.6970489498427415 0.5932442592502493 -0.3417296920418824
P 2.3478061724121684 6.979563129629723 11.337686823630804 0.9574680186295899 -0.4692062723300177 -1.1439614437715653
P 0.5897509127024656 0.6840338668156734 1.6291317343440943 0.2912247413137952 0.5279451809321231 -0.19300757211140954
P 8.256484877140837 8.71679052150584 7.032142916896501 -0.30773842269810225 -0.3238386706940745 0.4826258881700333
P 2.548030850505153 5.026802879060449 0.7502868540328596 -0.21589270423969917 -0.5682119988719698 -1.1453146153653502
Ni 7.148232123168408 2.2044245075805673 10.835941208963106 0.041379334277735186 -1.0410471262038263 1.1052383161697545
Ni 6.778073620089822 6.909020875770496 7.208674325914765 0.26493212616585343 0.3240996376649451 0.37744797137909836
Ni 2.2927116026215213 1.8794372275730773 2.6159895001294298 1.6941104144942372 -0.41569518778575504 -0.06867056589352044
Ni 3.875108745025207 0.8701240534893762 0.6022457733563708 0.5994948681456513 -0.3337243052389027 -0.0705181606252205
Ni 4.474062236527106 4.768898166895623 13.107006523403038 0.6778245543954907 1.0196648038733085 0.4682909596046
Ni 3.2291704853628844 9.033528496414698 5.974095601158518 -0.6260237676741154 -2.5417697024290997 -0.7762080739724116
Ni 0.8335388038873425 7.482277828391308 12.733116767556051 -1.4296822245479959 -0.7016849059528562 -0.07247811256506873
Ni -0.07757787878269454 7.084218631630761 1.765576356703237 -0.3805433224749704 0.9056916573882468 -0.8926921598047851
Ni 5.383187739691373 1.0129160836611653 9.993818291652946 -1.060027009740439 -0.9985478193890351 0.15055068849877942
Ni 7.644650565389098 3.933997809156601 3.5265797897120006 -0.39116712073740373 1.3054357211613838 1.5863691078515003
Ni 5.244604994173071 3.1104902346710466 4.392332734524536 0.8532126136529242 -1.0365690358278148 -2.1268139639125305
Ni 8.575241002226022 1.7417194035589143 6.936778345891557 0.42584333196335056 -0.7724074692793987 -0.695296485928009
Ni 3.8161359788127673 4.18620147957908 2.29470929228915 -0.37777218748773644 -0.3587858761932208 -1.0397836861103706
Ni 0.21928178190088712 0.4036867666761994 8.693289767217525 -1.0713030968748904 0.3759978691961331 -2.5533725767753506
Ni 2.3457043201547942 6.42650627923465 9.072406253014265 -1.741337465802001 2.4539673008021348 -0.28437403694054897
Ni 7.622274209056164 4.169051853195901 7.37411241912508 0.43198415475376567 1.0199985330636434 0.8660421613174246
Ni 1.7813476888185273 7.133388954129605 6.3328213299893585 1.7861746767213496 -1.659098931416059 -0.1486105340532731
Ni 2.8170400387554007 4.500167985582196 9.694725645451685 0.9536278189478931 -3.303826424601794 1.0169047246296679
Ni 5.288967097127389 4.597206598208058 6.600811212897092 0.1624412692887783 0.3296624764647032 -0.967915696325475
Ni 4.000810670293672 0.4781332576046551 8.014576562687001 1.8609284726944726 -0.8731414913663672 -0.1120147372071103
Ni 0.49670674938873693 5.0081280147559895 5.6542578591815955 0.10441404204171695 -0.645627657947972 0.25043573232189126
Ni 1.123737638965917 8.505368365015164 10.488717076091092 -1.7498709571943087 -1.4535184077356451 -0.7657902210731973
Ni 7.098680491189244 2.860658123211534 5.530731257997202 -0.6293371483180645 0.999953184376994 0.9222822147570761
Ni 7.531308647421743 6.710172631899154 12.067294613529716 1.6074416122510833 0.9891656068431868 -0.9772439157049364
P 4.692552568750548 2.1094784469808516 2.3785583169884266 0.3154141940758052 0.27524764915924854 0.16696692507327374
P 5.5135676812671806 1.0320745599894456 12.217119478555608 -0.5724085534518206 -2.4215094373837456 -0.42993292865169186
P 1.99306745270848 3.2368989775127877 5.733097779341837 -0.29451935290466696 0.6708625212553608 -0.32993064252442533
P 5.4077217496690455 6.663708676687461 12.496910424867687 -0.3136725287943501 -2.2995563580170013 1.3964080358758983
P 8.574004071472789 0.5707672807212588 10.53020540759617 -0.21745053564512226 1.4419052489767492 1.3481317173680138
P 4.440581404108753 8.406358103369108 1.7283614814471138 0.24842024455375927 0.31411064477303324 -0.5204704698216326
P 2.5747876157461542 2.460487773962385 10.977191260797404 1.3459311101722693 0.3472927879519567 -0.7976793564723101
P 7.3915540727687965 5.413171685168256 5.581162691850469 -0.48471979458458453 -0.7951128812967144 -1.1836171104899744
