# total energy = -340872.10696216766 ev
CRYSTAL
PRIMVEC
9.19566777320994 0.00000000000000 0.00000000000000
0.00000000000000 9.19566777320994 0.00000000000000
0.00000000000000 0.00000000000000 13.45878929843675
PRIMCOORD
 96 1
Ni 1.370549934942042 0.5642544601422754 5.75769735304686 -0.7199212264552247 -0.49209243289957183 -0.3043090853015792
Ni 2.848036292214828 1.3872492678986703 3.9698857097861677 -0.3248275169699051 -1.1102861630063072 -0.6054135476229315
Ni 6.1229538809674295 3.216056118347658 1.9229511791255651 -0.0462204644201204 0.960295717886372 0.8889167519227529
Ni 6.295915199018762 4.622138114162173 9.379268633502377 0.13337289116791223 -0.06644501899711137 0.8082841285713499
Ni 4.908527996101178 6.00406309033073 11.03643650294803 0.032779765534182256 -1.3673134325027871 0.01549552453243783
Ni 8.969380931294918 4.1277054410278184 5.105322646287417 0.366428223229827 -0.6646422513772617 -1.693644530601412
Ni 1.2768828614309102 8.239667898563484 0.3412907781675049 -0.9679486064459394 0.1578150833706766 -2.6793304064261143
Ni 1.309463112898605 4.18515997423983 7.443921694010329 -2.1442964369680104 -0.14521796343195634 -0.5920857201657738
Ni 2.746323009266994 1.0886751259555185 13.335130030132074 -1.2729475187256916 -1.30954228713059 -1.017784041910828
Ni 7.125971360176807 5.901467023261841 5.459651962009549 1.2179354241558702 0.9598429466196695 0.1608317587098133
Ni 2.944627588126955 1.522609499793807 7.383424314281054 -0.6322424948903176 -0.22703689378197675 -0.5238504420374591
Ni 1.874932320774124 7.037168794999406 6.048366898839396 0.11658538729692824 1.4252185323496873 -1.7164345319127343
Ni 0.4430187741840225 2.2901627060475547 13.036856586530156 -0.08940548444802666 -0.8524219994308286 1.6746291658411738
Ni 5.876905394227064 0.5670343105568066 5.720578119890073 0.6470276236192921 -1.7350979126501924 -0.28726987043110525
Ni 1.916892153528031 5.277255888664437 9.643868460720002 -1.0014912182880753 0.5910919887939369 -0.74678076985023
Ni 1.1689808939677626 0.877479140227773 8.91546581066826 -0.2540635588824656 -1.035113534328211 1.9443057486705482
Ni 4.782823215530083 1.6361392160286818 12.097904406205984 0.12963604983329932 0.09984082084873773 0.37468866346640634
Ni 0.8250546373721905 0.15325592124915338 11.537695120385086 0.33452726075617223 0.18945893552820275 0.7270292982549157
Ni 8.740473169571708 8.011008419874322 6.257260289318056 -0.5475115330998248 0.33202634871118947 -0.24693131871305862
Ni 5.253816131116835 7.203867863192004 4.802459644822805 0.08556554187664618 0.3810197478907567 0.5124807667479369
Ni 6.883536770932011 2.3009860071984085 4.222923823718347 0.5783280042600492 0.03153252339064247 0.32460485943613776
Ni 8.001306990210642 1.364922186170315 6.2926029194312205 1.8322038510662702 0.12487796632302366 -0.846214070847904
Ni 7.095993482732639 9.017989231960522 8.41443524579581 0.6922967798697368 -0.5698245947747282 -0.2935870708983847
Ni 0.8057584477927914 7.351439942095071 8.164545728562063 2.0271639189183603 0.3272692936421783 -0.784144812320985
P 0.8192153882381272 6.955134241416763 11.755351062832013 0.9104273723010192 -0.7630573955230665 0.19959833795504978
P 6.919501028197085 7.627650219638157 3.3470263383741305 -0.43327690542326025 0.05942667869774926 -0.5615533559048717
P 6.135055379960228 7.716572328498618 6.883914712883838 -1.2994987868516588 0.12146662664862952 -0.9468488483528467
P 1.052821216705577 6.842211439265113 1.910690595077618 1.0767234965595134 -1.7155708983608582 0.6825209314298956
P 1.486470524838108 2.395214016453128 11.077862067395339 0.8949645007787296 -0.3624615252725952 -0.31530235108828925
P 6.231260457819394 3.2206539523114874 11.29870798704637 -0.3805176114433576 0.709190727411598 1.502165222209071
P 0.7051072644906027 2.082662459259935 7.32514768835631 -0.003946643352573848 1.0459641038894696 -1.1365258134291265
P 8.124335831414788 3.417018245238712 1.3514643261581862 1.9467830065664473 -0.11234666662523231 -0.60914936051628
Ni 4.400044342373359 2.271339173799637 5.564549704760731 -3.269464402182156 -2.6716001276613923 1.501321643261853
Ni 7.841017302563624 7.082871264599871 12.505920789990165 1.4520346241012672 2.624816334538634 -0.07242231962646882
Ni 8.744105458403133 7.017811914011684 9.879720790862178 1.5948614615932275 -1.2992061953119045 3.1757680036682596
Ni 8.33144066448152 2.3166278383433565 11.173567820486033 -0.6790944222468498 -0.03191176110693214 -1.3360699011074733
Ni 0.6657396905255029 3.378736679655869 2.966155566312397 -2.0455359936676447 -1.2289212337434126 -0.7731212075169718
Ni 4.559828268284358 1.710265495193539 1.0258558400745106 0.9802726752289311 -0.3404297422835363 1.3344488205642824
Ni 7.4399574415667145 5.495505871259491 0.873532359553222 -0.09745843665949022 -0.5296714195946104 0.6371666716648123
Ni 4.041937446266545 7.8182396331068125 12.006518777907704 -0.3263439536144315 1.1829121140031498 3.171305854131848
Ni 6.872750252452868 0.3864102424213553 11.554694232116157 1.7464408484668374 -1.507439840344449 0.8872740741130074
Ni 2.5098564085072494 3.5018390862034363 13.047112514969873 0.8803886598470838 -0.7673434244929301 0.6166644379464025
Ni 8.5337085762183 5.725930918190763 2.8775028905222175 0.08131936500578253 0.1234792862032841 0.8075451935227963
Ni 4.589144057637734 7.233211239549163 8.615939917094597 -0.08506931896651801 0.1921652787157723 0.5842094027414906
Ni 2.2600744805882553 8.962235897315125 2.2323826461909038 0.6178031795365361 0.2542162824102461 0.15523215313484878
Ni 2.5510162181514504 3.0854592424390486 9.093875561966732 -1.1968040414938939 -1.143771439247946 0.8928441120016171
Ni 8.110560720859155 -0.019406537594531013 4.333258964915152 -0.8761627946911942 -1.5529848759640996 -0.4433600006908751
Ni 7.349187003452795 4.938726569575609 12.047716289790408 -0.12416217120292165 -2.0602403897573547 -1.669798063001118
Ni 8.452483241413292 7.972423397249866 1.7599653216421562 -0.2797535074494021 0.16868107955090306 0.5135716858192704
Ni 6.750245564320599 0.6090520760186577 2.303283085046738 -0.09270909489996293 1.2423393069215314 0.7219408279884147
Ni 4.7756322032106535 8.300708742267284 2.6931306681394522 -0.5867105718967894 0.06185919939864186 1.3058748655813317
Ni 0.9217829487364401 7.6164407004343415 3.9841242820053546 -0.8050949322100909 -0.0006083230079602426 -0.6339954730256823
Ni 5.556905346012468 5.439375514229061 7.2428207125335655 -0.7592256804818021 1.6637755109561214 1.6162666667418808
Ni 5.735117390450494 5.872188016580175 2.735121766164313 1.16247364364314 -0.7525292422982329 -0.13534364174103788
Ni 0.5608364303735646 4.668327954162803 0.3385964474647009 -0.44980472787495435 0.6610900152496292 1.1531886187967881
Ni 0.14258986601986198 1.2333597651293011 1.943045552681085 -0.14453250732915754 -0.0006430329006376021 0.10440555740128471
P 4.013743528400343 8.6402311934923 0.797492461892619 -0.8495094537697241 0.6175306426014396 -1.946188824625874
P 2.9277719288155564 8.364995656749546 4.246611864299995 1.1855469805228358 -0.6921371143634208 1.3391058597203196
P 0.028483581405922956 1.6504752623279018 4.244444445369446 1.4002914300907046 2.077631845760925 -0.3463599917250422
P 6.287068966472354 2.4142582447313097 7.07321305457545 -0.25691722628117686 -0.9955177743134597 0.054143575921939004
P 3.527770869759434 4.707786565240387 5.3551717025822825 -1.7105621322923572 0.43022963395650426 0.48394692097430203
P 5.1098211670376275 8.874877052002367 10.564045845836272 0.10635471070785554 0.4696132779604493 -1.2828048711357456
P 3.9960326719716726 4.938101264156528 9.176094948474722 0.6502795548976865 0.9164699789506732 -0.6083952559590747
P 2.7845310095064164 8.553001087530529 8.32606487701101 -0.5565664442132415 0.328434260484557 -0.30337397508181946
Ni 3.5499416251330196 5.951344326101462 3.5654887408983122 -0.44355514742081675 1.3568842667496632 -0.7234454375583993
Ni 0.5880749183420826 4.332281465414442 11.44637754002947 -0.7971823622312334 0.34970139739344935 -0.8197939289831624
Ni 2.376611180235474 2.4395555272002984 1.8970433043061794 0.8263510133753897 0.33008053783872826 -1.1252849504079845
Ni 4.94186229233894 0.5969137943541482 8.018975546566846 0.08221693711938743 -0.42733302913499954 0.8338792034316349
Ni 2.980656215067522 5.6835572803801115 7.27980568893861 2.043181377392539 -0.603994812898534 1.091726654836565
Ni 4.752725794402855 2.979699865603046 8.372376099828285 -0.582224768211294 0.8046259629934723 -0.5444922866575267
Ni 1.5040526419157918 5.044669859770165 3.9832093130465522 1.2877858692901045 2.6001298875355476 0.761274849701347
Ni 1.9858688586533992 3.004537364675652 5.2873122711101255 -0.38891586280938184 0.3933754412426322 0.7412991779103685
Ni 4.907203819919594 4.305099071020283 -0.10931258292325054 0.0912538505106751 -0.18325023561432954 -0.14211875568134233
Ni 3.1328445192702743 0.7623456995063145 10.512822297212042 0.19047786371102032 0.41323438495008835 -0.3825433836241347
Ni 5.486613660373444 3.954578600953787 5.749688845848663 3.855763083352508 2.584549002378155 -1.3098271653608602
Ni 2.6362692555087746 5.410087311879469 11.893962882906369 -0.2673703032937008 2.6923126776183954 0.4923554567529714
Ni 7.655163658077711 6.638554981671255 7.927455661516822 -0.08640397861754152 -1.9350988853602997 -0.538642255634653
Ni 3.8986505486177667 3.6513606467071678 10.941229155059014 0.9421815247841645 -0.7405422451396859 0.4037853237220465
Ni 7.893092370037954 4.01540794429525 6.911681032191403 -1.4088658020232767 -0.06719603823052298 3.49160025911809
Ni 7.893588936106048 2.007487873951325 8.510477560332657 1.0319955575245194 1.0209639823007062 1.5572500789983568
Ni 3.0605021996833828 6.502468292009833 0.8128961252382402 -0.11874922771746646 -0.18767741814774774 0.29598693858912895
Ni 6.563591896724981 7.259253371120293 10.018170767181008 -0.7431295462508879 0.5502009070065299 0.927540634942538
Ni 6.943216655782517 1.9684614592663412 13.42339280960212 0.4381509456861099 0.15205889761318972 0.10740449212860856
Ni 4.353357936304636 3.680225848332088 3.5709803937847098 -0.5515461081805146 0.07982272585559802 -1.29271133161618
Ni 2.5871735844430046 7.5002626318363 10.301088364910528 -1.2765822872648014 0.17203148408037472 -0.649852494662597
Ni 3.940224163318712 8.341353594507535 6.431175198133488 -1.2797192902318861 0.29535316165987197 -0.39152373274587404
Ni 5.920658382226865 1.739204262161881 9.93285611884857 0.03369944913497422 -0.74941203682549 -1.2945478706042868
Ni 6.26348207823791 8.203970315668313 0.7590527308214199 -0.5027164882723213 -1.0700532836281895 -1.864390463101144
P 8.607071614945163 -0.05606966562210642 9.983703564654558 -1.4102845367476744 1.0876563414219333 -0.8130452974054191
P 3.531173266892668 4.45471258820329 1.6354182756631532 0.07440746837729766 -0.5329012393858178 0.08727326859637227
P 4.907645211980123 1.6051406194445441 3.6616791056887936 1.5465157232999882 -1.7403555615047057 -2.206295504378626
P 8.412969456328142 4.660244962054391 9.16822161759506 1.5489351313747581 0.1664251936371908 0.29829090413195725
P 7.1435902599262 4.393175178431399 3.9908674652967067 -1.4600374398010854 0.03516292105437815 -1.430880615731471
P 8.410201560281916 0.2287615506031593 13.563095235892698 -0.3525522365786831 0.022856592883199345 -0.630943573573236
P 0.13128471186959834 5.915113394466486 6.334082738319303 -0.3946216549449075 -0.3575052097085843 0.48536077060269317
P 5.915278916489184 6.242571129370415 13.100018870824865 -1.499677937010843 1.0597382748554265 -0.8280718527212384
