# total energy = -340886.9195846911 ev
CRYSTAL
PRIMVEC
9.09887655003773 0.00000000000000 0.00000000000000
0.00000000000000 9.09887655003773 0.00000000000000
0.00000000000000 0.00000000000000 13.31712555951968
PRIMCOORD
 96 1
Ni 6.748327452210436 2.3691291075723364 11.628167827636657 -0.41625800226776055 -0.42012854096676033 -0.3007036273385079
Ni 4.581275296239146 0.8871550319341064 6.15492237393829 0.2530158343442417 -1.7408972929407887 -0.17526670318822074
Ni 2.8354192394422455 1.8005221077320652 4.719549104969426 0.15703578200249083 0.33867727836880385 -0.38353737210628785
Ni 3.4671724432588893 4.551585661718266 4.418689289090297 0.5836432458253754 -1.8967483106065592 1.5380750487318027
Ni 3.7400295563487256 3.0566584252758915 2.512834945664849 1.2919436002122202 -1.259186203275541 0.8563910113809058
Ni 5.099701991334504 5.047911185421895 2.657964757953658 -0.2042173247842999 -0.20600038482665164 -0.23980293519839346
Ni 5.640184363438324 3.132925209386836 0.6837960486125602 -2.586016588062617 0.21353654530269678 -1.4339165743443176
Ni 5.787395088817824 8.166014324739924 12.525928510198264 -1.0564608896557353 1.3619434264401253 0.004138704758721904
Ni 2.3673093322416054 5.735413206495488 11.246978579220727 0.03713084341402638 -0.3216866573480782 0.8288277570506564
Ni 0.5958927111492548 0.31820864399465393 0.6475115482931106 0.516910006163884 0.2549981548815931 -1.5771437325984903
Ni 8.095088581224676 9.010845022031885 6.9238129367911725 -0.8572659577866913 0.4310721844624576 1.2125127104784021
Ni 8.714412719532426 2.628592674227991 1.1461745734090627 1.0984598597953403 0.8840553100653936 0.6130780061467248
Ni 9.083199289181756 0.3049133654283318 4.884135955094412 1.3837602652049008 1.7703343672549834 -0.3740569434196784
Ni 1.8605382981395802 6.914918784862223 0.47455555142209044 0.7095735646723135 0.31586979355598505 -1.115770068939014
Ni 7.9994957831013656 4.363830341970075 4.119066920436066 -0.21327840654530367 -0.2898224616496299 -0.8412600692767384
Ni 7.826435149148828 4.276854180037777 12.78023210390363 -0.018581362546613158 0.2720846780502347 -0.255605706558605
Ni 8.137170885747835 7.289774305239543 9.025535158389212 0.5295346369064299 0.5407757570378879 1.0500778689475272
Ni 6.889751292038211 1.2703396640001832 0.6822119341871586 1.3168822724354288 -2.4279891315708184 -2.0260961397754786
Ni 2.061587076678763 7.009174048117446 8.972080167936648 1.0004535210521803 0.8809064800237667 2.15023774215311
Ni 0.3425026446599155 5.134641677684543 1.4187669091882777 -0.7452170249075359 -0.7157660666362705 -0.5542203125785681
Ni 6.610379383264356 2.222673588955089 7.288662422512466 -0.3545625821404926 0.483432957452361 -0.48481338273965535
Ni 3.724688850310662 4.607953202587665 0.6027650926857612 -0.6036166036235088 0.9613035903255961 -1.2205633486970204
Ni 6.323200638321666 5.889812044431377 4.6489290837097395 -1.5100749639744508 0.6662982989234462 1.322123209119394
Ni 5.022407034161697 3.3850550814596443 9.825042531293981 0.4727112001594826 -1.3339741949207091 -0.6317359875675442
P 0.23289848637764057 5.864016729118262 12.255524454254255 1.0174821943996928 0.7965902371731893 2.9614611558584416
P 4.118015090294904 6.550426884993417 12.528338802623818 -0.853462267769885 -0.28102131841823214 0.8019247620122253
P 2.6593650750706552 8.834536089113993 1.7242880795770736 -0.6719459841275267 0.08870614438815691 -2.3588994758620085
P 6.284020875451023 8.266165660066717 5.859082408308984 0.06337537893285214 -0.8020278632489929 0.5836355325158916
P 4.812159291325666 1.653165800326106 12.606177872620513 0.36341231922163864 -1.9385215378886032 1.1157610700779494
P 4.2494028691736965 6.537379095872074 8.307542801649218 0.26448218311262833 0.20633000025192852 -0.7907281219654576
P 5.002171132483966 1.5054910322372692 3.6192747247273958 -1.6545367659666732 -1.0950729456009787 0.5641589118485187
P 0.3337850109380477 6.06388265369247 3.3632405246825035 -0.19297260510841605 -1.6584489565368858 1.8214620391687342
Ni 0.8194502907542521 7.882466031582042 2.5816979738427133 1.482456430926234 0.33489775672171357 0.42558673586785406
Ni 2.140674512552341 6.290108023932319 4.855983120840335 -0.8738534298317274 2.9841940786795833 -1.2632482891600567
Ni 6.171467771245298 5.432202240889055 8.789595827433919 -0.6689359936566093 0.6334596551268703 0.7928091728642024
Ni 0.04533788258983715 2.4636027438672468 10.171847124835745 0.3462360645526682 1.1086105750760973 0.035423888025248665
Ni 2.60084110043434 5.678062986947495 6.965722362657912 -0.31170692042754705 -1.9339339185179212 1.0588718130900732
Ni 0.567700751725567 0.1853341086706538 9.139476751172285 0.172553932242748 -0.031049927327269102 -0.44417452617237047
Ni 1.7166486627386641 1.2279570965474536 11.695339374644607 -1.7970188185247051 0.7063743410087253 -1.1317816138759218
Ni 4.292358665855606 7.387186878693585 1.3256426363011045 -0.7265765269882132 0.16987175742489455 0.7500764098823662
Ni 5.513473407159511 8.528622757141424 8.002460197115127 1.5718223203855768 -0.36152358683935804 0.7293381488937504
Ni 6.672834072615053 1.0708922877520437 4.958325465665328 1.256460833924578 0.43324322397184745 -0.3032587896601939
Ni 0.9127447126348486 7.651527443235599 6.856255597413107 0.07860170896430334 -0.43242329917371336 0.057988660699642064
Ni 5.0185673082138536 5.162438745861461 6.62297950765434 0.09858098029970763 0.41590421847276754 -0.10710290172778973
Ni 0.7762588331670125 7.793369831389442 11.316986246081623 0.6629139558322454 -0.3180385190725297 -0.2816119008143795
Ni 4.891082947419479 0.8048156575445118 10.619208863603054 -0.03586766043088662 -0.5290430419819921 -0.9045264334355518
Ni 8.218769611577821 7.411253407442505 4.7113464676661545 -0.13719226491400244 -1.5166217639540331 -0.4157257839133743
Ni 7.430169972005456 6.604183048263217 7.011985601003426 -0.6156946178339654 -0.7744558671679952 -1.8722053311598723
Ni 2.512654787907106 5.688308322059511 2.5167238055466212 -0.13011478924193076 0.2788759899404552 -0.23146433342571104
Ni 3.286796312476813 4.724600801287536 9.136414069290664 0.9557309813338251 0.5214030089382311 -0.366672220919833
Ni 1.0858690387239616 3.5851757745801542 3.6603980076512594 1.1284047269838888 0.7900105270731427 0.5305854467684475
Ni 1.5210410124383673 1.4374951270044978 2.485614746267771 0.012381404383488354 0.4870486998280773 1.0224660207675293
Ni 1.3490813425609225 3.72070354233636 8.123726385604392 0.7784289928831304 -1.5965257366695278 -0.7166363850563658
Ni 5.571515141333183 3.214578528476745 4.808307736838175 -0.27258501472542085 1.2751208722279266 0.5763351421997365
Ni 3.7255441447161055 7.595805922608609 6.413567951582781 0.5862637141673581 0.2291392848369602 -1.8706400435552817
Ni 8.505211347511567 7.389124939420814 0.6263885061416482 0.10020231795321452 -1.0914898562354105 -1.0428008756701395
P 0.648585215738242 5.7558219868296385 8.282133278706217 -1.7035908431808466 0.03179529013372588 -1.9044382230516492
P 8.625371112599748 1.8121413732187839 7.941654224214074 1.0041841917392063 0.06432257333746987 1.2411969657869721
P 2.019959715988287 3.5113929837956577 10.307921735078835 -1.3838474256020683 0.4828066367222717 1.0023157710718995
P 4.220723209961372 6.576313189073069 4.050896316771545 0.3594759602817099 0.1407756113898866 -0.4354507731461275
P 6.946783050903327 4.131890877191729 10.3720296903175 1.1933878167234933 0.867588422758622 0.2790425974253065
P 6.650150573117487 8.20937957087125 10.39681321054673 -0.5302023523974159 0.37247622919611983 -0.14079849420802204
P 1.9706074090188568 8.877218919496293 5.394301780075916 1.5740825771746634 -0.5020793689089547 -0.6760862315481453
P 6.963970828902083 4.333376401810288 1.5890396473341346 2.3063633536365056 1.4212055545355524 0.33026771414886996
Ni 2.7274610679466176 1.9008645194685836 0.2795557060822579 0.8519918538719456 -0.31301278372316416 2.166707714783675
Ni 1.6510639598191117 1.2457090048987365 6.9147313480031585 -0.5753239273264028 0.8771251586044635 0.42139532349432585
Ni 7.299182543699424 1.010339263621963 9.622835465756788 -0.7433380627172682 -0.5791520428232413 -0.832333970431702
Ni 2.824264016664863 1.780404491450832 9.250887946357976 -0.5295932580585073 1.6630309194806134 0.5507711776877031
Ni 6.697601214866304 2.431065160953773 2.6948934587401863 0.7088767957156049 0.4574303627410122 0.88374009281782
Ni 4.543387573853321 7.108706659831789 10.433488962562286 0.1433965939525014 0.5955235422027293 -0.42293130052287814
Ni 7.192525511565268 6.483886800025231 11.56180881031388 0.7314359119630436 -0.8414217916655832 -0.5196320330807374
Ni 8.202600907764275 4.149469906886592 8.318516046893526 -1.9235695445644614 -0.4102231089275903 -0.8486411922321577
Ni 3.333682823873102 8.780807222474154 12.379373813825493 0.26604027162836763 -0.7549741042942998 0.33318900156072295
Ni 9.025930959523645 5.283208135685439 10.312222774073017 -0.26338097962864965 -1.0924213669107443 -0.891764248673877
Ni 8.72295656471021 2.6772534665717433 5.909994262736851 0.5428501230684134 0.6779495100091291 0.15351131378900015
Ni 3.569134455039759 3.0535102139537265 11.684952097056792 -0.18923679221506765 0.9471707504686397 -0.17257218707519312
Ni 1.3263705464333972 3.7063546138535446 12.6143013496969 -0.7077881906371165 0.3432708112767572 -0.11400399972299721
Ni 3.2226492320685383 8.904743021373601 8.2395323382138 0.12200373009902213 -0.08859121607684743 -0.4561206427906532
Ni 6.050370821861791 8.23845048177968 3.5714801454410714 -0.6229749535454625 -0.23254136853997368 -0.18672148199238167
Ni 3.5518920837810803 8.773801087450838 3.6554846142582846 -0.01208315641677919 -0.48855382361869404 1.112103161610388
Ni 4.077579682446056 2.9550421708078614 6.823016491109636 -1.4295600971478346 1.8769099357243932 0.42766804387691515
Ni 5.257385523742363 4.790230998590356 11.808468437742508 0.34537628765553424 -0.16428243626257513 -0.253406384914441
Ni 8.183393179148407 0.19560765030029684 2.622674764852453 -1.3911401026087395 0.8693516853066318 -0.23216830147127113
Ni 4.790977106475955 0.707424011506774 1.5035566110607017 -0.7673565371190526 -0.14292196830892806 0.08593243829776168
Ni 5.9920925168951245 6.125773212690638 0.4050601513167966 0.8695123792542122 -1.6260792819569283 -0.10152257942653484
Ni 8.03240641995764 8.93383213003534 12.091750133814438 -0.19249695102357817 1.0395371173172032 -0.30529896001867424
Ni 0.401093950983468 5.261816676672693 5.942500909469703 -1.0659644582707963 -0.864931187641433 0.6005266518442754
Ni 7.131098995276437 6.258835184873703 2.507428393157246 1.9708346481990122 0.6371155067119026 0.34148800834472154
P 8.638955735443655 2.1075909970396483 3.7036122124301327 -0.594281442265512 -0.5032363653315333 -0.25079157299941324
P 1.985338490321126 3.588387678038895 1.6389915702750408 -1.5448149385587975 0.24050150392731484 -1.6972880408912705
P 4.800858486521826 1.6827644460804492 8.386472826956686 0.5159478993609308 -1.2340734673683134 -0.008211846386831019
P 8.746759226036172 1.9194626233486565 12.339222290928241 0.438461020727361 -0.174417467814048 1.1236972942058905
P 6.65625591935209 8.10077537913321 1.31150753141965 -1.180896883345334 1.0746640429273233 0.42844940212762983
P 2.0134176236743087 3.4435608583426522 5.947028510492562 0.0770706170317576 0.44528010053172346 -0.2732820407924455
P 7.0651594361673915 4.356969788973218 6.158238004590882 0.05333830641182428 0.23896964066382068 0.6668731975903096
P 2.4369066397654198 8.945442296645405 10.242773778238659 0.4939791083993235 -1.2145598228154177 0.8872115963061883
