# total energy = -340896.736068427 ev
CRYSTAL
PRIMVEC
9.03381757069586 0.00000000000000 0.00000000000000

0.00000000000000 9.03381757069586 0.00000000000000

0.00000000000000 0.00000000000000 13.22190516699439

PRIMCOORD
 96 1
Ni 6.298079438714664 2.0716079255726827 11.526658775401735 0.2690985988387172 -0.6258599884027415 -1.579686553625002
Ni 4.641087600706723 0.11412692650844627 6.061370835907989 -0.09505985452032661 1.5000720871254682 -1.0504267676465135
Ni 2.704932734593377 1.3988595370214736 4.783076627120764 0.08196728300242657 0.6451100948816051 -0.04724427769894444
Ni 3.4063815613133417 4.505309323817712 4.956046227238277 0.056570697306192894 0.05113564233355064 0.028890457782105083
Ni 5.3739018417552735 4.52180507455619 2.830955391973909 -0.8011184640608461 -0.009173181858835814 -0.5244556797216258
Ni 7.372697198350882 6.005058534578139 2.466387556690792 -1.059203485397879 0.43987589879701666 0.2580204866476846
Ni 5.051087407533588 4.66648166167379 11.252131902432689 0.45459957816043645 -0.7878423157772303 0.27680008124803296
Ni 5.5023175573891585 7.9714495878337015 12.417444672769319 0.3547523295537955 0.24240643425951153 0.3006953998083918
Ni 1.9670053528449474 6.2573820909179245 0.38829064001435787 -0.5674095575753324 0.6672272384956186 0.25704295322576376
Ni 2.689195824524138 1.4111545626266595 0.4193073489877931 0.06282259175317567 0.8842268026462514 0.1941231737730915
Ni 0.34535471224336034 -0.1408209538124609 4.608283099251828 0.8851732257199207 1.1111608523017766 0.026915079223289128
Ni 8.781051277555346 2.2654375136585534 1.3623719481755177 0.15768112889597358 0.8210180311982505 -0.2995707992856454
Ni 6.822104089912328 0.7165913115982986 4.779282423774564 -0.1212362558053783 0.4292963235089574 0.04340793467198976
Ni 0.4549448556078504 7.118874028307598 2.3471655571174486 1.380895799172912 0.7308738688119863 0.4810570010210167
Ni 7.477661123778255 3.969007714649844 3.963966844489893 0.6048959845565647 -1.0823387858637616 -0.18120775126300406
Ni 7.652998487460146 3.7358539190258586 12.494990962111652 1.1279203311483024 1.0490787382590512 0.1323822451198688
Ni 7.917571900317663 8.947607770636031 6.9579221155983 -0.25617649146041044 -0.22927992417988255 0.024205907822242183
Ni 7.099650064686852 0.6676117599258541 0.6036884673598762 -1.260131597907946 -0.32490979227106626 -0.5442369761136111
Ni 1.8984748133585843 6.5183961796840055 9.27881552468856 -0.3951484739826549 -0.05772537973592639 -0.4518289573938348
Ni 0.1971305449970641 4.680041421727709 1.396246053621341 -0.2557874835521079 0.5258939548300491 -0.3381823410102563
Ni 6.430334526782204 1.908728196210815 6.963448101757515 -0.08208195420341993 0.2238620955984209 0.6366804760570132
Ni 3.581077523953375 4.232325426876119 0.3328627494168716 0.13096196773357446 0.1291681090579453 0.2520634977333014
Ni 6.124910191230602 5.711965359901686 4.923599464956023 -0.9607016950755389 0.2879717815941363 -0.26130815626002096
Ni 5.435882863560696 3.0037623833765847 9.083924463047504 0.6379829969185206 -0.5551163420302762 0.35278954940046986
P 0.12375787933555041 5.525290555268651 12.442341873774383 0.30590831146789893 0.1440861638203583 0.17251125193027064
P 4.020726319785545 6.171082032426858 12.60130815339917 -0.10592507936960466 -0.497896955396491 -0.847475968279463
P 2.2182900201732734 8.266457931818236 1.4001866048108942 0.4637971854993045 0.03170787262624217 -0.3173036977890342
P 6.48721144170524 7.791026184904405 5.723815921686318 -0.7674447259574847 -0.4742428063126607 0.11111999330698283
P 4.652199196220594 1.1462288308869955 12.620215933407735 -0.04416203922919491 -1.2831342294507064 0.3042643481065728
P 3.973876942277467 6.093056950757504 8.195756565988797 -0.5379570566421702 0.914602072503999 0.039726886275976744
P 4.612043877473311 1.1688585437018308 3.591360718403326 0.3651388149944421 -0.9097506579489686 0.6957849955286534
P 0.13631127212097757 5.316446762512817 3.6422382751306195 1.5000422623287974 0.8770693656658638 -0.27951233797287345
Ni 1.4482293496095273 0.9680006456079998 2.514052687918303 0.2114372395715068 0.1319191894405212 0.5684688520777823
Ni 1.9127392111767978 6.517077242330327 4.8639292936647855 -0.8775005396660114 0.10867050332522574 -0.69097960372021
Ni 6.006106457407089 5.792294065031234 9.153829046174241 -0.2175541511025221 -0.01785296902102087 0.25141069464065086
Ni 8.79143113385245 2.385930571352873 10.222357109439807 -0.9804729641651954 0.6277919153181317 -0.21187638399145445
Ni 2.249041134912475 5.231637283907759 6.932799972537711 0.15689539976988465 -0.10593870621635948 1.1166136478862319
Ni 0.5833199190630264 0.09042580293918412 9.120985699304136 -0.05829847863057701 -0.3102529615898399 0.3775518439468143
Ni 1.4439021510313612 1.226078743689522 11.474881450452342 0.3567413349593663 -0.7856489076703372 -0.524755984570864
Ni 4.115626572527998 6.687870595814268 1.520598358147796 0.5354594870312972 0.7660848694954807 -0.03637622463618896
Ni 5.734269855286847 8.136831684640564 7.926518993160702 -0.03875680905322358 -0.9912751969870219 0.7995922572243068
Ni 5.154949207227065 2.9034508739570515 4.963265150795296 0.4129289378945275 -0.5639511667130869 -0.052503726325670866
Ni 0.7107789534246199 7.514473930053885 6.918494019159039 0.4748231042961629 -1.1310246811052391 -0.14823078211635118
Ni 5.097801277779301 4.554110005903834 7.165664686001985 -0.25373214368497593 -0.1116306143948142 -0.6914308323250157
Ni 8.115846126609082 7.266866026444377 9.017842088101188 0.13795742521480112 0.5634634284433908 0.9483521723712507
Ni 4.542618990055344 0.2840232219155368 10.414259784254858 -0.036730008431181904 0.3907408318332626 -0.4285625306667265
Ni 8.367880600789157 6.903480717870825 4.828944028667576 -1.015523270901109 0.3879532417857964 -0.057734892817623146
Ni 7.2312095488075885 6.163168408304784 7.11300114355673 -0.27049033697992125 0.4126044646755733 -1.3959046138769187
Ni 2.289711381256742 5.290293860876511 2.6816534903009424 -0.14192849404740718 -0.6677543146436823 -0.04291171176186158
Ni 2.2615529721374434 5.251258735498106 11.443466350127556 0.561146093164124 0.020439241690958346 -0.9410484396209857
Ni 0.9929610833355007 3.2414421215635367 3.7505383893574016 0.2363473725496252 -0.00810051761994734 -0.015494496091173315
Ni 3.5346708035023533 2.9840415597938357 3.097905602213295 -0.7156943328580706 -0.06926397650314522 -1.5513170013433735
Ni 1.1704484955802386 3.328130634206714 8.19407717931723 -0.5942840133686733 -0.08010991807871365 -0.5192198852439833
Ni 3.6261472394157357 2.5890830590894063 7.032770907037834 0.14800221104531283 0.050946152030563865 0.04124383714113542
Ni 4.057376517346338 6.854869745952011 5.997112388713098 0.5227466674503191 -0.6685932656052098 -0.1283299294273661
Ni 0.7615029352545675 7.362714830023379 11.45838027942337 -0.12217547979019604 0.30084632356395924 -0.31100963725020636
P 0.22644257260995665 5.696490430539685 7.9572204219037035 0.8806336859783543 -0.4062839217741841 0.5926505915303084
P 8.515104724439205 1.6992791376830885 8.067768149922234 -0.19940550521795336 0.5366583924354048 -0.35629139190614123
P 1.7780269247517186 3.295166234182229 10.375255373855921 0.42879315862029377 0.02028600394254571 -0.25745870060694365
P 4.078109128488074 6.181588362168836 3.6403610478559996 0.04619655316072043 -0.8114100757948414 1.5312767948630466
P 7.044995468866591 4.072146808944045 10.310216404829811 -1.0187993705492195 -0.07628900167072666 0.06718215427345203
P 6.298196878342047 7.885140495525145 10.24396148396942 -0.43329284626286024 0.0959895654234476 -0.7048162524929862
P 2.47384768317482 8.506631003632691 5.63800549610326 -0.5211700669918186 -1.1031274404743387 0.8506793057081092
P 7.117067264809408 4.000987428567814 1.5717144076568508 -0.8228386293467572 -0.5869237163488601 -0.38219448492514824
Ni 5.56893292756744 2.9034960430445063 0.34329319509192496 -0.3094847159652477 0.28818724003905205 1.179422869902969
Ni 1.185029077010635 0.7773726424409231 6.798624294871594 0.7972145010207496 2.09141938646332 0.4748722123665435
Ni 6.909912795924383 0.8740227456313734 9.368962182667273 -0.41102529311391156 -0.3054146596609321 -0.4416826129884523
Ni 2.620457507235483 1.5805838096694678 9.13515975894744 0.9278746212431892 -0.6293597740258838 0.3373768143898254
Ni 6.417380032500179 2.052682077929138 2.71281745049948 0.15859232785633334 0.2388788807222273 -0.8123698686049493
Ni 4.066464537742236 6.753952970760585 10.431884762179706 0.1307663067830006 1.005673631800539 -0.23821939276135753
Ni 8.113199218084233 7.205237323521101 0.33702733928020057 -0.13227425878709476 -0.380914332661144 -0.4017125003534179
Ni 7.795976716889446 4.084721882891451 8.143345067051541 -0.3913789796378937 -1.4007388020407683 0.33258582075908527
Ni 3.056700553873564 8.306459675668172 12.378704049841119 -0.17807537628160944 -0.053308995835785605 0.4927809743261642
Ni 0.03780652619963491 5.017915229706812 10.22377180525889 0.09301839861026562 -0.4548944836930359 -0.28544001631121807
Ni 8.55120385913305 2.374728637664093 5.7358869086177275 0.7040184391820392 -0.0742593728352076 0.05579396704116842
Ni 3.57239602534457 2.659808816226071 11.534724167657659 0.29852384607836974 0.5033993732719588 -0.37938066962543693
Ni 1.276135126406888 3.413527310948685 12.556063181877485 -1.289313875898857 -0.21161567413090007 0.7196150080687156
Ni 3.010953302099382 8.220448699336817 7.902851294716156 0.6446989754861155 0.39988701710890484 0.35775075006048707
Ni 5.456940692132106 7.940806878904392 3.6325865445232863 0.7259412073970595 -0.09967087092977674 -0.048844532306528785
Ni 3.0810195905592077 8.232590150044658 3.467048162673831 -0.39676441231952314 0.2810076915714773 -0.16890939351162523
Ni 3.463917944913216 4.199939191171055 9.277387278143241 -0.6252598929248973 0.653853388291874 -0.0825486094271933
Ni 7.174793358576593 6.2782502093220245 11.318743659083973 0.6935720470377345 -0.8316659978303999 0.3386248278643136
Ni 0.5542716789208697 0.038387400664303135 0.2015842170201035 0.09175341585491295 -0.4591889973033318 0.491992674096914
Ni 4.581500540536402 0.19310236577784848 1.551431680626165 0.06679288925483336 0.38217828697523215 -0.42877876044259056
Ni 6.115560190127466 5.538461861170458 0.15701045813799633 -0.7263842084717489 0.3668354859705747 1.091898404527739
Ni 7.869231942923578 8.888273657355457 11.471496479038482 0.13249331677643636 -0.4087838053779024 -0.2555380865454632
Ni 0.05993847567071867 4.881965310285471 5.830503499490964 -0.042690596889990995 -1.2890439100669218 0.49225184129557165
Ni 7.708484194489575 8.720217550571274 2.7327830905362336 0.13604195335964311 -0.7935527358984462 -0.2792259170807062
P 8.516532067602775 1.584667095175378 3.4252008099104936 -0.27952236527520247 -0.05318146911898583 1.394969503657159
P 1.9463811475131039 3.3496582212876524 1.4545286305459681 0.35660326671960524 -1.0045713998752959 1.0693680846357068
P 4.748020898347124 1.030361087748043 8.135980699032917 -0.6770465385788855 0.41864655710459514 0.9073433340590568
P 8.46704481538734 1.6707322744116795 12.429278070300718 0.21532166222757756 0.4483147735929892 -0.35476287107675675
P 6.204922712747965 7.692503371348081 1.3307843019366543 0.7736174304270999 -0.36332978681016137 0.5786149393728487
P 1.7962481346309693 3.071579251281163 6.017289420079139 -0.5617950396020325 0.48151697137657073 -0.7942628745915935
P 6.846667039670227 3.8824366416340492 6.081811654744767 0.44230019196779313 0.6392459227913442 -0.3007293383701208
P 2.34728390012658 8.538836562987937 10.289418750202142 0.3097423405020085 -0.17308537926618578 -0.605472425885325
