# total energy = -381167.06658256747 ev
CRYSTAL
PRIMVEC
9.25224242312412 0.00000000000000 0.00000000000000

0.00000000000000 9.25224242312412 0.00000000000000

0.00000000000000 0.00000000000000 13.54159201724725

PRIMCOORD
 96 1
Ni 1.6737768865887062 0.43481282604676974 1.8241739350222859 -1.1537059247528387 -0.39402901566623105 -0.33010084955370245
Ni 5.613844254288884 7.782569840736978 9.03657527152588 0.815696361875021 -0.8855087546824686 -0.24887353004109397
Ni 2.5562650058762735 3.7897091786841015 13.256027047496625 -0.9369680989040249 -0.7246880517162486 -1.0199820780034112
Ni 0.8165510895760444 2.170455755751277 7.183841515086153 0.7033491810291564 1.1324565284557595 1.6885380626127822
Ni 2.054053295840426 5.288331866991882 6.035839949128714 1.799317384750895 -2.730663252372136 2.0023787415538803
Ni 9.144240839067777 1.966008958465682 0.47573271790335675 1.007906892006432 0.8680450506800663 0.46392882598116236
Ni 7.817376776130399 6.403643410585678 2.1774745067319916 0.5359917053856833 0.07976693291699812 -2.515751166878151
Ni 7.495556033496337 2.519737153421935 6.361962059190846 -0.9994443630613755 -0.2934394895769269 0.8320480637601669
Ni 6.422360696683735 3.567766391279166 1.8203287031377813 -1.421610760393771 -0.6862343757257408 0.17221428951514212
Ni 6.496748724478286 5.683032521931626 13.38771883774709 0.6147283972659542 -0.5721637844308662 0.8349035309310912
Ni 2.1178197495170483 7.7419710016869185 3.309795372502094 -0.8034414557670679 -0.08142863689013718 0.30425766323835346
Ni 6.0513642864218085 1.2769667204129982 8.04285206963135 0.6057573041155956 -0.7083918856593864 -0.11571763997999426
Ni 2.990426474067728 5.543684501208525 3.9704082457532452 0.9217412546519415 0.6964043742802071 -0.3577054986448484
Ni 5.246937335107203 -0.2306278672172173 4.275662848615399 -0.8017177882077418 2.388562807254396 2.708249146342994
Ni 6.03520061918834 4.30033117693702 8.129261535798221 0.5484492144227459 0.1689567018097929 0.08455509833426084
Ni 0.16529593414969473 7.364951381711775 8.122572164642069 -0.5514967429998179 -0.5317465569560842 0.0027603363539565363
Ni 8.748217113484424 2.9573589602197523 2.4580024921462678 0.37460073173829034 -0.5107828102202235 2.820327132687872
Ni 2.046975330509228 2.835488425131466 2.0026256324457457 -0.04695811391709333 -0.49897990404802456 -0.40612322782660376
Ni 7.583507848448452 7.3567723995512795 5.833149227424636 -1.199154544003941 -1.6289666308070527 0.8517180313852686
Ni 8.66568711249843 6.817144621803845 13.067839215539806 -0.13350556009103456 0.7551772214440414 1.087887740706449
Ni 6.501078773857371 0.7822558031797682 0.7715851921778457 -1.779839221421625 1.964424373797294 -0.924077616094602
Ni 0.6263027832672546 1.1060130401194765 3.676040756361968 -0.6642031069573142 -1.4939042677518595 -0.5098623552884832
Ni 3.1255277155921095 5.223936260841376 1.580561471013169 0.5746531265116233 -0.046596359702300395 -0.8780597546035911
Ni 4.270187371644153 2.8263379575333554 0.6777646799583081 1.8125228276975753 -0.21534788747982267 0.559826603021752
P 5.115287179946922 4.500262879998269 4.838830181128367 -1.1066891896836684 -0.254358207304749 -0.11454573115908015
Ni 3.5316456374843996 1.6284686562267765 6.759583647013019 -1.3160044978161658 -1.3755787578353729 0.6642861535894237
P 0.9217398318641348 4.728478687657522 4.305833485410828 -0.059982294090903145 -0.1131341955235342 1.7735053087837973
Ni 7.328553060649118 8.934168678486275 12.2067561587277 0.35443325565147993 -1.2332859384700114 1.2277099870441308
P 4.829189344690318 6.241174036447331 10.604894175576643 1.1427321993501545 0.4235239398015545 -2.9955611828659445
P 2.4832463099366477 6.819494691338648 7.447929191223299 -0.2753000996637388 1.3812434123203179 0.7199945028953213
P 1.4184520090988526 1.0306165179182585 5.6362809417766675 1.8052689743486392 -0.8328209373704497 -2.520953794125013
Ni 0.95897640607582 5.001771419622128 2.317440577238261 -0.8899256528032415 1.1747570889961831 -1.9178519253543935
Ni 1.8244866608107755 5.857446540831511 13.102546226716788 -1.3185591459172197 1.0029811725700404 2.3743088684385434
Ni 4.66385177545044 8.114244221381139 11.272820021112473 0.22197310610582416 1.9737700766782522 1.2641252924483712
Ni 7.8136573747406715 1.929989979335808 12.194853149056344 -0.6704205486219358 0.6057866146916341 -1.073867772278273
Ni 3.1863704607136225 3.2849623542681914 10.853517653995404 -2.2976660829728237 -1.9425563700796094 2.2152858808026945
Ni 8.332069760979039 9.200059616640479 1.5634577759657802 1.4883879659193207 -0.8486512195344869 0.4938335839603946
Ni 4.232410466484309 6.4850816469846375 13.244475623031265 -0.5999296416902249 -0.7620893751828424 -0.2427316788094142
Ni 2.3393091770510965 3.0455883424397565 4.487669653054095 0.2377378251392486 -0.12794554950475387 1.3759883345689656
Ni 3.6737323219173486 9.23970547473745 8.724833921613135 0.06775191073399299 0.4405094186159575 0.8568044447692406
Ni 4.94802514431634 1.4809601578277065 2.6775656028411587 1.0030068836016532 0.09308704706467194 -0.9185245474868569
Ni 4.769456868640365 8.489339374965578 6.8763793272200475 2.6151878103099353 0.7755940945374965 1.1956295615698185
Ni 6.850869044852494 4.820445975751779 6.106486370152106 0.6849763349489235 1.1213779020440946 -0.9632864250835796
Ni 7.4101300806820225 1.218612828460233 3.4151488047024654 -0.3177793518738721 -1.2509509598499424 -0.32799614450587383
Ni 6.100216125570467 0.5282919305268026 10.466892356102809 0.4491758360417038 0.09958782429766719 -1.8618077899756322
Ni 6.541520324788961 8.143351775540548 2.8771410945752827 1.1242845341679284 -0.28320469922279606 -1.1638211588099696
Ni 5.114445225900989 2.0495382016160804 11.672310561871772 -0.18965742469225402 1.2310166828198605 2.0820790828990012
Ni 9.388620313960496 2.7544757918766045 5.057716952913833 -2.052395182681323 1.4074900047216727 -1.1943105856480787
Ni 3.22621986814038 0.7338018104484171 11.051577628446847 0.9552087902817678 -0.009773020226363815 -0.37148789714092156
Ni 1.3894739863311247 0.24298146108678004 9.60724524728992 -1.1798437594904712 -0.8152695587502475 0.014114070803878918
Ni 4.716857871375189 5.979529877491847 6.857096729119721 -0.38376362918448104 1.3659641175637445 0.48141824101517744
Ni 6.914209895385018 3.2945846862217154 9.935343636299429 -1.024364780452139 -2.5928048146290443 -0.8670250940559843
Ni 6.745763572744771 3.2386548817418572 4.091821720073739 0.9010032507736417 1.2994663909518265 -0.04791636406530458
Ni 8.748485428510051 7.867875514401874 3.9543074937671663 0.441602137459504 0.683703381773771 -2.1888706240339597
Ni 8.153816061540006 8.641566516918779 9.924442644465158 0.3815704781879042 -0.41185113144931657 -0.14303072597265046
Ni 5.109097429872973 2.186748954376427 5.12485584889532 -2.0128014795491014 0.5649886068386657 -0.8160709716056204
P 4.325737834191228 7.608562920496666 3.0398436252186576 -1.2203759152765628 -1.1757420786172719 -0.971558692394701
Ni 8.146071934765873 0.24967175746715808 5.570726029670606 1.3428840958158292 0.8048751028898008 -0.7099612870290354
P 6.132987567666028 0.7127612863181201 6.042285061089122 1.1472354865371468 -1.2141368763453866 0.7197880433114701
Ni 0.7371048609363094 6.891856478077601 5.599935358494909 -0.9678192799569267 1.8401899545955405 -0.013405731882944654
P 0.46044153711529034 7.580223302445085 1.8245939868210264 0.43220012741931374 -0.6180926857524968 -0.3561183566633867
P 4.375403870659032 0.09771015486690444 13.236960026641027 2.2476979785848132 -0.7382087119105029 -0.7971049720260789
P 7.090825947943498 6.552262178056308 7.775067197485909 -0.02222153040236173 -0.913448161405214 0.6953453368880734
Ni 0.6044092024003087 9.37113357608342 13.069288116678194 -0.5150554694536484 -2.2599760246212175 -0.7060071874772937
Ni 1.5384535912500124 9.179954494202972 7.354994118588331 0.9233682487324032 -2.146536896262755 -0.47623052616665085
Ni 0.6744616294704159 2.9879098641721904 9.354410148193042 -0.27961621054058944 0.4470973562461203 0.46596256858173946
Ni 6.86114828600669 6.716535739435941 11.155915164446741 0.5773561272650831 0.1089227285453479 -0.13960987321655957
Ni 5.896676048026647 7.7563397339213624 0.6718497214795698 0.17754907146449422 0.8804737633617223 -0.24071953347539185
Ni 7.64372144109608 4.405011045900645 11.567525217346349 1.1947088495277618 1.0425162545501854 2.677199733236357
Ni 5.08660522893161 4.6543219659195465 11.791991091216406 0.23295171660451494 -2.7441067794715512 0.5033412663405138
Ni 4.60348089468434 2.285627667441149 9.268935158494733 -0.6894497973392448 -0.9812561221881229 0.6975516005107728
Ni 3.9341089236828024 3.8612660203461733 6.673188059209543 0.06664453660242717 -0.2742053239376632 0.09231417345438939
Ni 3.083309734146023 0.8448546238827994 3.8651898962899134 -0.7209998042313841 -0.3167910198186738 0.686756823888114
Ni 2.4599584161606667 7.941292056758809 12.317553610275622 0.045364544177728325 0.7501980230618951 -0.06071840092597929
Ni 1.4205337636080286 5.111419742680987 8.795088047564574 1.6925096456660207 0.7985759001446504 -0.5647613213192081
Ni 3.3167808154106617 8.207904669809526 1.1964675866037335 0.39653018482152996 -0.7250233235684803 -0.2282355420757682
Ni 4.047911503517749 4.4258100865078775 9.303899382006623 1.1617609338468313 4.54688795440133 -1.390900475794108
Ni 9.122747880290818 4.205551207194809 6.817974547934837 0.03636799710607285 2.0544772620213325 1.0595883795411234
Ni 2.530451249962493 7.316404866557794 9.861786459860095 -0.8662218814283985 0.9747769422216825 -1.6266513524103146
Ni 2.9839869134526773 5.635901599843884 11.230732496282293 -1.1220633581468933 -1.5619539122319293 0.41011255149165504
Ni 1.2047899785193055 1.6785973048077312 11.29245512964302 -1.5254357627012374 1.6186423660629092 2.1273379547368005
Ni 8.388184610304156 0.6939431507793967 7.853514183961239 0.1567028241431043 -0.23148361669942072 1.1751316987267826
Ni 2.6971396465727695 1.1979803282137347 13.492219213210813 -0.9132869532370013 1.3526663720135736 -0.8073608454261321
Ni 8.48482428074123 5.0344040780837425 9.385542092959595 -1.5225353012249907 0.7961372087961708 -1.401855946364347
Ni 5.408277935689464 5.75965034011156 2.1085480775452923 -0.2633015325409659 0.5059666197785028 0.41654005228455354
Ni 3.3048731796181756 8.013117213446508 5.50303199915334 -2.6891137110651235 -1.3793888756100823 -1.5090166979132655
Ni 5.382806512739414 6.615112659748894 4.601040153175359 0.6558915017678253 -0.4546013779326494 0.47910759060412966
Ni 8.273863904902482 4.215525124354327 0.8117371479266035 0.6455217284977269 2.3091285750864685 -2.5618212217633363
P 0.4053546119055919 3.7845001662900306 12.74010536487546 0.3594412503890326 0.08198039562854914 -0.6640727520270369
Ni 0.4270788767391248 5.719162527968655 11.269665006500789 0.3457390703115917 -0.48350751944403825 -1.2690947206385048
P 8.374158211033443 1.6693173058179382 9.986354948792275 -0.278625564492546 -1.252035965384005 0.039006463170184434
Ni 8.158729002181662 5.127056032105464 3.9032286399058007 -0.08498935765820202 -0.1508131981315467 1.342442123182404
P 6.258845819169668 3.3265696877249193 13.151377710932469 0.3582048068787702 -0.10120839062022569 0.46883911879858614
P 0.5362025976616708 7.901812739022572 11.239575789437273 -0.31949479190308205 0.4687750983298701 0.057554915596333134
P 2.675600426584497 3.032218852369716 8.535725491551148 -0.6719097315729525 -0.6819275208202706 -1.1684311467781554
Ni 3.9734124488160427 3.567720130067851 3.102690406014337 2.473998251311081 0.18066190606186305 -0.5670475462502235
