# total energy = -340871.4215309459 ev
CRYSTAL
PRIMVEC
9.22671137561487 0.00000000000000 0.00000000000000
0.00000000000000 9.22671137561487 0.00000000000000
0.00000000000000 0.00000000000000 13.50422474849227
PRIMCOORD
 96 1
Ni 6.0613036378615455 5.320361791188637 9.556940200192455 -0.15699824389633607 -0.4286381210996683 -0.7397783703904679
Ni 4.409648451454593 6.250801840279459 5.373344337091081 0.016119274159365787 0.5170722427733611 0.8286554931388502
Ni 5.654387203786424 6.655836025192382 3.236152829912015 0.12223770048669916 -0.3280079715804157 0.29058787906074474
Ni 0.5369983046062702 -0.02588369399371774 9.299049920863323 -1.1282823424734116 -1.0610112280305792 -1.6074380127066572
Ni 7.840841046759116 3.6044425586310966 9.249611354878533 -0.7724007844111794 -0.23346465168519145 -0.16748783057375027
Ni 6.686597881598134 6.367953397203224 11.526868957188825 -1.2364216558855157 2.7033856476031053 0.7077303408159876
Ni 5.916610346873245 0.8353883117420607 5.414059969948701 0.1542037118703344 -1.8046812201659692 0.24606125740327944
Ni 1.258052897140919 8.884483620217715 12.39939016968222 -0.3889120061546399 -0.3550184387309886 -0.6789365565127469
Ni 0.9996865194942914 6.760300853694458 1.6973458621481894 0.6426379791920287 -0.29211022924254204 0.761918911043249
Ni 6.532659425607264 7.615229495219393 9.155149204399695 -0.340919023215129 1.445386008436498 1.2153368101907585
Ni 7.226701897322033 4.038125682998086 3.1395703811122293 0.9266525759106298 1.3083508379256499 -0.8885539692666955
Ni 2.723734484953292 1.9374064440212682 8.429134331719956 0.6019351021560279 -0.1479613305050484 0.05988176395729688
Ni 8.789559211488749 1.8096441687811835 10.792765949138577 -0.29384058167008753 0.3661785691128661 1.2228045793227134
Ni 6.252508781921651 1.066035802461826 10.737020003118099 0.15358407600846452 -0.368521615423746 -1.4059792245041012
Ni 5.214466822391754 7.712100740091613 1.2790676554341822 0.2814478644326895 0.5186467863493326 -0.31952050293469486
Ni 9.167023982202396 6.215574255469274 5.978117451603905 0.15997301025394386 0.6221671129321865 0.575020794263687
Ni 2.4763755742209006 1.7835602551461924 13.134020022963654 0.052154313406052116 -0.5269406509270086 -0.8044590983983049
Ni 2.854901416766179 3.3727136973142247 3.7495833451309997 0.43110020948691563 0.8352226048334067 -1.1623821123705982
Ni 2.6179133298490433 3.3073978060435847 10.590701888220664 -0.607471715703541 -0.626302732367115 0.021215971955982814
Ni 3.7263920055761535 1.532602926897831 4.736728918246557 0.7559500950543239 -0.5466275878329747 1.18165227345412
Ni 2.525950695537068 6.701517474222039 7.129987506546662 -0.9946338290466096 0.03429594506839255 0.5149410553629712
Ni 8.625120757720511 1.9365206797096448 3.559416206123578 -0.26052885489183514 0.521732881473824 -0.1199008248234064
Ni 8.708797805034177 5.2373398403971105 0.35570818480939875 0.008527577855036926 0.40119647994894775 0.9900294975053788
Ni 6.123159512289907 2.012105900968168 3.258393818174182 -0.7976004236052586 -1.1476332361961978 -0.3674597498181349
P 1.669093671292037 1.0294703444726256 10.712307178823808 1.5357338021931357 0.9800713578514025 0.9554808129962319
P 4.869839918189226 7.962292251278884 10.790564455755728 0.1682193094231361 0.6068351105608064 0.31831876931710984
P 0.3222152217761419 8.849034594329623 2.5554180443082286 0.24890309772744876 -0.25436257818012326 1.392286557508357
P 3.9168682394214853 0.931399627095081 6.910678721686834 -0.37403097527774937 -0.037568188061761106 -0.8009659976433818
P 2.5915341614435112 4.93571863886621 5.906477572216737 0.29430980799702217 1.6693576330295896 -1.1164701803298323
P 0.333105509453319 2.0352649470324864 5.5826061557120905 -1.0806508566383775 1.029155516972563 0.19007522895596296
P 0.5490686886944539 7.984971508341073 7.252673245075755 -0.29659371893519243 -0.964942472629764 -0.4185856219596726
P 2.343649328151093 5.732371370055594 9.149773722233531 0.3896401425699161 0.35749723928878435 0.44346567303080403
Ni 2.10631062619394 7.654747500914003 10.225736543683643 0.43199598182830756 0.04606568400981099 0.43012730405068506
Ni 3.5964060928454313 5.495014214675281 2.152290098007612 -0.17304681271876649 2.24175358807592 -0.08080797258700276
Ni 8.192009689471446 4.7981483692172135 11.531703754056435 0.8227118739609058 -2.1091407150024835 0.6114173306148502
Ni 1.4478740344641126 0.6139250897284397 6.759702040112954 0.3537398291288811 0.11593232709396162 0.5524418805219067
Ni 7.627178086714728 1.836170964571986 7.066301975212104 1.2386104360067185 0.83482125562993 0.7810139800014871
Ni 3.653187275905118 4.086630505771042 8.404165004843756 -0.4088457689640895 1.674465129459484 -0.7731507752033265
Ni 4.787085542033501 6.1712768131765285 13.103987076772675 0.23257042200569622 0.08471759205405409 0.15883761109792
Ni 3.134766032392831 8.340449025360988 5.626710759732827 -1.0047737456940888 1.3971968503257806 -1.2355549370098462
Ni 0.7849246581007958 2.0964380448039717 1.570001556942652 1.290310178373855 0.5098937227470508 0.0818757517298848
Ni 4.612414665123699 0.051783073397120474 3.1676998567043757 -0.39941779078197015 -1.3649025090684495 0.09496909457873322
Ni 6.141446854640297 1.8845281599596717 12.754510612964012 -0.17992399945457402 0.884034227019471 1.3703326789450851
Ni 7.58572247158844 8.774575031883787 7.211201944539783 0.36913173820391915 -2.257914256996182 -0.721583444648996
Ni 1.8714539096516485 5.501030030625057 3.9475682768596543 -0.7369995220937501 -1.5092784362150846 -0.6892489941823485
Ni 7.636543198967828 2.384560567294195 1.1939235609793906 -1.7806406342769976 0.068011849263599 1.9722718948661708
Ni 5.924434598292584 3.571558558562081 7.804253444662125 0.3753900604088051 0.03738846795078722 -0.7493834975803997
Ni 8.131989930647386 8.660938852071778 11.198891654031343 0.30329349955287116 -0.3348242231713008 -1.2171728349582327
Ni 1.3572308199079928 4.479780686169685 7.5507790694949 -0.8915423624710581 0.14703444781540484 1.2252905789693607
Ni 3.5716323722547165 8.419032927882817 12.575121195752498 0.43937916166625623 -0.21934441023372547 0.22711942619345402
Ni 7.9813730908251035 7.514861326658575 1.6203452633333846 -1.4254581591643192 -0.5209674640627093 -0.824504189974638
Ni 0.41936788135153524 2.2913984604768967 8.690062967172185 0.4388803676529668 0.5626530167269536 -1.2343318632360225
Ni 6.117678845611738 8.653483669115616 12.598320839347766 0.1025008841794041 -0.7311757163231214 -0.1517771047067128
Ni 5.058646117238684 3.6539254128314704 1.8779107624149192 0.6411734788313603 0.20820896244219628 -1.7225473296786915
Ni 8.939493274654154 0.3317833216839896 0.6156984636940023 -1.1949721304914775 0.07724288094356374 -0.6374392085999087
Ni 6.545650635511073 2.9867880320822597 5.454963827722538 1.539429248766852 1.182698455330447 -0.3981882892502433
P 0.6221590071419049 4.0527315674282915 2.610137057329917 -0.401958812036269 0.6178042079778006 0.17822270049275113
P 6.570996412219711 5.621807685199529 1.450245299340021 -0.06723049101288421 0.07006770335136321 -0.18323712298820702
P 6.469816293039905 0.35798072387140734 1.0423019322661107 0.64024505347982 0.4997468641210361 0.8091878713325419
P 8.478296096357365 4.150949912191106 7.1560640388123895 -1.0921220905027706 -0.16711450639473152 -0.003407740129968325
P 8.613458194284137 2.573366766343654 12.963448574008583 0.6902347551343854 0.2780750913057146 -1.437048177994764
P 8.423876951462008 7.691691254077959 13.03241455238004 0.6220616977025738 -1.4140026090292102 -0.2839405489475561
P 5.85073162619626 6.125862938782675 7.565269620030364 -0.4852993212371383 -0.049667285318140277 -1.039824823760951
P 8.565931402938599 6.605818021720403 10.218525868584337 0.13094294157018094 0.40011713084184 0.8693426864455674
Ni 6.741349188110351 5.68663456075646 5.172968764392201 0.5684809362626403 -0.7365508645921057 1.1558278561918482
Ni 8.658973562505365 9.32276164695125 5.183394025805776 -1.1332088332407515 -1.4640087657440075 0.22643165609781005
Ni 4.789078511734654 2.840304759047553 9.81905723609611 0.7792579165423289 -0.5651336170569621 0.25148397108074755
Ni 2.3139208634422355 2.9344725774270075 5.992891262184855 -0.9030303085059996 -2.5192188137117775 1.1568066751653494
Ni 2.9846197548610984 4.8743241000168185 12.525520239643907 0.8144529763862232 7.481910199341955e-05 0.39259331166096906
Ni 6.541129546837162 4.322852775627087 13.157220589230079 -1.1385747255383551 -0.506866505884953 0.07713463750047361
Ni 1.0259826474956089 6.322917817984125 12.137408766438782 -0.717416714865816 0.1860501669569699 0.013357909364144736
Ni 1.1091153188260892 3.7265949932309 12.40634526487078 -1.813136550022174 -0.19792300713515593 0.16631823574568128
Ni 1.1537449227356933 7.494211946143856 4.384565636025968 -0.383537629216604 2.3224530601095164 -0.5098726397011284
Ni 8.560459962972008 6.041300127157386 3.308912832084923 0.17378111978162974 -0.5204162195449296 0.7785791453077494
Ni 4.1612284688905685 7.639966308963789 8.696842754840736 -0.7904848956063999 -0.5720622258559954 1.4874417999559673
Ni 9.005132100830075 4.207970989751858 4.890649843485426 0.22870373996143836 -1.6901498871845926 0.016228803154036568
Ni 0.5250054248953536 4.689706828024413 9.959001538634492 2.0800659091237144 0.7225548074233298 -0.757873794439598
Ni 8.104171395235465 6.244730664060208 8.191149759952244 0.7881025114171524 -1.1942745902038208 -1.274731864319624
Ni 4.510782437076502 3.9943910701116847 5.902683548415284 -0.28207675626594 -0.760007038732517 0.8331983753145263
Ni 4.432696776979958 0.8703824607492874 0.8830996373191876 -0.7411030027391624 1.290499668676842 -0.273543007763316
Ni 2.3603681295329837 8.882702864882889 1.3507601270773526 -0.265745108985452 0.19505005646273504 0.024936101120047377
Ni 1.4544342263970729 0.7094944455968064 4.282432397540009 1.0621911072712933 -0.041160019178077496 -1.2108746606543468
Ni 5.006884265278196 8.238050980252698 6.806358752556554 2.3295619032401556 -0.9233147697866486 -1.2405860716758506
Ni 2.6491272951221863 3.6291424655291764 1.3172348705535681 -0.4738368291234936 -0.9739953268606517 -0.911782600777333
Ni 5.676614351981222 0.7009329799222723 8.367906796350152 -2.492616380632901 1.071106150372736 -0.829792692067087
Ni 4.028742117321826 6.002990820679678 10.563707298152785 -0.5743767329217849 -0.9804868481222663 0.5854327336256304
Ni 3.847824756672763 0.7149049892669722 10.176810982862666 -0.5873394637300401 -1.2276549654364795 0.5427758181870523
Ni 7.140699718690358 9.116738404094612 3.1103337001305538 0.36997660270271765 -0.08701307295645015 0.3952595456392225
P 2.8307643392744435 1.412203567498115 2.704828952927082 0.7218282136699503 0.278075862636663 -1.4221074975245316
P 7.552155694862548 0.5039076261978757 9.062469654597999 2.4422153024725293 1.127711043350974 1.812932404431168
P 4.266911223321126 3.1043086574692 12.923502448896686 -0.7410711210599624 0.08556425632506554 1.1535100066919488
P 3.347515547990857 7.16205032928511 3.748948547374336 0.38855873658027923 1.016926579006539 -1.0822256573246651
P 6.319300947044996 3.724805011184495 10.912777786651956 0.8680782179108469 -0.8055646727576579 1.1591651480951972
P 5.276424190647489 3.939704350580524 3.976035450095607 -0.8809954401931472 0.5528162331421899 -0.19392674149156924
P 6.677878639155592 7.833247463129262 4.823857678362081 0.39127510707017776 1.0416598200871607 0.9440471172379935
P 2.516179607974473 6.790149265653848 0.23866458041111419 1.2776061005436254 -0.17709912841126918 -0.7629908039511891
