# total energy = -340857.7699376264 ev
CRYSTAL
PRIMVEC
9.37091898877068 0.00000000000000 0.00000000000000

0.00000000000000 9.37091898877068 0.00000000000000

0.00000000000000 0.00000000000000 13.71528716707348

PRIMCOORD
 96 1
Ni 7.765980211678867 8.637775521927425 1.7271793305448606 -2.220783670692472 -2.8130388265565744 3.7702862445349257
Ni 1.0760251128063567 0.1055671477349096 1.9659494024083297 -0.7353283050389142 -0.37619610124986824 0.14288340176150877
Ni 5.333926934748038 0.9448791053365767 5.930696088610042 -0.6582826277078211 -0.29171479357633634 0.7162265512124568
Ni 6.075522700317416 5.102418387799776 4.584265619437378 0.1999742332372298 -1.630969005949062 1.3267002869671152
Ni 3.760249812460428 3.668499147284536 2.3225325385884523 -0.4847277650043845 0.698453800610068 0.13684130933248692
Ni 5.254555253199697 7.152100697328183 4.39928836938738 -1.5981861550910863 2.2202105717978213 0.19336212723735083
Ni -0.004267516384547183 3.311054823674154 5.436438225888743 0.5242155386863616 0.00019951760531578542 -1.6392572140997834
Ni 8.533945742522985 1.205409387557 5.6706268555905845 -1.1465592864057286 -0.3545957493712732 0.966757928571948
Ni 7.796707454157852 7.02342861240017 13.425455673994064 1.398465175515243 -0.4006902297364906 0.37327661361022807
Ni 2.079228816248822 3.532808244236132 12.823313235338693 0.43213919227439124 0.01948561952843741 -0.32173062321213625
Ni 1.1895256803286127 1.4664738121443954 3.9953314907161728 -0.4183660497496989 0.6060097864460336 -0.22788432938393655
Ni 8.276517234398487 1.462762928331746 1.9622319589525767 0.7484851541358464 0.2830221508983448 -0.16660902751322273
Ni 8.944326385975936 5.0446185611421415 3.55442601662856 -0.4477933538718804 -1.8886508783104055 3.4262556722740087
Ni 8.308743823872483 6.3029267848668376 9.534373779840937 0.14076841230103498 0.46436205686383897 -0.2155533186224094
Ni 1.4943616662515813 2.8328099868595618 1.6726611996225538 -0.16354401543465383 -0.1510775075365269 -0.18128771257132004
Ni 8.411083627200632 3.8113775449902687 10.457165629757272 -0.6412187302469989 -0.7970234680558661 0.31595489707062363
Ni 7.338975558418741 3.5537709894101153 6.871029361276123 -0.3896342290326451 2.736201922802178 -2.383891627030972
Ni 0.7946154865885473 0.7473401387440105 9.207470217427037 0.19360715336862142 0.24779006716892812 -0.5125085346620786
Ni 5.053389741062951 7.201532293569919 13.05134329725853 1.087582293650888 -0.7628226538044411 0.5384489086769242
Ni 5.3929356099204 0.40592664578590143 0.5286819326348567 0.8713656304128671 -1.7026328501429515 -0.3831182822909982
Ni 4.569822222416072 6.056106156732037 8.406181699618822 0.6405422730052646 1.7799880882946635 1.4124391211968321
Ni 3.459602627204769 4.3881013666208615 4.871669822359611 -1.0152841583071095 2.5307008462094482 -0.3219964752790132
Ni 2.221816715474272 6.679440928070003 8.289422863658036 -2.019755028048799 2.2186743376589533 0.2193603510733254
Ni 0.7526403303713708 8.951251494909139 5.343393436837783 1.1766872161393604 0.034141421768399266 -0.051600240674795
P 1.7151686240229589 3.642073156497484 3.7745292184041546 -1.113438849702676 -0.40304561734254457 -0.32972906803658053
P 4.130119974291955 0.6048347036032861 8.113401400627607 1.5548363273505417 1.8877993289433874 -1.8272953580210596
P 8.60837894990651 1.4239766957545812 10.512863559346277 -0.3957076889202346 0.761020824709012 1.0984665446635598
P 7.092726556325787 4.693771364309804 8.689676355251569 -1.138382407021891 -0.7837709739213341 0.3830540047119661
P 8.627879831760358 0.11648145676671044 3.666301666844974 2.497471394732357 -0.6035263579025477 -0.2085959134679698
P 0.7354803040134814 7.411909418807258 0.8338487119885993 -1.2808171512817554 -1.220611942546769 2.182033546507468
P 4.114592361974883 5.671214412194254 3.291051660576977 0.5698557051229798 0.48201602250017633 -1.056247745203665
P 5.085232122869474 5.13853390854208 0.5923620107885467 -0.06031165240586388 0.36934796797978325 0.6680145102836044
Ni 5.168005447912745 7.609542094587012 1.8313886321574144 0.39562952738413154 -1.4622593871530687 0.19788186948457534
Ni 7.204793373284065 2.608057872307564 3.989763290813454 0.36826681910046255 1.2377892256570038 0.8576755345202842
Ni 7.522195761208962 9.251786229140173 9.198308270195653 4.190879898063563 3.019515636799013 2.8324671104845156
Ni 0.6627357361830842 4.547669370564799 7.093779847589782 0.015656732700650457 0.5478758584177791 2.077069802609868
Ni 7.2580764171192325 4.7670613196096365 0.3202024184380771 -0.8468329353788254 -1.1898435510156606 1.3473948392019892
Ni 3.617165254542881 1.711617045828529 3.7189962169846003 0.25137238520354777 1.3173707820360734 -0.06280433692073054
Ni 6.3518992060913515 7.707449453361165 8.692433279538642 -1.5066014036035535 -3.395899171469339 0.736975096613718
Ni 6.698463893069191 0.21336551121676847 4.263452217098834 -2.1861681375011317 0.10844630312956162 -0.592192163836651
Ni 1.4787122319911645 8.823113552348097 13.334688018191775 -0.4602038117210913 0.6144951982092256 -3.085201923253229
Ni 8.47021412431634 7.949996942560187 6.601634189947704 -0.808364346989982 -0.2809061329966065 0.6086888759400937
Ni 8.648561449372778 0.04203887846446446 0.11005675489309263 1.3924598498614278 1.6216544134163555 -3.9215182753714464
Ni 5.131796217983253 7.87832815619871 6.950646560894897 -2.252290740161818 1.1701859246857331 -2.4483669238962222
Ni 2.842218389253249 8.9304105716785 3.7432996946818404 -0.6693010903055119 -1.3971721677354325 0.5083430904304794
Ni 3.0117101961204096 2.7292332222605276 8.174022810911476 -0.21934492445435771 -2.7859388850159887 1.5660288536322513
Ni 2.896935183652395 5.484405147534727 0.7407298926797602 0.6704917681795034 -1.5280140649513747 -2.8556047249432432
Ni 5.53331197232821 2.358641499687652 8.015460306546066 -0.3283188179526152 -1.6693131529448992 -0.9527073640161527
Ni 7.583556536979746 7.461228564024368 4.148435434927873 0.7971322257195885 -0.9679192958699008 0.6168050772893249
Ni 2.8799363370964692 8.845491306248622 9.111147481008235 -0.5146374080796234 -0.5324363839342573 -1.7475952737862548
Ni 8.051530846878519 1.973909060768089 8.023552094859761 1.423148022973904 -2.008514679248289 1.8707979092893845
Ni 0.598593671736557 7.399652257123051 3.5996041528638267 -0.05236000165895498 -0.0126192314259073 -0.8967994971049393
Ni 6.08480928076776 4.423195457222814 2.439318550213524 -0.5072701690812749 -0.04380594144135681 -0.809548082885438
Ni 7.018574476503825 1.6850786040168522 12.721614402850909 -0.33121310878127475 -0.3781840782141745 -0.2686627968528792
Ni 6.331751730845904 1.873237280971887 10.086756640099413 1.8559284483767198 1.5580131824166263 1.4563867304223757
Ni 4.974027430433328 4.367222959715347 7.021760588868221 1.5888183407229413 -0.13711050383347356 -0.7874831326655987
P 8.795862920713791 4.735631258226739 12.69585655856851 1.96286397128871 -0.6401059567987945 -1.320969040910293
P 7.9214624950614025 5.673594625548832 5.57109457951059 2.772200195273658 -0.4764922644684697 -1.284659407845981
P 2.325862026009246 1.508371189736206 -0.03166152307525157 -0.1306853170334201 0.3115138305801345 -0.0170690396671448
P 5.926787478412425 3.3997693111851515 11.869455852777623 -0.27794087972069553 -1.1847975039513208 -0.32636760776351537
P 0.6269435121365802 4.678571734147891 9.341948523593226 1.0044824397059153 1.4735033354980043 -0.596668711550766
P 4.651714681099774 0.057349085467260225 2.748145610418835 0.023077450644753805 -1.3323299744490669 0.19715913238593785
P 6.2694726050406775 7.438579053480998 10.727027472837888 1.1754849683011432 -0.38168952026427166 1.9795779416092811
P 6.847470871617029 9.357752578012503 7.272723163076736 0.31415229664424604 1.1976406784625762 -2.4919872316893343
Ni 6.848436076245066 5.3037338346360245 11.717093148236579 -0.4949946941480313 1.3581546488216543 -0.8775447626403854
Ni 4.199717787616574 7.148108685953969 10.674113643200242 0.4937932176407625 -0.1717124101780591 -0.16269272317795208
Ni 6.702493388118281 6.219834848587128 7.100801476985788 -0.14369895568426866 -1.7021659378088618 0.08522255671493065
Ni 1.697223314676433 1.204153684448679 11.471904934142596 0.36540980926764166 0.21048361740898588 0.2621311663819485
Ni 0.7558948504424143 5.4065421839001155 1.802929152008381 0.3063831942217885 0.11155450974124015 -1.680599010271364
Ni 8.918631326848953 8.605820689096275 11.509717528264877 -0.14509994979685334 1.032336742914022 -0.4502513284940698
Ni 5.643298445330912 1.8093463571470239 2.562001680988345 1.221020233728781 0.9643351780630681 -0.4199009983369865
Ni 5.054504880390489 3.9191618520940494 9.638033945616568 -0.23375801455589418 0.974529859207883 0.7717094147711098
Ni 3.719505057871032 8.952432230667709 12.422840464247141 -0.1382657004838393 0.29008291439986816 -0.6219917636965868
Ni 5.178641440658597 9.376916106792475 10.01892055949393 -1.3182411004561685 -0.9435359819295299 0.6284313486743435
Ni 4.184461931942349 4.73641841539912 12.435431230637738 -0.07405137058945956 -0.015721010279682604 -1.3788916242586897
Ni 2.7815416905489387 2.3778050284676238 5.738983022184962 -2.6683913909161077 -1.1960633066731272 1.9082503977088878
Ni 4.868735787708751 2.5441575775639818 0.5384501783073469 -0.6553320297199295 2.180663405632819 -1.6594090064573097
Ni 3.0869024479201608 9.079661194113026 6.307783732038798 -0.4821306937011696 -0.23845542003156353 -0.14777595396711968
Ni 2.133580144817934 8.099078888457774 10.877429781182956 -2.8653042116191942 -0.5639951325771448 2.896707151410508
Ni 2.5810977391535403 6.8542554167694485 2.2959940967767754 0.2238793219896015 2.543440148152987 1.8034661168119457
Ni 4.2297328402729315 1.742794092406018 11.829531053576122 1.0178539759168148 0.3952803715748289 0.5587842778001667
Ni 7.686505450024618 6.223095928301274 2.225908995678777 -0.79996660984459 0.7861777835906137 -1.5469317277914842
Ni 0.013694660615672493 2.3679187092192766 13.045061970441312 -0.5118811854907249 0.2510132020919161 -0.05900296089676935
Ni 2.7188877279949586 5.443763473051239 10.283104562922817 -0.7735151005212807 -2.4968381320237323 -1.0299116784122972
Ni 3.2066534182278645 9.043105240190938 0.9818501909579074 1.2230557761015712 0.08597768971340032 1.675229004208702
Ni 2.946104394170004 4.762835035267451 7.673909061082791 -1.7307172670839934 -0.013367679556157622 -1.6581561078868152
Ni 0.4313799352099398 6.337542958614131 11.474304826426483 -0.40385757172087866 -0.9405645580060318 0.015945210475346732
Ni 1.1177444429425096 6.720841646969716 5.93193023860531 0.6863243643363857 -0.40809089307593593 0.013716835365460247
P 3.1243298972830975 3.108511786485742 10.688500814709235 -1.0744730099624398 0.6868956634588235 -0.49549785903669497
P 4.784566195776378 2.965117988250474 5.4624968766620166 3.219223760859049 -1.3778822091575689 -0.3951335615843195
P 3.416168418943073 6.60915903767891 5.914635271017869 -0.34768950916974317 0.5897910105943263 0.8004062684851699
P 0.9619997738358469 1.99228543237568 7.217011177109653 -0.2830728016306222 0.4291734247778479 -0.5610095675862596
P 8.016596061894786 3.46259195027607 2.028970704976087 0.18788619172444415 2.3129032116375523 0.579749310087608
P 0.5475587113020326 8.254936008589063 8.234548637824414 0.5991737373608068 -1.2777421119008576 -0.2887765368836188
P 6.784948101925112 8.783015391150299 12.855214653933148 -0.4863455031134657 0.3913329568913067 -0.505608979328768
P 2.441695952292487 6.282498182059827 12.187458916592396 0.8683972918131624 0.22029777528593028 1.5092339561303945
