# total energy = -340851.0199878691 ev
CRYSTAL
PRIMVEC
9.35096221152086 0.00000000000000 0.00000000000000
0.00000000000000 9.35096221152086 0.00000000000000
0.00000000000000 0.00000000000000 13.68607840629957
PRIMCOORD
 96 1
Ni 2.2604455418841143 6.067399998296198 9.645852467604321 1.373779242732789 -0.26062655681196406 -1.177419723430011
Ni 0.672449212529611 4.532018729009866 8.268088215040239 -0.28618332223514586 0.9512148386310263 0.07467434888543913
Ni 2.0211450634145716 3.4833269991281797 9.969555667683569 -1.2223790617495205 -0.3368355971743747 -0.5006968867391313
Ni 3.12108006718212 4.3416798896035305 5.572683592777753 1.8922679062377024 -0.9033257282592314 3.737269937509905
Ni 1.044988748776066 7.642737929866159 10.822513052861083 0.9636371235547793 -0.9937979634088755 2.4558421492273443
Ni 1.280670404801479 3.541929480413343 13.239063560849317 -1.6675797151935603 -1.945041341284992 1.7317958448601527
Ni 8.047008086783581 0.22321869335477865 8.21887316489632 -0.9151075513855079 0.7983856385107153 -0.4684004885992707
Ni 2.1297190877008387 0.24097056035202688 7.307325454684745 -2.647907154919827 0.7348927601633924 4.096681363102267
Ni 4.884961453379934 6.07977132153543 1.0458350108721737 0.4094198963000046 -0.8802559909239613 0.6248644572586917
Ni 8.188001897668803 3.182759015092913 9.650122117030651 0.9818081380368511 -0.20282018732645715 0.04864295781868397
Ni 9.295202599211775 4.111309580214462 1.212492538031074 -1.425283838369984 0.7649906079900374 1.2045021814691
Ni 4.941646987375572 5.714148692167328 9.286797954217501 0.2919114829681747 1.7936154492701109 -2.379929042838798
Ni -0.1502709006702901 5.659885057430164 10.07081910957495 -0.10453205567681996 -3.421402715057082 2.0973174971153106
Ni 6.138401855707758 4.807526133845478 12.237297765518985 -1.740499543281738 -0.6926395079211362 -1.8068226919890045
Ni 2.3724233164795883 5.862894450872147 4.148647037933232 -1.2419346152839448 2.386593599343167 -0.44950982234235487
Ni 5.766691749825113 9.109464433300301 12.48861516575326 0.6343492568206753 -0.41221237144347717 0.3779033137489621
Ni 5.314731684729243 6.663664114962618 3.6753967016725215 1.130932378501749 1.5380642500985253 -1.2817612603625796
Ni 2.528986479740717 2.2385736408587436 11.964999610974912 1.0329450659219823 -1.5177404509395087 1.0456414304427282
Ni 7.43889630077165 6.314938674629507 13.224214232577284 1.810161269443934 0.5187668568669647 1.5023367147899287
Ni 9.373872245781438 1.8917183930032186 3.8744328711958715 -0.3729917353799576 -1.0349433272989337 0.017441592515215123
Ni 4.102613185193686 1.1287920736967036 1.9954027990568364 -0.22028697665265287 2.0352333261900566 1.287202228872493
Ni 3.1793365628589303 8.70538129563064 5.815639362444737 3.5589629048334643 -0.8075783607535769 -4.687394628400547
Ni 7.648357858261305 2.452701328579976 2.1421726994090853 2.6616548435232223 0.06633600422307284 -1.9951531703397187
Ni 3.848968330421058 9.259435168077939 11.122224488741615 -0.8283024806748058 0.09797240018143127 -1.1941306084267886
P 0.1595395745892073 6.173121979054146 12.363264579846803 -0.16255799737230067 0.777564588000306 0.13068120326836205
P 7.577140928714822 0.5069268922046054 3.252578910858639 -0.2545862641551551 1.0121682383859472 0.8354146662395548
P 6.939171519798229 8.090854749420588 0.6519004726821326 -1.7603618294233039 0.6013118667497321 -1.0858100322418138
P 4.040279669915738 1.3502696178548494 7.249200807577605 -0.13672046748390648 -0.1288788599523006 0.21172057513988052
P 6.879979927882627 8.945448553015991 10.608448951684089 0.2959684266463677 0.7345824280118252 -1.221954315507276
P 0.2876384083414742 1.0396587002149453 0.752744056362297 -0.18123731894935882 0.013459467939015531 -0.3383481771641592
P 6.232790470051534 4.048798396651144 4.617751157471134 1.4454749686058783 0.6617435896732281 0.5509634962041673
P 3.497624620619326 4.6456142200984525 13.092869679780165 0.7279440967597012 -0.014632148090878027 2.0776169333625893
Ni 0.8929757638129043 8.991679711061922 2.392900989012918 1.1094510686995216 0.8139935202513013 0.2725567325906467
Ni 4.481364565754443 4.766587620511115 3.6261264808505125 -1.0117229233184122 -2.964202980269637 -0.7674089876235428
Ni 7.551360325411297 6.069382402322439 2.36930664071569 -1.4694553906808756 -2.6874139547651974 -0.16683477037078362
Ni 7.219634934699445 5.217659344180131 8.261615478875314 1.1151949131618342 1.1007188310328462 1.0293982291109884
Ni 7.184353753609781 6.8226772303693854 10.849994596222974 -0.8380217648450987 -0.46800531004338114 -0.16714510252235085
Ni 1.945626691169641 2.0980380271305283 5.800365500480291 -0.687916391413854 -0.6922607844254788 -1.7049033913446834
Ni 2.777983906206544 6.989432942633359 2.0434686159232793 -0.7220799246694403 0.08409229976522936 -0.36614025967576297
Ni 0.4286004259545789 8.11584052092114 0.17406348937014174 -1.0000141195219165 -1.9021126602422658 1.733622870766563
Ni 7.743270126498805 8.114269559239968 4.778699922092202 -0.7169477456491975 0.7406602587747889 -0.8712848977736027
Ni 8.619623619570923 4.200985309514721 3.643124660279294 -1.0029688312748661 -1.7745324644967309 -0.042695739096313565
Ni 2.025614823436003 7.04786710659554 6.701320440498817 -0.28158824666529564 -2.668020123619618 1.6949452516907066
Ni 9.292247695097188 2.27917551954714 7.298621578894059 -2.114940609513712 -0.8928479686563591 0.019912936873843122
Ni 4.021577745139876 4.693089056141978 10.970226465318275 -0.11928890227102036 -3.1704093104595077 1.2683208185869577
Ni 8.177164132261192 8.05496575577571 2.2886134458852787 1.1084635079752716 1.7498781562831607 0.6345531453013653
Ni 7.216231184390238 6.30529783240755 6.265965814411436 -1.579820250989389 1.021415468015828 -0.9492561722427586
Ni 0.49026721761426756 0.9244885070602318 9.732663062028918 0.7413547137386522 -0.5863992113039579 -0.31972336297412035
Ni 5.993770520453629 2.3708523547984157 3.4000052487705203 -2.633269093291678 -0.996346183752026 1.2278660530060208
Ni 2.4064140647597174 6.559784273795094 13.381905121902395 -0.1597452105138539 -0.22607864363376548 -0.5279796337144843
Ni 1.780254921339081 4.864052701480521 11.79512815804328 -0.3630083989150006 2.6962539216543306 -2.63660150009902
Ni 7.842642803795347 4.061375441062911 6.558149725569683 3.1397401635104245 0.9709866219413148 -1.333920458864638
Ni 6.280115690696852 1.6261043063740384 9.73062361713211 0.045852025337108124 -1.2450106831061076 -1.4922847298705653
Ni 6.620771250489179 7.417435842091349 8.22965762981832 -0.07353123641993142 1.6148296771850381 0.6310659580837132
Ni 7.568285567333453 2.2262490724314503 5.478660601063345 -0.6656388109625762 -2.185687341209971 -1.345009369688948
Ni 4.516355867010081 5.948848497142009 6.398241723062391 0.3094461494178284 2.878114733120301 -0.9753824370161653
P 3.2409781069201715 5.259953747060743 7.795754273093545 -1.7826890321655944 -1.8314451185233749 1.1763653140235677
P 3.7600780819613857 2.314035907329347 10.33394771040142 1.9180056773234389 -1.5735151347069674 -0.2035868902891526
P 4.6466615278859 1.6457413273886934 13.694974407554088 -1.8742349599953914 -0.29693876097943694 -1.0833062919833536
P 3.0261771499070087 8.525403322550131 0.2205209407058606 -0.585072007852102 0.1633118448191897 -0.20119087925315027
P 9.169179679109629 6.5212489577944295 7.179716611361606 0.43476968791870285 -0.15948810019772533 0.34551384167466304
P 9.367326572109885 0.7161182068812488 5.861076623783934 -0.5389839552447879 1.2474041230389485 0.09904429308937136
P 6.687125679593937 4.6759954968968405 10.083163315023258 -0.3783825673782258 -0.6804367952073572 3.718895805878092
P 5.3634782516575275 7.639034948760538 5.496411532964355 1.1317255638270056 2.1316322112367803 1.0650784561214173
Ni 4.224643244356186 1.692561596065064 5.144966832768834 0.7212288895230548 0.5270231833384859 -0.422055582786144
Ni 5.566740121083983 2.1259132460089507 11.767413775717928 -1.820516130315697 0.04818890100040088 0.11945011043923298
Ni 1.5752911767580213 9.270787236416886 12.435759785951717 1.5561154511732813 2.1902595339616857 -0.5039609022023837
Ni 7.1716177428374195 3.110569585458086 13.008207001416078 2.8173852764507283 0.5042036143408091 0.6615224748013575
Ni 8.983535022822034 5.984840351373156 4.841108245069254 0.740052707097777 2.426783284188175 -0.36920244354085446
Ni 5.471126530667389 9.05916560661562 3.636473320732758 0.3706610303642519 0.9090420619177184 1.593258892992798
Ni 4.773563438452512 8.592674145968905 1.4861849210671878 1.6931148833501874 -3.5880978745262078 -2.1073735957997317
Ni 5.239802423114752 6.851207016614963 12.5419502499253 -0.8942839297719373 1.300145162186406 0.3871322885463978
Ni 8.719912691181483 8.561844022975897 11.888152466974656 -1.8107513376194495 -3.3592398683750915 -2.065701412871926
Ni 1.9150770970482704 2.6452095912603113 7.776868134358641 3.9469986790307376 1.627555352281823 3.691091124960998
Ni 2.1257729815731317 2.1332444005210887 1.2103969873599387 -0.5462151828859044 -0.88932272911192 0.29088921235124743
Ni 2.315597518048131 4.496559879634832 1.4995287443947656 1.1432363926800828 0.9084913316205709 0.8344049940281179
Ni 4.411222996882573 8.425787520231502 7.999047935792121 -0.7570335579264897 0.5077147128178612 -0.192710609696281
Ni 8.897300447680534 7.556353739326452 9.314978014469771 -1.7870496231271353 3.0595569689916147 -3.566291063063761
Ni 0.7213612914921618 8.280127579114701 5.303738693345991 0.6399180091577044 -0.9476659449375036 -1.0815162899624664
Ni 5.7017867198904835 4.187286149616402 6.702373358863698 -1.4989667698764315 -2.0955303233079006 0.15979534702549897
Ni 6.626213510598955 1.2631092974369447 0.30504522482660773 -0.6628167681327487 -1.5052418042518658 3.8431042569379175
Ni 5.060151733717821 3.471610243256102 1.1380074471300097 -1.0008337872097344 0.16370933736792453 0.23278125246492168
Ni 2.2468305406472866 1.028989252130316 3.86247112010923 0.6940860105596757 -0.10355195115173778 -1.3695916870140026
Ni 6.28093857538699 0.16422534184179952 6.1649080936925875 -0.8917102555074901 -0.015428932960560523 0.8150021640214737
Ni 4.4945400717590385 3.2996273430172747 8.636134613859292 -0.3285365903903761 -0.23907865543785922 -0.8017422136877741
Ni 1.7489385483019002 3.6866823781785154 4.15484672599643 -1.7431642345980949 -1.8341334639888154 -4.365623381758462
Ni 0.7456083369640668 4.475725935434522 6.029141470782218 0.9653430505022923 -0.6586076151474076 0.05327659993595341
Ni 8.217279760905415 1.0030122786166435 12.65209523589274 1.9323817435394528 3.1497710653838653 -0.24442680712365003
P 3.906186869272808 6.783926842233799 10.974441879162754 -0.4880082355278692 2.155730904057197 -0.6912552259790998
P 3.197664449139275 8.505579282287718 3.4454705629968796 0.37203168545953347 0.31814162030929727 0.44511992080477536
P 6.969188109063489 4.419414439934401 1.0053051345941644 0.5741936703767014 0.8787302983080543 -0.11911792391079487
P 0.3565867944126446 5.907751017447052 2.6564400970882165 1.624044510915087 -0.14441629346626741 0.25854370614100636
P 2.2436886172849415 8.469175985711502 9.458955717452984 1.973959824091555 1.7915932766337594 -2.0889200170802344
P 7.1248816328225395 2.375499783105217 7.766288455512936 -0.7258974986433177 -0.8158670831249304 0.3553115444913752
P 0.38818369632146354 2.298242131856131 11.364044116478468 -0.4640830921708395 0.8117887992904986 0.43124650525679276
P 3.49385618277699 2.878357136478595 2.9647057933612277 -0.8423337619568911 0.7714474193589747 0.5338921425441774
