# total energy = -381169.12446320057 ev
CRYSTAL
PRIMVEC
9.18416061693302 0.00000000000000 0.00000000000000

0.00000000000000 9.18416061693302 0.00000000000000

0.00000000000000 0.00000000000000 13.44194741206013

PRIMCOORD
 96 1
Ni 8.659010146121775 3.0200642141552025 7.537074943592971 -1.0043302303987671 0.10890807325732857 0.29342303451669466
Ni 7.44036389732678 6.447060209089731 2.231604958789873 -1.1500989241278707 0.09039175962069594 -1.8127082042355038
Ni 3.9777609123660387 2.01674060687802 8.027772696498188 0.507346787955481 -0.38361450520112644 -2.81450486957914
Ni 6.4941565838264905 8.45205427476488 12.119568736968553 2.7627359645369642 -0.44106914777416945 0.7233572487199671
Ni 6.226034203938624 3.4704187054952538 13.429230934140845 0.7280556826369009 0.3206294197281575 -0.795131907460108
Ni 3.1762133099575425 8.911317401731814 2.258865383808136 0.592465986323328 0.20636419592397365 0.7663417227012931
Ni 5.886468239987328 7.708100542476163 0.824136963426931 -1.3616405504877258 0.8322108145902763 0.8890229384833142
Ni 1.2620505910348423 0.5523390825309412 3.9029228626039547 0.7182039866538018 0.9908741048938613 0.7727085454595853
Ni 0.3749690656157385 0.6446334660414963 1.603153983443808 0.4189710303235495 0.658302425202163 -1.5657154361568906
Ni 5.17549482783896 3.2617453961360625 9.220852997876118 0.4932406875714022 1.6757771634026883 1.8490623173845058
Ni 2.35578307368423 1.8761127422194244 1.3851523223256212 -0.31550803934119215 -2.190441568065505 -0.34857525420880614
Ni 4.117424440178424 5.082211310249007 4.349088458367283 -0.5864002397452224 -1.064161857844419 -0.5449545710059259
Ni 9.072563706578402 3.8664305195113173 9.996883328917878 -0.05110298932340231 0.7000465990184846 -2.7494212497059296
Ni 2.7515652836892914 7.443008935533523 4.608127703579905 -0.4723044516393672 -1.219610497865448 -0.35722701634653314
Ni 4.5324382821450255 2.2578156342698343 1.0669358577333496 0.8251176551889209 -1.03968675552119 -0.5515432799670372
Ni 6.911760359037196 4.389394983290687 10.986721833420882 -0.6469944563885115 -0.25440294449975537 0.9001738128938109
Ni 1.2417535964622524 6.267647634892652 9.781234649704443 0.4677656832287493 -0.04424997095731088 0.7778931749843184
Ni 1.642293201575278 2.6666669045811373 6.967431984376865 1.0346309382648373 0.12648079203376927 2.774280989062087
Ni 6.988567492797634 4.750369225227823 8.470241667684382 -1.7482948709564408 -1.1628770497291456 -0.3095582495156604
Ni 1.1979084145212822 7.033643352237576 6.8485917035302855 -0.005288759202765086 -0.1318646820535019 -0.43946117985710126
Ni 6.797601244766929 6.207757724662852 12.839116481303787 -0.0007841864641921978 -0.7061511692543258 -0.6463511663775579
Ni 3.961679447435448 4.1285464584713685 11.227534193824113 0.6297001880844381 0.5636899426319002 -1.457785153431799
Ni 0.483666359672287 1.6006522181399285 9.256702449737949 -0.2537054042120986 1.1855660066862292 -0.6081173197073397
Ni 5.759451301100939 2.849257198290485 2.871428680008896 0.3604200693625341 0.04332488803988023 1.5884571007287804
P 4.379889377235199 2.972572920519518 5.071216951786179 0.8607274339727305 0.1781021157544868 1.2924318527025485
Ni 1.1890273313757191 7.772720295332607 2.5846312282821584 -0.42364658142234773 -0.5588603824537407 0.6090408599628737
P 9.067053210314352 5.460571167899225 11.48372451246822 -3.0089676860798376 2.5634934672594367 0.706859251064944
Ni 4.5920434834011825 6.543962285893077 8.449688435035513 1.7733752109638363 0.37886927720665714 -0.8200240427160974
P 2.9104604434632173 3.6896721676814246 2.2564729100134935 0.6890361068405939 0.7539706027304499 0.4811747575458036
P 6.968215393262404 7.432447151027425 8.59413599202114 -1.3341189480286895 1.7874314319465863 -1.6625310970260594
P 1.003782815299187 4.658894987244568 8.283788516093933 2.0496770124192123 -1.725846055034621 -1.5745212073739787
Ni 4.986429701019351 7.0659348603449175 3.527085893826628 -0.9059338553060396 -0.2403629214669215 -2.9765445325541253
Ni 7.8797616852618075 0.7145864608654985 7.911768484395507 -1.7112046509723626 0.020082115461855735 -0.5332215988397139
Ni 8.496303559765215 5.804619002145282 4.219319945013045 2.075828216893283 1.7167636331173788 2.0761578323185597
Ni 2.3041772761713877 0.5722154425553752 8.18719410866533 0.394166826795676 -1.4998643419900364 0.6959114938041886
Ni 5.572966923364995 0.34949312297098434 2.7976587481059942 -0.2033295228627079 0.563445430721262 -2.122667288734009
Ni 4.4103807898962835 5.820259627374748 13.133064720349175 0.8067640923823975 1.0834731565785212 0.0023281339125443778
Ni 5.262321880639531 0.1294029837687221 7.054508846341407 0.6452227092000694 0.11497202006322135 -0.3561492099013221
Ni 5.338936147030727 7.761717671125384 10.376497742884213 -0.019073728801999406 0.236325003952122 -0.546470236319504
Ni 5.350388795099514 4.872601216524926 1.6991431546994098 -0.20207456740968424 0.8785991720468288 0.7440026928844606
Ni 3.9655000581785234 0.8499343516870882 10.069994756517227 -2.099609892693913 0.59095829142955 1.6892032070006069
Ni 8.732924269343586 5.204773931321952 0.1345957080815467 -0.772857926553256 -0.25301094924823525 -0.218933547948552
Ni 6.935033021592373 1.0831247773410888 0.7120442852556828 -0.18483840603705584 -0.17249968196604487 -0.2087424663481631
Ni 7.022952989485316 8.139756083160199 3.8599088471828122 0.07655485373760364 -0.9870997254530937 2.6327111639056784
Ni 1.2002044546313038 3.602688984153371 0.518309012852291 -2.478126928767474 0.5698523626888702 -1.6822722842087285
Ni 2.149268042028459 1.8229731899130877 11.706121712773031 -0.7190766190667423 0.8180142113749203 0.9449891694362886
Ni 3.2675589696946368 4.788896778273983 8.808575117304619 -1.0206937593584549 0.34350863831917616 -0.08180967437863976
Ni 3.4127972828941546 6.844008807470682 11.195582499653053 -1.370394385420956 -0.37081478233329684 -0.13712515912149287
Ni 5.594806856891521 7.129810696205715 5.931460523567265 0.5442189783914821 -1.4436898516809975 0.5003467024885642
Ni 9.126364518436425 7.737113305306394 0.5489877823863539 -1.176762035241354 -0.9774100089691554 -0.02253006278171604
Ni 3.194884708132237 3.863078300950686 -0.13842550298506248 1.5794939779982216 -0.7506623642928233 0.7452298804233423
Ni 1.8591404137261458 8.74304521414856 13.096610032314342 0.5885897911973733 0.5671305928823329 -0.11835096383778325
Ni -0.1609992509307496 0.8307376195352207 12.353633494696451 -0.36714298990866445 -0.33524716964133233 0.6935584201909797
Ni 7.106960505030781 3.334006370478658 5.387828025133524 0.20829020930209288 1.3291667462297365 -0.41728284398784904
Ni 0.31082321543800273 5.662833933271236 2.2263093718801197 2.032327208286855 -0.6014597051815062 -1.105936884898676
Ni 8.641982712665856 3.0619623540828744 12.03673954920755 -0.4784861549700469 -0.025796649348129766 1.6715867794704242
P 8.186696327169479 2.8597638778339434 0.8233406967167756 0.9119427805042811 0.3003444442268763 0.5956322998664516
Ni 4.547683988475568 8.79207944673818 4.698161865206155 -0.8633191059593067 1.2408732638989661 1.4151007271893952
P 7.718193934799817 8.616459930802858 2.0039250293999236 -0.2073532993101203 -0.26660565721353435 -2.113483565352212
Ni 1.51309961666459 4.4276470115236455 11.477823689385465 4.055372219940835 -1.7617124299139273 0.9507258148097496
P 9.106260391233079 2.556686583311109 5.120427520256248 0.010144287522853498 -1.059359294249453 -0.26342725948555273
P 7.389722436660145 5.650481237479321 6.187596655664776 -0.538456364876092 -0.7333981778957369 0.3728986614455191
P 8.286776123485094 0.46808359465359334 10.307809406952812 -0.8804843048846835 -0.821330677342663 1.4848187605108234
Ni 0.4546196154484274 4.590344413719767 5.9294179662853885 -1.2652581205012339 0.45119260936141653 1.6893479601085872
Ni 1.6210410543169191 5.053878175291342 4.108679282607374 1.005942054970577 1.8041024648443638 -1.238899428002047
Ni 3.387752077374041 7.831967314331601 6.897896868852887 0.018654896097025937 0.5660273325158252 0.014831408585877682
Ni 8.69148533743792 6.116145724272996 8.268531788770863 -0.46124613694267663 0.9952537220187957 -1.6142969446100197
Ni 0.06266077143457398 8.398290199548617 8.715099650761468 0.798960794287895 -1.3376542148754575 0.8137011858218631
Ni 7.271283503624797 2.3950269912447175 9.7907375005118 1.2291940277888251 -0.15011848605736727 -1.561489571001001
Ni 2.442922387939765 2.8374463679645348 9.477540179600034 -0.7505271242665397 -0.21650385546113682 0.9098990106013749
Ni 2.0193489084430043 5.990488041131741 13.431825459465168 -1.45634790676464 0.7158827947197929 -1.5497141756326278
Ni 5.866024298847697 0.48602209682516906 9.298372822486707 2.844415026875011 0.34150163519147636 -1.7283377111082234
Ni 3.6379377919224205 1.6741897907836965 3.538659772813224 -0.10514989176647697 0.5653503610534585 -0.43492523965996066
Ni 6.28653945291791 1.4207528834395262 11.547223797750974 -0.851115107693947 1.2359693988394456 1.3234519552331465
Ni 6.384424234888344 5.471977895165811 4.03798788128399 -1.6358451030944405 -1.2293156409683537 1.610458544700536
Ni 4.323517000453951 9.026192880516408 12.300887024456948 -1.0588065070697765 0.10507507266448354 0.9560176593363084
Ni 6.059681505887347 1.2495785011572056 4.87423783391535 0.11193220479563304 1.2735445288797422 0.9510875690245425
Ni 2.6784869190675282 5.888690806813829 2.1083287284507324 1.950597238106215 -0.22179647131864383 1.37686070987159
Ni 3.0987816532871784 1.0049308353541977 5.971302329972401 0.4013000954063476 0.231658194604072 -0.6224108535118764
Ni 1.6660893612755405 9.185354380943098 10.391592828983539 0.6295708615954254 -1.7445274334942087 1.0792935712795348
Ni 4.944751980942241 4.470068648596402 6.990202273355969 1.0901138018234904 -0.5824988478082872 -0.906478157845284
Ni 2.032059786492083 2.9992253541166476 4.876953590157483 1.0302016988488905 -0.7482691814702984 -1.8768328026295547
Ni 0.7017222073370701 0.472758332317597 6.616530011194371 2.6845469176300476 -0.03434351047687633 0.719613979627451
Ni 7.536595530417999 6.695326434106132 10.446006224342915 0.15223090441467976 -0.3626844399166786 1.1219877677139516
Ni 8.157233540477684 9.451603192101187 5.554077860587872 -2.410733172703848 -0.2527103872886809 -1.7008415625704838
Ni 6.392350165348139 2.390168570371912 7.412534972777275 -1.1077870507335374 -0.17844047293051205 -0.1912697634846964
Ni 2.861242527664797 5.116945805033412 6.316882082179865 -1.1630032908943646 0.45373877282203795 0.6329762877325485
Ni 0.7396564636188009 3.144335089070004 2.6084099380775845 -0.8820231101267132 -0.974267863795748 2.157490567060781
P 5.328071285230106 5.642215493083244 10.358176261222285 -0.6843590130798989 -0.7400177400947836 0.15993161549304716
Ni 9.319075756950749 7.816969580332941 11.649893527310692 -0.2543255542946007 -1.0897929281489618 -0.7192229148366194
P 0.6758550194575682 7.8631659073465725 4.9026811787982965 -1.2446278458453919 0.14219254634207124 -0.04445077411420732
Ni 7.758980791314238 4.086235031323892 2.814730265532026 -0.35395323069126783 -1.3571647741045596 -1.2426334411231825
P 3.399893537475834 7.5980926687248145 0.6866574289671973 0.9281330171108984 -0.8100291362869146 -1.3499191482857398
P 4.178370528858834 2.144134096342451 12.07240072578036 1.4330722240661513 -0.5956119881514775 0.9210164606707751
P 2.738725827394051 7.599433556149067 9.090654665813284 0.3248025772692406 1.1956424170856246 -0.42860186854509413
Ni 8.135742605047882 1.0448084599850507 3.3071895404096514 -1.2265409064366941 2.233835618780424 1.0960085700413704
