# total energy = -381173.16825960827 ev
CRYSTAL
PRIMVEC
9.19638422184797 0.00000000000000 0.00000000000000

0.00000000000000 9.19638422184797 0.00000000000000

0.00000000000000 0.00000000000000 13.45983789343738

PRIMCOORD
 96 1
Ni 2.030276595021185 8.232943611181735 4.516085057299369 0.7296029725193628 1.5279328180914782 -0.13220689588426907
Ni 7.3579720070158405 5.75097739831991 9.26265725838114 1.1671795337592414 -0.32486351241416306 0.8486620181677642
Ni 9.071911370290092 0.06047818295067614 3.6520985343394075 0.9312350530749897 0.23236833329721915 1.022617201633413
Ni 2.5139236487685825 0.5287286498793422 12.111781762646853 1.92111568370733 0.5512810274445861 0.2838947833112852
Ni 2.0813992960875614 8.20941925980059 6.973124470153926 1.1239227799531353 -0.4068811890385509 0.5828868272753251
Ni 8.965067775940541 2.314950675163238 8.867678064788729 1.0993787720651842 -0.5770218838541159 0.6987163102428354
Ni 4.8104907514490565 0.3712221736850947 10.48198379910937 1.113003047716838 0.32652084551192795 2.0835299564129146
Ni 4.8693660045929565 7.581048704221647 12.479397114357091 0.07534926346527669 0.7520985825187176 0.812521306581149
Ni 9.138842656197825 7.7322556570788805 5.5854020144236225 -0.6078149579755725 0.01384744740605357 1.5816596181909728
Ni 7.589960000737806 3.2528623343926837 0.10049716945192491 -1.8071515360833328 -0.5344251322295119 0.30335212070494855
Ni 7.96693819143989 0.89786600321334 5.74819917058252 0.44049116378351233 1.8002954323934477 -0.6531447922606235
Ni 7.181833655959122 8.428725439388622 4.430440048707706 -1.3296801955310453 -1.9410018811082956 -0.9255953382907092
Ni 7.095525588049797 3.2944115992636838 5.315532273942778 -0.5079491974261704 -0.9155369256134427 0.8178936266366559
Ni 0.300380585116196 2.544464841472564 4.3639483499759 0.15922173391021613 0.21147863433240352 -1.225094918018787
Ni 2.6409257177965824 7.414989590504153 0.27650677112657335 -0.36141431495500337 -0.5171388343452383 -0.5427714473116781
Ni 8.042992290705751 6.853384785913139 2.617642311687597 -0.1854719258559967 1.0391514518430103 0.029197961720194874
Ni 6.999956761015837 4.352464824733665 3.266810490663123 -0.5413591403451837 -1.726017290505163 -1.4790618034223881
Ni 3.793876434236871 4.554445016048796 10.765770428153582 0.15474184376199157 -0.007077218561755553 -0.6980151704107528
Ni 2.3260691039434587 3.926543476075968 3.1706806841787145 -1.536234395978638 -0.32821674515711213 -0.58402813996862
Ni 1.0165591389055837 0.5723167531792707 0.4964879653320314 1.1463155458260386 -0.16775496819220787 -0.08067376100198365
Ni 4.836507323011707 7.065002788114682 1.3918681858329696 1.0034519415588719 1.214742371139869 -2.447330255101592
Ni 8.512596465423044 4.309039497438211 10.973066129671333 -0.6198636616099905 -0.6632029478275739 -0.2106628232993275
Ni 3.492961539185083 0.7564357266474666 5.8913574477834665 0.2692168695841364 -1.1720188641294138 -0.3860112875680771
Ni 4.520206876802508 9.092207790735046 8.126121168516383 -0.22961879557654002 -0.06828772863280498 -0.11034506281417125
P 1.3613867696278061 4.3567503398797225 5.087697367431026 -0.7307679393617414 0.6583813580692146 -0.13365519829502143
Ni 2.6090602457341623 8.552021365489882 9.85019218852113 -0.6296284543062383 0.3298416823550448 0.0491432944938702
P 6.511030982603555 3.6507714960656394 9.908351962956097 -0.10103998336316146 0.2529042484670419 0.022117143614013523
Ni 7.459426520087304 1.6294613758672127 3.3897523559636893 -0.7668497726859631 0.7764405016981918 -0.2629940286028761
P 2.6496622830085013 4.204090358281981 8.861230479662334 1.1769512684340246 -0.6078288419326435 -0.6921962497361305
P 1.0654931004767632 0.31820961561761407 8.531316625576078 1.0679964010991607 0.20003054039646195 0.49943241820441087
P 6.553601046146683 9.06493131450499 9.337291435890455 0.3755060171613791 0.1768499885149406 -0.29168702566219445
Ni 5.555572621874801 1.286951234022257 4.437614148204357 -0.7882814601971778 1.5836763915106853 0.6489405243712888
Ni 0.6657354655326545 6.993169829303842 8.428846831663146 0.20991566072065784 -0.6231631582968686 -1.482484198840376
Ni 8.153983454434856 0.4167920978304637 1.4326513918806505 -1.547735197529386 -1.2573062126440089 -3.573833394187393e-05
Ni 3.9197933299017063 5.018402610723859 1.6935307469392094 -0.4435093817845459 -0.7129121421272433 0.4085963719574447
Ni 3.4997576672815125 2.750730547933753 12.322952820564923 -0.8051656375470262 0.5388348312614333 1.1751304131752018
Ni 9.192052936530628 4.853722954671404 2.771932812245415 -0.5179171072721597 -2.0260760851708204 -0.6720143754716168
Ni 3.5179113301534364 0.9453239450829268 3.2259730259472845 -0.4444110676632088 0.09425638478242478 0.9625528893516648
Ni 1.4652967173430396 5.669111184092014 10.319685086986775 0.28020653582642063 2.61791703631564 1.6430354501952926
Ni 3.5346395534381525 5.515255672517904 4.537311232210558 -0.420735835533456 -0.1444808281556157 0.8556505336704553
Ni 5.813218528166507 6.216811055419426 3.309088109181264 -1.0526104055613936 0.8095203149712962 0.34219814703786877
Ni 5.2911857657932675 7.3069412697938 10.080570814967214 0.7599229636591429 -0.5666832209322692 -0.2628117373887409
Ni 7.122167513753932 7.857602376908833 11.810187254785424 0.12786970196149589 -0.2880915950014522 0.5771144435679222
Ni 8.899856213921892 4.979511100954169 13.268547139350199 0.4379725111267167 2.2473531936508846 -0.042247852925617564
Ni 6.835341479654418 2.0289799048160475 8.290816458422375 -2.2862033337488623 -1.4494902604128586 -0.48852965524897796
Ni 2.1111036178080855 2.170291548022728 7.80807892709546 0.6196032088597522 -0.4526697081275753 0.846694095808116
Ni 6.964155236415837 0.7982213385984097 12.7411767954517 -0.08468185372011222 -0.9365556939569548 2.295427423450292
Ni 2.916614930347009 2.985624599136735 5.734240898289204 -0.03287181102735629 0.524635914053232 -0.5061486538823219
Ni 5.846297922974162 2.7981563024578224 11.999647488332654 -0.9494472052076423 1.9589314690035229 -0.4326238452202937
Ni 5.668292705877423 1.4680648290575529 1.5007313062041394 0.524336123424626 0.9606471876885196 -0.04585665332279844
Ni 8.886466278186573 2.6099614914086553 1.9061419586595811 1.3514479262254402 0.1720019163940199 0.26982622103336107
Ni 3.1559508352314194 1.7877771338916169 10.25284300600805 -1.1499413155040838 0.6163584766702095 -1.2814496426594317
Ni 6.158202497424101 6.321024483820969 5.591351155513718 0.015922584767527417 -0.35163281008820735 0.48607116640615644
Ni 7.351111504228375 1.6393474891333315 10.778974596923343 0.2690983417284011 0.4270214114318517 -2.7761221560358833
Ni 5.393936969069869 8.73291424729877 2.950612124321137 0.3189995974342184 -0.7985723006002247 -0.6800953527075384
Ni 0.28649036606768824 0.7929269800799869 10.742566110950724 1.3658327341922025 0.12062716146646968 -0.019491275955392236
P 1.4704282998569878 0.9985618145690306 2.619190063187772 0.019333410221289284 0.8136999002702825 -0.39109641540046836
Ni 3.4691429035020613 2.542368065821704 1.4146292373061269 -0.07396575285418874 0.6575040976705837 -0.4367432667053059
P 6.792081687278769 7.896576654138425 0.7986425330054686 0.05152927822754352 1.1394406730830764 -0.15272558466291117
Ni 8.301760155898355 7.701328216228688 9.820674553404608 -0.217401941795374 2.303999995610651 0.03434068226339892
P 9.009385152526054 1.866755683407364 12.7139481404207 0.3420071140729852 0.18216445874931853 -0.5392125263158262
P 8.89928603808701 6.445617100127365 11.41410449506098 -0.6840283692133575 -0.7122110022951604 1.3164667821645648
P 3.372258993494098 6.819965124881441 11.218169087234052 -1.1340868649703306 -0.41259289471134747 0.7721914966138508
Ni 1.9903734829637998 5.378330704686051 12.572942736815657 0.9479369392107029 -0.11893331870381453 -0.19691822001972537
Ni 1.4755966679086705 3.398156012059112 10.4954969663961 0.5270218977869053 -2.228515235008775 2.318143376990569
Ni 5.92533165079651 9.082597569001935 6.144187207547295 -0.5020122631164452 0.022550117386374066 1.8495469703304082
Ni 6.765347797730297 5.739334775626974 0.7795112944682528 0.31519976407215394 -1.2634429216693661 -0.1473820609628107
Ni 5.254915225587154 5.240881542941482 8.639869827791834 -0.26521597595485935 -0.2818880372939016 -0.21414306853844411
Ni 4.295631168934024 7.657452266095988 5.076095208829598 -0.05125339885833753 0.7694838678747006 0.29005411804446174
Ni 0.2644788199258694 3.025159855816776 6.61236042484672 -0.6910960746934163 0.5981818057611826 -0.09365783196647741
Ni 3.3244377944393837 6.3863923843749895 9.063908676555975 -1.1940779008119822 0.03034878749518644 -0.7470592203225973
Ni 4.675506220732693 5.113364476385201 12.846082711601092 -1.6920725581286018 -0.40507601750901207 2.0706728979445885
Ni 8.205372850649807 5.497543436098793 4.855622927695386 0.11250633213154818 -0.18256143707742106 1.0564009829520773
Ni 8.875513384326155 7.423533031642967 0.22994087854704554 -0.4257032068410604 -0.5536217597626207 0.6370494293606577
Ni 0.5539883590031082 4.4548481726329205 8.793541411677271 -2.646975901354809 0.7591225792450346 -3.71357362233423
Ni 4.831716006721802 4.402851815045353 6.366894210098873 0.2985205036442601 -0.5787247254778356 -0.2665012704251862
Ni 4.55176886817862 2.9507794985178286 8.729593432879799 -0.014264223228498015 -0.35296592707733404 -0.5073758414212036
Ni 3.320694865974909 7.140220016397087 2.8890598036686166 -1.416583739492825 0.2980569337442803 0.31810485353409085
Ni 2.2627336043492634 5.415107046036012 6.868690328525977 -0.0008183821362373003 -0.44723696714777816 0.20301456272545038
Ni 1.00650749071966 7.9111529234656786 2.2264860551042336 1.2088265198760666 -0.15262068365393072 -0.8818855561075845
Ni 3.606812778473037 0.14664646581661067 0.9948271628505462 0.41415304010961573 0.15569649436577704 0.18310702516824592
Ni 6.382428742684108 5.522235728303006 11.652639394861223 1.7769981524284042 -0.2750134216612554 -1.3900306715946449
Ni 1.5804078612983965 5.612645383669716 1.4341191348362528 0.41464669191658265 0.5764014766612976 -0.16104541738251618
Ni 1.0054407101253626 8.145973403593192 12.040781076627253 0.009618754036686659 -1.6017677017947576 -1.2342411032944294
Ni 0.98087716730322 6.336428427747246 4.084724047249198 1.705101109177786 -0.6093514492247569 -0.11270507840591558
Ni 1.2646040198486117 3.4291938095225083 0.24695143083387336 0.8156035450508986 -1.5346302847163118 0.04947085303661802
Ni 1.1369214183725254 0.770905317915291 5.763959934224822 -0.38420688736948666 0.9222354206795407 0.8794599773852273
Ni 8.29359376652132 0.19028055103870714 7.879645190757725 -0.6314274551881899 -1.3440524050923175 0.1010978331842904
P 5.0104845237265305 2.0531847886452796 6.61827002148375 0.7782292181674985 0.6657735367682276 0.2504904968192267
Ni 4.482713217466726 3.5529587512298817 3.7545949977671964 1.901850664830131 -0.8210265158386828 -0.4177741818019708
P 8.16219582573406 6.137188758993328 7.006895433070988 0.18051586740230202 0.13367576712031173 0.4616343735200308
Ni 6.399671963497106 7.313424720819488 7.709432070191575 -0.21158713488580977 0.6709923619650057 0.8999025615102954
P 4.0270231723974685 6.772677316123875 7.111748010190665 1.3493010550857665 0.537684519707074 -1.4876498022017155
P 5.732170792153201 3.860035223852181 1.444362067818395 -0.16861834463376768 -0.8898063536165579 0.20460864668544762
P 4.80718005305296 1.0005022516845201 12.825233588451677 -1.25409310502335 -0.0697357739332412 0.03799216297305715
Ni 7.234096708695264 4.146530188112086 7.6478797495390545 0.7331377251454987 0.4277228083742505 -1.443506789135914
