# total energy = -340862.9491181413 ev
CRYSTAL
PRIMVEC
9.36979856817857 0.00000000000000 0.00000000000000
0.00000000000000 9.36979856817857 0.00000000000000
0.00000000000000 0.00000000000000 13.71364731828565
PRIMCOORD
 96 1
Ni 5.152274141848664 9.128638578139203 7.739653096954101 -0.6957754824469565 -0.3439346701130012 0.21403379665408945
Ni 9.009857643180156 4.220091633589168 9.416147095678397 -0.8092562626766321 -0.7430711822091267 -1.258386333082065
Ni 8.467336943088357 8.563958304711587 4.48592593335229 -0.4488989282312334 0.9778625231255416 0.1544309973897921
Ni 9.339758876829528 6.387382234018075 5.152656429625452 0.40179940364026934 -0.5584832016199801 -0.9580812267335566
Ni 0.725506304974321 2.563286392349249 2.811736905046857 0.10075536224320712 -0.08104142875404752 1.233501139804611
Ni 4.091463040458476 5.378105024106529 11.081408580020039 -0.7543123023405848 0.07087862928843278 -0.8000167463562351
Ni 2.0909829618467115 5.5202261270061745 9.298469922976839 0.16543480469946348 -1.335101880767249 -1.0129673372484749
Ni 7.48874582310273 2.5868608052511153 4.920593694418051 1.8727570898982844 -1.1499315453120713 1.3209122195304284
Ni 7.3870179213238885 9.75199252946487 6.870578055219506 1.2216930914260895 -1.3442323823136075 -0.5671858716003005
Ni 5.717516603183322 3.231512308455136 3.8531234772689773 -0.3227228119220764 0.3786777300211414 -1.377454634701847
Ni 6.320772336832316 3.3305510780786367 9.119973388532031 -0.3209418087622537 -1.8448192258374356 0.5918052128108775
Ni 7.340403174031843 7.143618666971032 6.9250765509279395 0.5991513687633035 0.9589931970248646 -0.1448351261712409
Ni 0.6426819715696911 1.7467178271724755 9.212019477571802 -0.32038825025162887 0.5710214432963069 1.3077317162844122
Ni 0.8262588107344483 4.89036953555575 3.1033297177306944 -0.06483319442530125 1.0892920772531431 0.9692164174147695
Ni 3.123300506148436 2.4283706644581615 4.079330088444713 0.19396736492151753 -1.1806117480047473 0.713175680201275
Ni 8.653767822861186 6.326113121949193 10.414939501123653 -0.8031794603549328 0.5024429228959606 -0.08669605593666359
Ni 2.0303041470802223 5.919229624229181 1.476644630590274 -0.2280527366410008 0.11284314664567663 -0.7374867461428138
Ni 3.556185194569037 7.43146824517383 8.896742625344226 0.7713165502080651 0.31382628076339497 0.8658243888796636
Ni 7.9127573123905535 6.850484522442061 2.823585015187719 -0.9387434456368929 0.2270111827503639 -1.1213298224149784
Ni 6.402514458515894 0.40807439910309184 2.7212536983886557 1.2759600802997704 0.3090203747343194 1.574890160677623
Ni 4.113013576894999 4.793841871917027 1.3863122776871284 0.1577664895209283 -1.4788031504443628 -0.2246110579493035
Ni 6.239854757412396 6.457880597560858 10.831641610640114 0.20152280867127229 -0.11248936285068369 0.1298759337582473
Ni 6.544841696981456 6.340467653175607 4.576641511012068 -0.9217577097121739 0.3280748202626092 0.8399920011975921
Ni 1.982143383043818 3.4459682553938955 13.339031533352092 -0.3012751835712618 1.670520542989439 0.5582703142782257
P 0.18206830161420043 7.979901288088 6.4556721360660365 -1.1263180196581892 2.2025558348305356 1.1756322925122848
P 3.8321726079332965 1.1255470388858149 9.10391449096744 0.3870258448755205 -0.017392484444834565 -1.0266684888846513
P 7.727169714478284 1.4044765689635825 9.380669290824809 0.051364984735537356 0.9796496969329516 -0.5105267283453595
P 4.44700941246731 3.51690699946386 5.477244050573452 0.10728545005224105 0.31913792278429554 1.3304664388777667
P 4.812609578213704 5.085842270833469 8.960771143056828 -0.2692173838047686 -0.5274389307196659 -0.275216538810997
P 3.346835787785888 9.00989512237396 6.169605630508399 2.134170661387918 -1.6689606547014868 0.20296134089001175
P 7.428535498258773 4.61055924442362 11.04237962155365 -0.7427762766765272 -0.052916131272741126 -0.5196950251081889
P 6.696726129866692 7.720479678384511 9.105861535085488 0.535161239064588 0.27725773761074185 -1.4331485858300417
Ni 3.9451536376513827 6.760178404974577 5.109732445943123 -0.5564749129406997 1.4971734254214346 1.6860374076781155
Ni 0.2634028370651749 4.200864807168409 1.055821683715211 -1.5824885418501713 0.05860084036234423 -1.527084354048254
Ni 1.4572941228299663 0.4907375719743703 6.276502850092471 -1.8078213084568477 -0.37706050613269254 -2.0567706860411996
Ni 5.923577210710287 1.9588125849016684 6.9809186757341966 -0.5813217967810504 2.12703713566693 -0.007530761159406385
Ni 1.486293649034766 2.738276748213819 7.297607556588288 1.132261638836134 1.1182668672189386 -0.29696164379757245
Ni 4.813612146647924 7.016526720786248 2.9825539526815015 1.5477092293874573 0.243333059838839 -0.8123374727051171
Ni 4.670797678662929 2.2671070633238117 1.8793323325640803 0.5126154925535882 -0.969751206872317 1.15964645860699
Ni 0.09521963977501108 8.371034154612449 -0.1346880417887361 1.7289077246790805 1.4336322103346792 2.2017060852357306
Ni 4.085972338566387 4.984217436837585 3.74374326109548 -1.1721543612660135 -1.231665629257769 0.4055969230094886
Ni 7.694412899094768 8.938000658862027 10.795575382443824 -2.653062473868521 1.1310010269561555 0.2864118933061841
Ni 6.433369204813925 5.192152004054683 1.9584593435000786 0.299698068892129 -0.30804952618061787 1.1642466763831627
Ni 5.714565116671363 1.3629027732379937 13.264209944804172 0.6564345187554889 1.1323056047001918 -0.8841936354154708
Ni 8.85598681302338 9.098392868740465 8.68567573450507 -0.20558309478357498 -1.8689130335618458 -0.6231114791233269
Ni 0.6609746290849193 7.445007603935038 2.93790217816487 -0.18346929360367112 1.3626332534182986 -1.582881920633848
Ni 5.823938773985945 7.989130539561902 12.782462694443213 0.252764637565384 0.155330626385926 -1.147829411367404
Ni 0.40858036821942756 1.4216514095236465 0.706861343037348 -0.8503113808457291 -0.2035580939337462 -0.02025669336650705
Ni 7.085132385041999 5.285447087227928 8.457398397871739 -0.1201777326338769 2.00413274813051 -0.3797992452200943
Ni 6.475355271671344 4.573904592884629 6.105644575344643 -0.8447557411348225 -0.5601827008095901 0.19763941445646604
Ni 8.08982776351117 6.695939066796836 12.975852523525349 -0.38947122109221954 -0.8749659461696158 -1.380557956217519
Ni 7.298248450802314 2.4082068581923366 11.360796293242045 0.07539040111585726 -2.7427883177704437 -2.583406661243596
Ni 2.9619806862233826 8.313166279381157 2.7380528100308483 1.2895172501589147 -2.2368700347313735 -0.6999717799164913
Ni 5.01172716508873 9.258963104789467 1.0411410835027133 -2.839921766990348 -0.656217003428044 1.2166200477785563
Ni 7.220853915599842 9.026385967647126 0.4208501192905699 2.4668554696187126 0.8949642436684134 1.215609090015539
Ni 3.481948281444439 8.484708549415885 12.859986532864303 -2.423435707872181 3.5396572625263167 0.31519976407215394
P 8.34219391498131 0.9308445010407413 12.761439677659462 -0.25230466720982997 0.05803056968117103 -0.8719096758417952
P 3.2222174683920786 5.2999140560357505 13.05920437658275 -0.7872051964138637 0.633800840516373 0.6300213188692827
P 1.3879482444966142 3.598555423162932 10.252665835716321 0.5539480327537879 -0.7474795956894675 1.752058451763931
P 1.5205308925734864 5.432140651771498 7.055465729187511 -2.799492712441024 -0.4478360341843578 -0.8092112683713095
P 5.987310579771694 3.41518846748347 0.7280398984753801 -0.8435064421087537 0.47145804447867196 1.4792006429930975
P 4.352496255495478 7.564753628134503 11.316474335630875 0.012160546621933896 -1.3685843287954107 -2.347783568454505
P 1.530640905101751 7.498546632282123 9.70883711176081 -1.5958395092357809 0.7897184497540205 0.7821509218194078
P 2.729038126941466 3.1412811493752573 2.185543904790641 -0.941974808089997 1.608714822536552 -1.423947636057064
Ni 7.586810133687362 2.740019530725642 2.28568081479256 -0.11283543333619278 0.361725418437519 -0.3163323350147003
Ni 2.568552219078521 9.349597165202724 10.48147725086134 -0.6762250711188548 -0.1642207297867043 1.6328235426592976
Ni 0.21960839910677912 8.147180299827674 11.447754581723107 2.708342477387749 0.20196760951817472 -1.0454570823460638
Ni 3.8858802926524927 7.080110173072444 0.7205318789768644 0.4695412870719333 -1.0137296693357962 0.1719839186718909
Ni -0.13836943560000134 3.9572125682573858 12.068942235646979 2.2745210123149278 1.0780874667865754 -0.9813674509550068
Ni 3.3396866315680325 3.3417760966225303 9.46044188087406 1.0851772837538216 -0.3963316956574787 -0.7260072847483044
Ni 7.402496828364383 3.6232448420804273 13.079239816609803 -0.09859383581551408 1.1696048553712823 2.346883682348055
Ni 2.8060859796012627 1.5063450177191835 0.528801441200341 0.6760798037902421 -0.8097694548676247 -0.14427591123366118
Ni 4.304522887428087 3.3409515543588717 13.019969282550447 0.49752877342379476 -0.08944096567165241 -0.8226090298344542
Ni 1.4960850884157084 0.26459092750871893 3.4633407987012688 -2.348693481863284 2.476982787860702 1.1395592009388116
Ni 8.852669904371846 4.514649987482641 6.508784838583616 -0.17000956855433944 0.8111527083683965 0.6660028791702143
Ni 5.888562273900162 8.436098035053847 5.3775868742522075 -0.9018149480416597 0.7921681968460939 -0.377343327480434
Ni 3.5905536152860664 1.7462493372499426 6.513763012500452 0.3037005051833027 0.28724801605423433 0.9246260323989043
Ni 5.03422405116877 6.499463763084897 7.303422453506769 0.7059920179686422 -0.10972182740787555 -0.17507721288523395
Ni 1.8379047056943214 9.246370095671777 8.353462034598076 1.1557674352675578 -0.4823615787650532 -0.3005904987994113
Ni 4.747611286361458 0.3742391199179049 11.14876993504154 2.258189622144756 0.08683335284547626 -0.993996452572927
Ni 1.300621722936441 5.788183623098217 11.520409872869234 1.2252342718101286 -0.052385969800883975 0.8154788465475762
Ni 0.8904869051540485 1.9291665426037727 11.995710701896137 0.5688460329115429 -1.7126688942227148 -1.1726549550515157
Ni 9.409432698108652 6.490468756572262 8.145796380596511 0.2088219134358468 0.6965576120286197 -0.19316955161057053
Ni 8.572878352836616 2.5139825129018636 7.367601824974425 -2.5958418016831555 -1.2851463747847285 1.8635252868873715
Ni 1.3106848864724525 4.036724677909707 5.136665931589551 0.8299042779442868 -0.5557472907460558 0.4744495230068281
Ni 7.985429469173891 4.6997690954723765 3.971979370615629 0.03983281572622172 -0.9968015261218898 -0.23637616890503163
Ni 3.304756022943963 4.652442243498081 7.084319086536481 2.9468012398534214 -1.133473399756048 0.05779865617602304
Ni 6.04243310405694 5.6788193355820855 13.367281475680839 -1.3493437353982438 -0.9059778211700977 -0.5283298179650513
P 0.18587243978516935 2.090945482652909 5.55516516844885 0.4372759992803244 0.7740470617653508 -1.3787864661393932
P 9.269119966309985 6.502480838186011 1.002659321265843 0.2066344188662248 -1.0647948634427276 0.8174074310288568
P 4.319364648173936 0.3498495345508309 3.5470618218176266 0.811447613900996 0.7033813198186725 0.021582097046149926
P 8.650226039046835 0.8073046454486034 2.577178055532201 -0.1419305509299362 -0.5780418404781981 0.6333532114559931
P 3.3166556669763043 1.5365626177225695 12.090376586582712 -1.1469192408483087 0.8241617190335548 1.0346725901360503
P 2.0156778916987386 6.591943673792935 4.105920639467848 1.905829189861905 -1.8769323043218966 0.8348184274164526
P 2.0551903317651816 8.88568907411198 0.9305877685631933 -0.5468065366130002 -0.27278967453705927 -0.6560110580648251
P 6.08897289296138 7.354523460296991 1.2271587551638679 0.567372790800126 -1.2792904302245838 0.4484073333067955
