# total energy = -340871.66293551336 ev
CRYSTAL
PRIMVEC
9.19010620906783 0.00000000000000 0.00000000000000
0.00000000000000 9.19010620906783 0.00000000000000
0.00000000000000 0.00000000000000 13.45064938714108
PRIMCOORD
 96 1
Ni 0.8659193835680703 6.4193443738641145 6.532173146625987 -0.8922702417760181 0.4305127124145618 -0.5027272869055986
Ni 0.22073348658149342 1.4118852171650893 0.3605820908030783 -0.21198462743454458 -0.27554641134658997 1.0668023807910596
Ni 8.282822223286205 2.8434005013340036 1.883278852402634 -0.3470616457777571 -0.639507403982847 0.5225021555396807
Ni 9.078088069810546 8.034863965875063 3.2937010046487116 -0.19387557653865967 0.09008065613818035 1.0434932737514737
Ni 8.760625038640073 5.651703986803023 8.82901964756136 0.18277535286044005 -0.8206709322714769 -0.7099222062609838
Ni 2.5234837117880535 7.79685859355996 13.388346247015997 -0.48917140259803493 -0.08244062309441931 0.1980783017660976
Ni 1.6090405670869323 4.908242769351978 2.847233694661389 -0.5505536623602583 -0.8466010218736774 0.7435715188843129
Ni 8.151945919821097 3.3277926228871895 9.58572656518685 -1.3799984841696236 -0.3993938795225702 -0.4546245178611009
Ni 2.6089517001474034 1.437102868784235 13.391816431145513 -0.6053130174893253 -0.45019373578325694 0.5706368062633785
Ni 6.678643222418853 5.279412781594712 5.96986914209292 -0.8624840116525211 0.8097049201782766 1.1014575089710836
Ni 2.17482026981328 0.40962141689816745 2.188501581025169 -1.2012587348311374 0.6060807488932852 0.7062025913175516
Ni 3.818057222350228 4.86166731074927 2.1071783305959335 0.8975949964230413 1.3918651537002222 -0.4625327169645841
Ni 1.6022398884432851 4.517415119786593 7.722542799165564 0.3853062910812525 -1.5754390912025578 -0.1575626010402383
Ni 3.738875266683114 2.5954790043479616 2.117804850481946 -0.8452136546078475 -1.2224083723255592 0.319844719043333
Ni 2.6608022797520756 8.71520753342804 10.758838117152228 -0.08807853810648703 -1.0729159498879652 -0.1359823037663013
Ni 0.6741227846152958 1.1496822950273882 4.508886701163208 -0.11803009016325479 0.20737695345920415 0.21712220577142605
Ni 6.299119403571963 0.5173441666135394 11.510648546154291 -2.182837787576318 -2.0103381056102734 -1.6412369635339734
Ni 5.687674062764151 4.558614366218309 12.647551998406016 0.06512809995790074 -1.6905324673349915 0.36371622361530265
Ni 7.406949954622094 1.6026810135444947 3.9793481825331067 -0.08604453839559374 0.8801873424695551 -1.0140772824832018
Ni 4.508537477124751 6.435647622396318 6.698154737051729 -0.34487543675971577 -0.2266939086202612 -0.3197542162120558
Ni 4.700417706044629 2.230935058729645 0.018615479271042984 2.8795254974248987 0.12055182814384402 -0.5511303607993346
Ni 2.0738577622739447 4.688516518418247 9.992057005027867 1.1473468153040305 -0.3651419003182357 0.008526292303456284
Ni 2.176731811918522 0.38648900039286416 8.081715127666026 -0.630923518968578 -0.13333329617922843 1.6390111595272483
Ni 4.3527192252287525 5.033448777245289 4.898901026323238 0.6062926077937751 -1.8451089891637127 -1.4451692644400014
P 0.7020634647237832 7.80353980082203 8.463794715068051 -1.138965790329187 0.315511895995934 -1.0102293694920215
P 4.965726884103347 7.320195351384217 4.744487941676717 -1.4688648082847284 -0.946797426289621 0.3850702638110465
P 4.442671985450399 0.274691357555069 10.008843653150144 1.591073455305705 1.5042840683242866 -0.10225020162117875
P 7.167556876259437 2.2928579948119356 -0.07378276823043474 -2.2765974352279823 -1.3140206346169176 1.150009192627542
P 7.555315030328907 1.0328392838445088 9.614282063405145 -0.4141653814047899 -0.02168931204797555 -0.9945764934461129
P 7.484496071372224 0.6018113523995205 5.911372277630024 0.9769366688771627 -1.6059570572857569 -0.05610327075147112
P 5.048934106318999 3.1070278899443604 3.918873607199788 -1.1394116196173536 -0.4944786737435613 -0.292525976623722
P 1.261967013497769 0.35834062388255733 12.14354267599779 -0.6748307618744894 0.15626856481916312 0.4149079159977693
Ni 8.8541803205216 8.067130429007285 12.189947198623779 0.42909526324174485 -0.8352542294022905 -1.4011288383903355
Ni 8.285294361874234 5.219723041337296 2.193666420751831 -0.3002752815518377 0.7010907240122829 -0.09311738608197512
Ni 1.1501142300223226 2.777314447109048 11.961191668274665 0.34988343149726836 0.37076798825576146 -1.134715242582949
Ni 4.358058676974643 -0.14173073798674565 12.48010458602938 -0.3185038887447224 0.3577003564385259 -0.44846595445887283
Ni 4.5073243830964245 3.4136006451787226 6.844725904013621 0.18866497887199765 -0.2918420631828199 -0.5494570868619699
Ni 1.019127645281912 6.963536516950021 10.353099520155332 0.6115623408331468 -0.7807643258845263 1.064303782738922
Ni 3.3168747766322535 8.574056691147259 6.225686778390613 -1.3028630753382013 -1.4748616492981117 -2.8265754275904293
Ni 1.007116176380227 3.799943522881811 0.7758296907629225 0.8860571709867708 0.5772265436657543 -0.39216676564651165
Ni 4.08565473687147 0.4355706009768192 3.7371015761720003 -1.0545518455584808 -1.2748146538414173 -1.8292475966514237
Ni 3.7032360345478925 2.18358763119982 9.029864825152695 1.6653726802399125 0.2593466616582759 -1.312612184305165
Ni 8.7352695354268 4.341902470142843 6.63714254050131 -0.27799821532119223 -0.4688979970609795 -0.10914924273385718
Ni 7.257730199031689 0.05712753862789169 0.05825884071036868 -0.3709435946016773 -0.2073108761079591 1.6250420989416656
Ni 8.19663740663739 3.8118171401893677 12.598860058328128 1.11536254908795 1.188056891428883 -0.7950331770987147
Ni 0.35013477798943216 0.20171180461308663 10.022468904713756 1.1519912560545773 0.28274447175692596 -0.462784427964074
Ni 7.063809766518716 2.6130229172273167 5.974348399891452 7.121955756761928e-05 2.3023382916375126 0.6160018646617391
Ni 4.810744931878393 4.377431421002762 9.96949988917539 -0.9279712947220534 1.0770150596580033 -0.2704404575785923
Ni 2.029800392790641 7.117002101639568 2.548306188837365 0.3888870664539754 1.3310500792953786 -1.6893713571473548
Ni 1.7418651730823829 4.667452794835491 5.2934359647600395 0.4095957597562365 -1.3103190173956145 -0.010130660676098682
Ni 3.6440425600293356 2.382672903439455 11.305661387664722 -0.18905218700808732 0.34667289497977066 0.8691709367543934
Ni 8.297103648437865 1.2788216684064837 11.728495420354745 1.5121958669721958 1.9839899546340476 -0.42617449005052416
Ni 5.375329920788964 7.217100739189035 0.08425857037353403 0.4147017135242342 0.20918186787842685 -0.5434162799845287
Ni 6.913606669556865 4.128848236364906 4.04426066018672 -0.9537707722836606 -0.15650973429569173 -1.262613483789535
Ni 1.5738516501591955 5.33908414163958 12.257119523410463 -1.4414722752043885 0.321484311529285 1.0200442986999143
Ni 5.149777142476757 7.381254417476639 10.338613155633736 -0.2440946205952119 0.8483905096739325 1.179714947222091
P 8.051415347276697 0.5376763577367896 2.24130885069309 0.3586100127369889 -1.1881103703746376 -0.997429646624192
P 3.307666290144504 6.489602736338011 10.841935977103205 -2.016245472233644 -0.8104541396394751 0.20114459939624715
P 3.156057106922547 3.794199706459811 13.3472278735195 -0.41449576816101524 -1.0809647883343705 0.32251352412474776
P 3.714052789633801 4.946896356345465 8.13885369442145 0.4826647118277688 -0.7535990783236441 0.4150408420312078
P 1.0078513848822428 2.7083702698325056 6.265487290647245 0.1786926981506342 0.12777457114452834 -0.9733857183011106
P 6.915132227198548 7.479735596321671 11.552386332813736 -0.20284075615174746 -0.896630832737559 1.376026386895753
P 5.915864401577341 5.635033134019812 1.646023392759588 0.4645075813027678 0.5351291002750719 -0.4421284422766192
P 3.8336987832306164 1.2424104673441456 7.038442316167285 0.7078761223652326 1.4944655395719681 0.38877779456962075
Ni 0.44540860974441965 8.714260952481695 6.504411673589867 0.46365423216353696 1.7499216079265862 -0.5879218185960714
Ni 4.706896730968644 7.520999173497314 2.424721315691 -0.628378383949221 -0.4806127143947464 0.6606765818612944
Ni 6.817919283019493 6.6600975879555016 3.7008116845124945 -0.1884307513740045 -3.3447614722532584 1.551965947781282
Ni 6.004613257876938 2.4881661333724634 10.50561668587728 -0.06310618443186551 0.39238968029059523 -0.39879815492010023
Ni 6.36527897864712 8.732209230037158 4.1949480757492745 2.1041041810198404 0.2543949740799554 -2.2287618038019423
Ni 6.120142083862463 1.7730655838866831 7.880022622276118 -0.40863031051917376 0.6743479087008 1.5612242331547563
Ni 7.702365920838366 7.559423007833921 6.143503334014018 0.37247185832074564 -2.0732393731201846 -2.1052380375139674
Ni 2.8756302040411263 2.3166236096396005 4.316366840846576 -0.6357173408127954 1.3676325064051027 1.0466593301842813
Ni 5.839411907473961 1.0408622466227575 2.0364549487445123 -0.12982091215059577 -0.7480508948119052 -0.11725695944265611
Ni 2.566842633194442 6.7525408669777285 8.196288182598932 0.46171742015214035 0.7358890626383907 0.46608495309221665
Ni 9.056914064952489 3.492460947126204 4.14983476305495 1.1987948466716773 0.29150730555122056 0.7963966331051446
Ni 7.838241642117182 7.6667726392345195 9.541325485728851 -0.5268712311416539 0.9026418148183294 0.3711197151682254
Ni 7.492583364894399 5.9854335060805965 13.227557066635743 0.6695926534040016 1.2090838873025112 0.5160689983198273
Ni 6.037017572603289 3.4478981217977647 1.6590568014790752 -0.3050742456023778 1.119308935330208 0.30944357831466707
Ni 2.7576659998926725 6.608504331326535 4.5935174708408875 0.5061435116759994 0.6517378846107679 0.748410592144169
Ni 7.073633990126904 7.572022643537219 1.7720289398988407 1.3474493465890085 1.3419006488566374 -1.6005263731884887
Ni 3.769551841429728 5.739965767470034 12.791311911858324 0.3843079317237253 0.698137812031546 0.31609039420722335
Ni 4.497582870444713 8.267585027081926 8.014838724301404 0.6569135152744364 1.7107547079191374 2.872084210655505
Ni 0.3495585583259772 8.240768296970895 0.8748356246762684 -0.6904332442984367 0.3988688602570356 1.495469041135818
Ni 6.8877457104984545 5.278842995005651 10.757250985798501 1.0479639079283178 0.6672889449714895 -0.2565888964074806
Ni 5.946265273135698 6.40455749286732 8.534598050844066 1.338371038436824 -1.9964289517283489 -1.4164544130038121
Ni 0.15982330021072985 1.8453181994222974 8.16771889922122 0.5205283196427616 0.12209526137156393 -0.618331027015548
Ni 6.744775227175186 8.727016819991672 7.6420264400672915 -0.3477000506927044 0.5436870171474121 1.9738207274105297
Ni 5.220991276003273 0.7284059853510135 5.526253522082792 0.5059571066968062 3.0355382374795146 3.4352041397165483
P 8.678235735882915 5.9011694216432975 4.543454366906741 0.5573424031473175 -0.8195455604177821 0.7279099010876561
P 1.9776281594663365 8.606902130974822 4.4718165694809375 -0.7771262149113068 0.5931316449317849 -0.9368529134823995
P 3.994277510177168 0.017680845462855255 1.1613601630712835 0.7513066827450415 0.19276306020077125 -0.027674840207449113
P 0.0042246918547089556 4.665688294430652 10.802512259203857 0.11244899653105152 1.4726723549562764 0.6905358313145721
P 6.839791735954467 4.1899164925636025 7.919042894509985 -0.02190425627225905 0.0175637199153762 0.06325299442237493
P 0.7360227454318983 6.182680757065191 0.9595803516717604 0.5417476340328541 -1.2254523013582057 -0.4119439482734389
P 1.833619194133969 2.420765893950154 9.903914695742435 -1.5871293830562925 -0.3870258448755205 -0.6811770158074915
P 1.202194562283875 2.5935215117113444 2.6503834562678827 0.879625556428814 -0.32544843838335563 0.07632422578403629
