# total energy = -340862.07879971614 ev
CRYSTAL
PRIMVEC
9.33531177134126 0.00000000000000 0.00000000000000

0.00000000000000 9.33531177134126 0.00000000000000

0.00000000000000 0.00000000000000 13.66317240513396

PRIMCOORD
 96 1
Ni 6.441738673154707 -0.05690339412528914 5.533215843197087 -0.899060011004342 1.1008011063340073 1.1358501275183406
Ni 3.119637213553051 7.56786669164831 4.030813139173112 0.2513975820145283 1.40841200231531 -1.1162287537429874
Ni 1.3032935690981038 6.707132257206523 8.611857034225126 -0.31015603100065936 -0.38008103812657124 -2.4454284100931885
Ni 4.532480668642504 1.9815506604233244 6.169004733299313 1.4890124868771968 0.7413809389908974 0.48680367369680677
Ni 7.790289834693038 1.8405967849581877 12.45148111714941 0.9597473015820696 -0.4175672079974873 0.3450842103364122
Ni 5.023144665890507 6.146677467655895 2.6129864945530095 -1.1124911410774259 1.128414754286218 -0.01651291005335866
Ni 6.5345783507161865 6.241346866363885 7.6826928959662295 2.5849020148422 1.018672100942736 0.43618045222330043
Ni 3.301927850430177 4.365145201544512 10.781308854020745 -0.1445044823046995 -0.011319795888193407 0.07937226858174072
Ni 8.614093774973616 7.38218733652535 0.09582791092371512 0.4229423562664716 2.1489030825020863 -0.05731657433328193
Ni 6.244520872434363 4.723406469093724 0.17977290323827916 -0.3080202156045792 -0.5905286600912991 0.2575875128753241
Ni 2.2102751390491484 0.36121776085074236 8.679804102413284 0.8144005258817328 -0.4518770370229508 -0.1884186671891465
Ni 0.3245495889559474 2.07193515093617 8.336189005816934 -0.05213425880139408 -0.404338110901723 -2.7461659759934256
Ni 3.7523193118309974 9.085144281768459 6.09475913012365 -1.4853471222104677 1.024812666622835 -1.0797224312868372
Ni 7.4766326877460125 6.153230856660234 1.620384243788428 -0.7249297354134097 -0.8747803125213708 1.0636540649700648
Ni 4.476487467434485 6.969659900482937 0.5020614796346096 0.75054769309183 0.6278721337367638 -0.2419235810858221
Ni 2.1745675707562713 2.882632313208069 2.382105558861655 0.6143167636498323 -0.6100564457115816 -0.40550127797188873
Ni 1.4348281147834985 6.539115312334576 10.771785902278113 0.16118194296038046 0.2975987631609391 1.5137524128260382
Ni 5.982282623829081 1.0043208678830253 11.343002439470057 0.12806741979459882 0.12764678731741244 -1.9192449490471786
Ni 1.5538066658665615 0.3235544446997328 5.223280685133296 -0.06954371252709314 0.7499648240051664 -2.009867336621442
Ni 5.046548293004295 7.377706386778793 6.491468813560716 0.8315610968214195 -0.09105201891251415 -0.34283989438692564
Ni 0.7656253425399149 1.248691329373911 11.898573927328137 0.5645764590019116 -1.2898229543247917 1.1359162048695857
Ni 3.609703750834846 1.9228222128075103 11.43550137814456 -0.30692518276818753 -0.0026955445542921324 0.1819256032656351
Ni 7.257150167972464 3.92083102823746 8.900545955771856 1.3969996467133101 -0.326470966110599 0.20391342039063592
Ni 3.4764141664987163 2.4183219016570052 8.314163270750212 0.5035035029499909 0.1985045906702388 0.5791903522603443
P 4.06624718282521 4.550609844492116 7.28370072875201 -0.5212366585636958 -0.030055167514167595 -0.7046473310152896
P 8.486312024700963 9.251975642019962 11.708041143510938 -0.9710043625531276 -1.6756303534121788 -0.4510787094913716
P 4.6395380263373305 5.1003103546510085 12.446426045716574 -0.17094750698757655 0.35238202954940606 0.15249855625376962
P 0.6727604596361105 3.997996716997962 3.4976221282366917 -0.3185640525586965 0.1487709708905373 1.2001423618385074
P 4.241069570124741 3.533443587335627 3.136012284283126 -0.10630483130652661 0.14629988364222546 0.01551969290215392
P 8.545180501996356 2.361871270162358 9.974225391013205 -0.6659008063747112 0.6421006186313201 2.0258922512947883
P 2.252181354491429 -0.14716092439531547 10.821219179763412 -0.46722678000614376 -0.2927110960513346 0.2810711978195611
P 9.326751490915635 4.95555700721327 7.951037372132393 -1.0545685577290291 0.8685554146575817 1.4451180994870918
Ni 0.13339507336141318 8.670721777395732 9.644068080155682 -0.39685362959921977 0.26240524597894166 0.34220431768545584
Ni 2.6916598361969886 5.9031098429946 13.25740420087883 -1.1030369376430615 -1.1213642751973398 -1.0682473407677022
Ni 3.8184599971525746 4.53053892375233 0.9997325620487905 0.49267684464813216 -1.7821146477193632 0.599054181063807
Ni 0.7449560283027231 2.0498758087463482 0.5609252892740174 0.18859195954221714 -0.7354964551856624 0.5681106974074152
Ni 0.5108954853537074 6.250318101168971 3.0960338107630614 -1.7260507148462594 1.1946039485187814 -0.3026502095419175
Ni 4.675899066468247 5.133926813062158 4.744318501442188 2.4906363740883943 -1.867108119142623 -0.5966905659276369
Ni 3.2963546691828967 0.4135561874217265 2.609324251666396 -0.13431160093209774 -1.1835803437147678 -0.7570070755639284
Ni 2.0459736483420548 4.241947089450108 7.985072052519889 -0.3795850723267592 0.4873569750971155 1.019342130426567
Ni 5.682815151079486 2.597895962750281 12.665132801065251 -1.1752561401197887 1.6420108655855206 2.912061008158759
Ni 7.807289437794038 4.76093442322114 4.692575667775017 1.308365236103353 -1.3254995817907946 -2.2315277965828537
Ni 1.1869195700552273 3.5929001892852566 12.258872159949636 -0.5931771534577398 1.7348186908468768 -0.24197474603873168
Ni 4.386177659417415 9.15790370327818 10.265442315041952 -0.640928966920722 -0.2531176500294286 -0.3947345263736879
Ni 1.3371994221803858 8.775725366456719 1.4851183739078273 -0.7027668261631252 -0.5684927633371823 0.13035390183593035
Ni 2.468937963169157 3.675769753660647 5.764669967043521 1.1845951581325276 0.9645755762086484 -1.5045458066261057
Ni 4.895568292481237 0.15558137579405404 8.066054016814542 0.1828296031371432 0.5975413439637063 -0.642002659600875
Ni 1.6278356898044735 7.759819376416449 12.701667477998846 -2.985207350435446 0.5476478015673729 0.6237272583304548
Ni 8.080319307038947 4.055100820330649 11.215688388327202 0.7990533540017012 0.12681863498916224 0.816002323151214
Ni 8.554973244254978 3.566201197045354 6.522853198879363 -0.013996057168775895 -1.0951601059981462 0.6142864246325291
Ni 0.7481029619684821 5.384897340117243 5.947114636568185 0.039517341368331946 0.8966058930368945 -0.6102605913025877
Ni 3.2132423866962343 6.208897321949234 5.79145017649758 -3.045339539840652 0.23026799912476473 3.411832040649511
Ni 3.0789072474192416 -0.011081948841954022 12.929760889535363 -0.9925504641550196 3.082626192106252 0.5464972329026975
Ni 2.4721866517354103 5.203652258180981 3.6880186164991002 1.2703494189812121 -0.7792327197313483 -0.4670311190555699
Ni 6.086016610461878 8.549372057071782 1.7939062221302597 0.8930258889951201 -0.026921764091508475 -0.488601646137494
Ni 6.096677536733895 4.090901741743246 6.941041568101593 -0.2464412664505175 -0.9627295241388453 -2.050021283132508
P 0.9350155118029423 1.1081762135714581 3.103616884677912 0.7985941549770956 -0.3810935385514856 -0.4641859362972909
P 6.607888555632255 6.07867905525189 5.535443248633604 -1.8406895199397781 0.8789760957702732 0.847749533655824
P 7.520331283086917 1.625501861811475 1.0719906773056151 0.025631070304542956 1.2135115840565616 -0.07467023512038108
P 4.814715155491798 -0.18078578458724048 0.22243901307508032 1.3124908282359524 0.7748798420792913 0.4550209819685712
P 5.016759312501662 2.201117198004622 9.738645059275148 1.4781973985395638 -0.35980814681014806 -0.045684389410992295
P 1.9797209392768136 2.0166420981260496 6.835316359425169 -0.9367909498962125 -2.4723820558638967 -0.5837052094115625
P 5.173116452720589 9.170739757239671 3.671485778996699 -1.5891682678631922 0.08986134103852265 0.6888155061893557
P 9.359117017522538 6.0450999380886286 12.405696079582764 0.618277033849161 -1.9821775840156572 -1.191311908031071
Ni 6.57331056008799 7.5686695284779 3.910236382680444 0.38096678316563426 -1.5366732832882695 -0.23825718797782838
Ni 5.851429555917641 3.975358585465877 10.858615505992024 -1.0249353082436283 0.3144436026324197 0.4350190849253475
Ni 5.1838800674242975 5.2277093571328095 9.080763219860001 0.04053369844798826 -0.7878042634504433 -0.013510890002241246
Ni 8.406775166699575 9.075836975732381 4.192244021448818 1.6572672775239587 1.1499955657807872 -2.027346981463444
Ni 3.728075506639729 7.501473952903489 11.692082427694814 1.1697128417040565 -1.7382248883149483 0.18692099959769745
Ni 6.532272528659104 8.638514951092352 12.61755725066238 0.4890053093338159 -1.5090416376139302 0.8900259258265317
Ni 8.655383859825745 1.0519496295641384 6.275167768107222 0.47019871815027403 -0.6250408349355558 0.2103776879587409
Ni 6.9681195740075585 1.7171186135046237 7.865683681241255 -0.7528449737664389 0.04672080109530663 0.3809030198072343
Ni 8.52271974139174 2.1587908935236015 4.204021451032686 1.0204507901097135 1.5752871390057257 -0.5738113473366183
Ni 8.36780957452847 7.402351610384857 5.649571171616019 -0.18232283870405375 -0.9829584495912104 1.8586728438910762
Ni 7.885444669623572 6.061996852757937 9.729832524773586 0.4024637766971456 0.7405952098648084 0.10849361142772927
Ni 1.2950038120669731 4.824470556502531 1.2905163276020357 -0.5841764926210261 -0.024479473198603 -0.5164070983855363
Ni 8.578824966343424 3.6918264902524767 13.543879719957 -1.0012276802140434 1.8524343191805324 0.44272802353383106
Ni 4.749582683863196 1.9426317448120816 1.3165273073496024 0.20618858957805783 0.2831242236938479 -0.20603535182964516
Ni 6.777119091060562 8.982614550380049 9.535828871965201 0.312906597162603 -1.2293976591591989 1.1159508174912522
Ni 3.5355813737772137 6.593129427404533 9.508584697506134 -0.22155735872464424 -0.7812623485668674 2.6872082665122945
Ni 0.8528162228271412 4.462932594451149 10.107140629339257 -0.9196833436816484 0.24133351291030694 -1.3422875998824109
Ni 1.6068312378674872 2.266109639953644 10.157380477778938 1.4780001949270933 0.5649248434802658 -0.534187562297409
Ni 6.515216913686271 1.511601720441177 3.1784506125078105 -0.35686191969763054 0.27716466367630327 -0.5958212759488061
Ni 7.112247455543173 6.241076142316697 12.225151146044402 -0.5128713173181361 -0.36297420324295554 -0.7303822738875486
Ni 8.3944338842726 3.7780941081856727 2.219623520457903 -0.421205576081023 -0.45559202398069276 -0.7124388020352505
Ni 6.20546192714354 4.289538509883333 2.6100075965027463 -0.29221950112689676 -1.2872490229500282 0.289866684624004
Ni 3.2951877551863973 1.9044596541585983 4.232058193478175 0.023695029624094675 0.22094595039289047 1.0107551600885045
Ni 0.8621842083910372 8.679739688760678 7.084177105974584 -1.1561821542074733 -1.5075552828763907 0.9806100039636918
P 7.8701067520535855 9.00621421904525 7.79039905784311 1.5227512738905389 -0.7417537489492838 -1.1400765068948622
P 3.309022687528892 7.6755868564931475 7.917781256763362 -0.7157498686863544 2.5353288318997627 -3.3252935933366343
P 5.799926639768151 7.080479388902477 10.409165044037982 0.17032684268444215 0.24516651350315197 0.15302640373278162
P 6.8181384518655035 2.2068210736195106 5.643013114955694 -0.4524596489992982 0.52748315369404 0.01688623423237737
P 2.5507526372917115 6.7982915786130445 1.9926503463580252 0.22557676429668247 -0.14322561559227592 -1.143880454021985
P 8.339411555509665 8.007503873657393 2.2131877563844102 0.7203171763420627 0.2407529578164886 0.5564111495822998
P 1.0723099449750573 7.407663402896922 4.901171346726827 0.5613371261290074 0.3482548947549099 1.0971177439451492
P 2.7176493447270196 2.769114919628622 13.281354877274177 1.3776258701723887 -0.5610571329947435 2.0039841383677874
