# total energy = -381172.6298087717 ev
CRYSTAL
PRIMVEC
9.18590909442756 0.00000000000000 0.00000000000000
0.00000000000000 9.18590909442756 0.00000000000000
0.00000000000000 0.00000000000000 13.44450648561403
PRIMCOORD
 96 1
Ni 7.216505101400093 1.8199949328738567 7.709254704889367 -0.33686542197104563 1.4961514119148234 0.4073786975002597
Ni 8.091940585820568 5.306221870522325 7.060960106985581 1.2283856729549167 1.3137488690127697 -1.0121445842368633
Ni 5.786396883398354 5.052249862870258 8.287785080913986 0.7969846443981307 0.271507465390526 -0.3467101759756093
Ni 6.241678083313698 7.995598773890054 4.329023050773032 -0.7358620660551972 -0.0043850164415730935 -0.7806216296590749
Ni 6.561834564169366 4.431934624707047 4.097186327656527 -2.8559029729099525 -0.6178196345967683 -0.5309029780088663
Ni 4.988527213236201 2.827707504613117 7.994883191591295 -0.6532844031622813 -0.12028777584917992 0.7787264695188911
Ni 1.8228333787059057 3.2360211526214493 10.584859375384262 -0.9078367287557073 -0.9268248398224361 0.7064604729646284
Ni 7.162510329229272 4.6518820260098925 1.7644835671532908 0.8927155568435529 0.14800169682468062 0.24487315063244922
Ni 7.7381177490605015 6.30143242032819 3.832921509147466 0.9406568606095218 0.24763271565545739 -1.8489203924900028
Ni 2.518748646635338 3.624548352985014 8.565575231601393 0.20229799627439995 -0.02621136828804518 -2.5210106155048777
Ni 3.2775506464942428 8.990184681894693 9.912553730359464 -0.08059688501746119 1.085744469111201 -1.252121840229592
Ni 0.1793511957683575 1.0035605409428647 1.4264889699181549 -0.7803845739476044 -0.15090987161041106 1.0841598982329006
Ni 8.012555961611614 7.682340910574414 5.6627986427530965 2.1322845001087987 0.31371700887904036 1.6725997941159712
Ni 5.902626187970895 0.4892663068565449 8.966275598361822 -0.917471166521678 -0.5945310963824729 1.0126508344493206
Ni 2.5976647894933715 1.3172042124298502 11.88082944093591 0.05859801214886682 -1.1772263764722821 -2.2104054127819412
Ni 6.931503093681162 3.7039237912851264 13.13419342409853 0.34243931651439735 1.5512923187530252 -1.4103354445902678
Ni 2.6532946534379938 6.769215642176928 1.6952585581231265 -0.853266349708995 0.22963962151214645 1.2936526124835268
Ni 2.614768951756398 4.684648162847818 12.11847441421295 0.6373011403601476 0.07779592523355634 1.4390585235565732
Ni 6.443069948756548 2.0227738705517857 1.0662139507877608 -0.3760130387047847 -1.2179973877420571 2.001388866836786
Ni 5.775236004155833 1.2201734573362166 3.893233430828643 0.6688233793381448 -0.09980611095606037 -1.4529653634456523
Ni 4.86469197614283 7.17277098940532 8.815159130599836 -0.43954242671699784 1.4414478497243564 1.6768341439122927
Ni 0.579246876914264 4.590492597221599 3.0392920545065865 -0.457701871234844 0.6638143561593277 -0.3736946749842532
Ni 6.1312175294936715 0.16013611165353567 6.179861509764271 0.31358742527971156 -0.3226513352541927 0.3549063386331565
Ni 0.807743603575971 5.404327376950423 8.82988138670024 1.6870650776116813 -1.193896895149428 0.7410788343694463
P 0.2539894608788661 9.291546793260483 12.820170374576389 0.2065799114792055 -1.5346837636620665 0.4485687985853243
Ni 8.011288306191476 6.274379918789731 9.112081692222489 -0.3108312026908131 0.029521920718516895 1.798198697765419
P 3.517449841801006 5.694400006349908 8.230619333011052 -1.3153822908511348 -0.4740844263579254 0.9099110947862329
Ni 6.302828678472111 6.174676064223196 5.867504784105989 -1.245431829803926 -1.1302075845205826 -0.1194591093002975
P 6.498369119982873 7.657226635801528 10.113791272533776 0.0889768815510403 -1.0105929234790272 -0.30123790257542316
P 0.914755767216868 5.41289782989962 11.106829354898608 -0.3394743203488024 0.4011923661838897 -1.3345976874373209
P 4.174334183062555 7.441385335750869 0.5755311767878442 1.5673565713047395 0.7061146595894355 -1.7176969435649256
Ni 3.1656754627126125 2.20427824335261 3.907188663540775 0.9745447716062183 0.14427102613765475 -0.6260080839448315
Ni 6.886189005365636 5.334496097936714 10.984295761088088 -0.8219654827131844 -1.0057024281559455 0.28592595480870114
Ni 2.6165510180716645 7.868824045967377 7.93997534008162 1.8968182446125461 -2.361659812215965 0.8808347462455669
Ni 5.694840929974305 6.5364263403135485 1.9928526096820998 -1.554293310362878 -0.07876780222852241 1.3355693073219708
Ni 8.503313141473148 3.9798225633420503 5.043638991922157 1.4070215497256864 -0.02389094768498466 0.12494018701952675
Ni 1.8810536689438544 6.013242902241229 6.612129252258797 -0.4354543726905533 -0.24051487366375351 -0.5913478135584849
Ni 1.7736244650415494 2.7968979663584497 1.8870704392350905 0.801136204672659 -0.7757208499233479 0.6895187029039673
Ni 0.3562662885119274 7.673109072188624 2.5622273903643156 -0.08840275421512517 -0.8897644446350288 -0.5243487218301164
Ni 6.936840106718121 7.702788743655776 7.859362559860547 -0.4638779181385688 0.592981749617482 -1.663746200380083
Ni 5.154342053735603 3.3398586661666956 2.5067950234597873 -0.5996797304629479 0.06797096872333455 0.4076818305629753
Ni 7.282570157788753 0.21780065440656848 10.911224612025954 -0.4806271125724496 1.8104425481297788 1.6763574613861905
Ni 7.33148512237018 8.614738215721541 0.11759249344463146 1.0317037373157134 0.5284113219352641 0.21397080462663795
Ni 0.5291074306842556 3.5148777873253625 6.984622448739379 1.1630621691567582 1.9615928178857698 0.2713280023898682
Ni 3.0435028751195676 4.566976670587148 2.915562455364894 0.9497498240497257 0.9195013095778294 -0.1109209899222993
Ni 9.207128291006342 1.422134849127245 6.658996677759434 1.4302627796418141 -2.5699572206069097 -1.0621648820190481
Ni 4.971386307337808 2.292968193218087 5.663565666141369 -1.2109942169513466 -0.04022490895831782 0.1615930623558701
Ni 0.8597578938005466 2.0663793798227768 4.3051865359200105 0.3143548995733554 0.48494605166277777 0.25444922435665857
Ni 2.6127021222670415 7.03175810277819 4.331994692283284 0.33331549983625824 -1.1016290015519412 -0.30333926518914206
Ni 0.28679785289746135 0.9144838643151572 10.882749213207932 1.4112975513932209 0.6884270125016853 0.49232100397061024
Ni 8.85513345010575 5.1544247269151775 12.777067334519032 -1.1575718354661484 0.1516578055200291 0.4087794345025283
Ni 0.6619779277142067 7.938076612724065 10.078727739894571 2.3173784738000864 -0.3223304615796642 -0.75617018148493
Ni 4.7736045040696995 0.5937238692485978 0.1170137811876118 -0.5936026710309324 -0.6807494413517696 1.3710312476740065
Ni 8.731206353923962 3.1120205691689304 11.334202644908988 -0.3621349951711118 1.696639608673994 -1.3885972815822278
Ni 1.6062296482213956 8.763614240317064 5.587227089304284 0.12280437162344655 0.029124942390414355 1.8578048394638262
Ni 7.834432003264492 1.6440664067398727 12.800258998571374 0.036961150605381514 -1.046820538352494 -0.43741766706451124
P 7.443534838419799 1.7466913803180302 5.483315169897421 -0.08874856759031811 0.5157689505809052 -1.3974753007981482
Ni 2.1424111473045535 -0.03450502938163554 3.214568381112818 -0.15157244489507443 0.9508425428932723 -0.869294092595819
P 0.451020775394617 5.971483760647397 4.798102404359316 0.8830497516190148 0.5699896595976829 0.6465360286948543
Ni 2.1445882077000085 0.09026717041357665 0.4393776359379114 0.8392324973237483 -0.5522271934079392 0.8459723871507431
P 8.986592991537634 3.4166896077176894 1.2191281009100445 -0.3558928709161419 0.08521252941260163 -0.6084795881427649
P 7.7292809047549 6.89225170520108 1.5043055594878507 1.338780358060101 0.5425793859055301 0.6306406976208364
P 4.171119114968001 1.4238801718071454 2.003554193482543 -0.29939853537383926 0.2180822556918502 1.0668682010319885
Ni 4.546767671135668 4.6470686097769045 0.5736646001112345 0.49765835702312355 1.3399676934999827 0.09973232029533147
Ni 4.2076606603398155 0.634908891539832 7.400286661002745 -1.1273955689930844 -0.3918250660363768 0.2630966156190114
Ni 1.3597349703663761 7.088012608524041 12.553525487086475 0.1347764563836582 0.40668038588165445 0.2577582341252335
Ni 4.48873109907455 8.38999577000339 2.9813997012142828 -1.26704555141896 0.41878745355783353 -1.9130624743855502
Ni 6.525531852427433 2.875336441956721 10.207244116133614 -0.20210207821350998 -0.020847789983286676 -0.029110544212711153
Ni 8.33148153068251 0.2235133711151485 8.97876567861372 0.5210595095558833 -1.2482597861710245 -1.8074502982706744
Ni 5.654321886074085 8.228525864386055 12.042096337967845 0.9133106073860852 -1.689652892943516 -0.28721304905124084
Ni 6.551243211275022 6.3629412659314255 -0.2211957663144173 0.18695056728405224 -1.0524489402828647 -0.4063014052756809
Ni 1.924971499115459 4.153004502732401 4.934577452018704 0.07097196033318744 0.09879078231766857 0.6274892964760482
Ni 3.314321839587097 2.776119440558791 0.0024471261153975214 0.9366536529873999 -0.450089863215541 0.8147455679259774
Ni 3.80495960263369 4.560537348489199 6.539676314861701 1.236304156471045 -0.8510634285204053 -1.361756764350616
Ni 0.30736050983934327 2.1585783468657382 8.873306852157937 0.5664556783024953 1.0930435738757758 0.4516021860950093
Ni 2.6842511662341257 2.302833859313947 6.380224553416863 -0.6692756363842151 -0.596740959549598 0.11542247733707864
Ni 1.4900462731930626 5.023249948657382 0.7923489389483632 0.5346922698479695 -0.8688390073362715 0.09383061009891583
Ni 8.305108786398327 7.207089544837471 11.37707695583619 -0.8982938222622788 -0.3519925074204712 1.9970915250130121
Ni 7.425530457090298 9.280523702650584 2.4210730407410255 -0.48835687711653963 -0.8320871445282187 0.6069268989436644
Ni 3.7956726487948504 0.1222120870010632 4.975220505688285 0.6041238822772305 0.04785851424417564 1.0388244075208948
Ni 0.9894326131445113 2.309989682301539 13.041130981624462 -0.66031559897745 1.349667951506882 0.28682172715009313
Ni 4.895207565314567 1.1618429361921692 11.397499068372795 0.6757419608348492 1.6334334083291546 -1.6741889929799618
Ni 4.175418120305862 4.301807040057192 10.053532629123879 0.7913852959334822 -0.6882177247043567 0.665532367291699
Ni 3.511662719230809 8.300019792900091 12.000162664106021 -1.6893564447490195 -0.8768626489716963 1.6315107373851452
Ni 0.4856204196373208 7.550578234150758 7.758461781371954 -2.9123019205249716 0.7651150493830436 -0.8855426932441975
Ni 9.081703891683377 0.04077441216601545 4.270270896413156 -1.7224987358289434 0.5236218709664208 -0.8021751874601345
Ni 2.905062042968081 6.426085203308463 10.478930230395786 -2.1267561140914015 0.8393186292796513 -2.2829604013315326
Ni 4.537195954122739 5.94787597492453 11.762625165962428 2.413622578436501 0.037190750117684336 1.9256593372139543
P 5.115972512504314 3.5302549987261713 12.158915377888015 -1.2613541574611373 0.1177503541393069 -1.2396874711209813
Ni 4.4188447046077926 7.345952928795671 6.5631371260431015 -0.26395433563361637 0.1284821387345142 -1.5604701285975513
P 1.9764860758990526 0.5116101115228096 7.75327174287646 -1.975984310720752 2.979269644794772 -0.8345016675069821
Ni 6.55878484243396 3.6894651707684756 6.3343115438448665 -0.03274634119308554 0.41515731300441405 0.5799822520340205
P 7.765804078309031 4.00792225848845 8.690192189537182 0.15735048502943222 -1.0409113719569105 0.6483579123949416
P 3.7534725835766207 1.9764952618078941 9.578578886833405 0.1632848482359962 -0.14880516656258244 0.613130713761531
P 4.761791425299425 6.009026570082943 4.0826661615506366 0.026003108931981024 0.23190939138292962 0.25810918970674906
Ni 8.049373084248677 2.6620304527463388 3.1157371878862343 -0.8780695247956041 -0.961089417432261 -0.5316388277336264
