# total energy = -340888.95389985765 ev
CRYSTAL
PRIMVEC
9.09303984739334 0.00000000000000 0.00000000000000
0.00000000000000 9.09303984739334 0.00000000000000
0.00000000000000 0.00000000000000 13.30858295521575
PRIMCOORD
 96 1
Ni 6.640856127069725 2.027347788125196 11.604752025570852 0.2761066547254341 0.45945227826704743 1.6213908753423238
Ni 4.825048817527498 0.6438099524961616 6.259399469025235 -0.3692392103160609 0.43060655767994876 -0.15800457367366336
Ni 2.864371197428881 1.7561660613035015 4.81979667772224 0.4682536786087613 0.5322826319652123 1.4087061365169609
Ni 3.5120229592528154 5.011392482744176 4.9246012361838805 -0.8784240799215453 -0.2818718393439856 0.8012452194466975
Ni 3.932385097509869 2.6645425541457253 2.694295889770353 -0.2773055601295418 1.303338215202407 -0.17327564090012093
Ni 5.604840634147156 4.660464796621731 2.975719107351504 -0.9457049645563905 -0.23441416008265434 -1.0353133090438429
Ni 5.3744139118392535 2.976224680365999 0.8970029186240507 -0.5181659900581721 0.19838092060818094 -1.5672236452713009
Ni 5.8857246344664444 8.22441810633824 12.626611474087559 -0.7569507684046964 0.2695973928520067 -0.18127408572456521
Ni 2.4608039037360787 5.489168074481838 11.687345015642077 0.015772946563540575 -0.7108496031712597 -0.5901172835854933
Ni 0.9930236006108303 7.6284875550619295 11.271864021165257 1.0367780665148272 -0.547394033685354 1.07877189444811
Ni 0.3799072040576198 0.14348907780635822 4.950247245717726 1.6021536243792665 1.5468080577294263 0.2762889459395694
Ni 8.95021545245301 2.4859279727837382 1.6971767840205192 0.1893290948185578 0.9425854450908023 -0.3708878016630774
Ni 1.7409170335101882 1.3575999395166753 2.842074154464073 -1.6284719505588212 0.788527514769713 -0.8923640870414051
Ni 1.7994762100092563 6.616368570810098 0.5665627605404341 0.814420580486391 0.6017726084362346 -1.3076216730691095
Ni 8.12911395588999 4.113891265537494 3.735386208221513 -0.7610478212922055 -0.07008004464653737 0.4050623906622573
Ni 7.826033845347995 4.169968042163232 12.64340631865181 0.04976035925257882 -0.3524717610497349 0.27612799488167283
Ni 8.02290725068671 0.2933796556523662 7.250223463301419 0.7117227498048323 -1.0088803116632947 -0.46856015410558655
Ni 7.19766842100147 0.8464401613506471 0.7840046219724557 -0.9192621969838297 0.12910845946460345 -1.4624887295550555
Ni 1.9157852824626078 6.626043565188205 9.369389130404409 0.7984704849150377 0.04276490177135216 -0.27002496730772846
Ni 9.088656983850266 5.37578696085344 1.3426764425492421 -0.33322782521845834 -1.8643380125966538 0.8977019543145508
Ni 6.5626468915000835 2.202297874436077 7.17333908363487 -0.7477835000831314 1.1946576845748522 -0.009554733567970642
Ni 4.0365731478711 5.088819716888518 1.0816552784325257 -1.1951901600395545 -1.7884549881150942 -0.4078098715004073
Ni 6.216365748730284 5.895536024441987 4.826663741401137 -0.08567198554752342 -0.31316704991284133 1.7736276932942745
Ni 5.463307469208026 3.1079737344490734 9.65255548372079 -0.7202788669049596 0.8661318928177535 -0.11444751501831903
P 0.30331471096958385 5.892153413625581 12.485327458439745 0.04321433060394493 -0.3543242408774414 -0.00709418784262004
P 4.15212749801864 6.497986285275725 12.680590486424736 -0.2625636259336768 0.8676614420884023 0.7217299975291893
P 2.4486101373253257 8.831942283396586 1.5663270315765376 -1.3483368914002845 0.990089918429669 -1.5511413949974577
P 6.488756849849241 8.222908661726617 6.1408325947823315 -0.4160883094591157 -0.02353176457335302 0.5878094613879231
P 4.820584134971435 1.2589040852121898 12.998373133066318 1.4512396390037974 -1.0670656617547751 -0.8783700867551582
P 4.141106733745834 6.474553521636268 8.506406910996757 -2.0566267042641675 0.9940890122867331 -0.18110413580560422
P 4.953024260081518 1.3813873317094647 3.959423251441543 0.5806641085923935 -1.4086354311800258 1.3055131113665388
P 0.18560531038255923 5.938918917466375 3.7578251026076543 0.21547027199029986 -0.6209394111726725 0.6200793771652224
Ni 0.818410866077607 7.549341736389897 2.499325657667857 -0.4444846012136216 1.2834497038085961 0.171544260031311
Ni 1.449821549462879 6.988173876380037 5.12874179895397 0.7556605888383631 0.2279810028628009 0.16266186994001666
Ni 5.9742999354412 5.97333607321932 9.379370560224755 0.22123057151284478 0.004817990213933638 1.2763632292754599
Ni 8.835561313248547 2.7367958486273394 10.704279202948038 -0.12537084679904215 0.5235753339992016 -0.6861328171508699
Ni 2.317979527141224 5.802414203552709 7.131443811926515 0.16370085272749227 -0.6659897665440918 -0.34591339110592684
Ni 0.57373625966157 0.5398628676904008 9.533243889515886 0.25302560453625456 1.1502423916842706 -0.9197041696172548
Ni 1.651759777986374 1.6299910406356333 11.664626964933182 -0.12819237540823727 -0.2294071937863662 -0.16982342068546238
Ni 3.826314787904026 7.304493452913125 1.5314988704233186 2.311925678215631 0.3495659002568496 0.4678698129067813
Ni 5.888707151530372 8.231665259081991 8.349060040490931 -1.1205926871386378 0.631719532507312 -0.165025999296819
Ni 7.133744351003264 1.095729485479926 4.918892625779203 -1.809067007938491 -0.30310040970545865 0.7606361876760835
Ni 1.0066176951552568 8.15708414640414 7.582498596822537 -0.284126182595801 -0.42269167370824623 -0.923491404573829
Ni 4.92397199782771 5.149597595105875 7.0321623658570385 0.7342463848286451 -0.5255085464661724 -0.1934857972994087
Ni 8.461410003402714 7.6329522376179915 9.477294415447753 -0.4461853859548122 -0.7513421639686674 -0.9811918446090909
Ni 4.872478113275812 0.76262870394233 10.655982431200032 -0.03854803547652716 -1.248065153661715 -0.27422152188757937
Ni 7.9846073669267605 7.6481103350130155 4.714565655692618 0.9385022761603644 -1.6173069350809375 0.4581736686649399
Ni 7.090370551018705 6.359035543648044 7.155013880467391 0.9060246152476331 0.638901652078048 -0.37419038367374907
Ni 2.3741199550457655 5.853789878586828 2.9035867502996155 0.45951244208102154 -0.6636829727877861 0.055892954512877936
Ni 3.3754182219010294 4.348318925370177 9.018387790659348 1.0843717571333906 2.246502672725131 1.3030008864676463
Ni 1.4529404621242423 3.7768031860348605 3.8862661088009216 -0.7283073936363907 -0.28010086348649177 0.24536474555688711
Ni 0.7179536899582349 -0.006025048190727115 0.09356101471302221 0.6146114120721158 0.15571320653632537 1.2821865208254564
Ni 1.2405634238770002 3.650200792495027 8.51493800096437 -1.8587646322739344 0.10150715280756713 -0.7366498520638152
Ni 5.149934037579549 3.359359913562931 4.97249882348339 0.9719564420537519 -1.0036015797628588 0.5871129495415308
Ni 4.210950372672751 7.361124904968435 6.17945437215223 -0.29394034047274537 0.11364378817010105 -0.2446342951487658
Ni 8.1445812166392 7.350304187571868 0.5132366284629829 0.603292901735503 1.7558505718165116 -0.16569962832507593
P 0.17652681941723786 6.152932702882846 8.027484686936653 0.28290902235924825 -0.8093166836009222 0.2004257189523516
P 8.635896344682314 2.1946324418601897 8.134046020693264 0.6578434832878736 0.14976753047585176 0.7037667281825494
P 1.9119116474954334 3.5529325454437015 10.63225323446215 -0.0031532009170010212 1.0347751771521856 0.63850570219121
P 4.3841091301373085 6.595263625366878 3.879478154568537 -0.8231733869783565 0.04353366161657664 -1.0382497659643473
P 6.9765529714785135 4.205767339970193 10.572511053481321 0.924799067641659 0.6104107437272067 0.8383051004134725
P 6.6244522832181225 8.192765234693324 10.413580175437273 -1.0608520767448955 0.15513110878061023 0.8789241594864153
P 2.3771115651495225 8.915961971416987 5.908212631267663 0.6485198918941024 -0.021227027699576344 0.5309312601436404
P 7.132307650710275 4.0201965831389845 1.453736103109284 0.874658442231526 1.0731144390520162 0.7657915066247779
Ni 2.8282081780287576 1.8260551654295634 0.3841572908737168 -0.5624437289296248 0.08891517507516945 2.4382807433048135
Ni 1.717529735069877 1.6427212963963005 7.089349402645904 -0.30168810273896435 -0.6869391151022493 0.6141385862007552
Ni 7.141882621650262 1.2185491744508754 9.358754820324336 -0.5674674073964613 -0.7607904538657608 0.8745085469172229
Ni 3.040057819965915 2.0771867394282073 9.476802481993001 -1.4786159741342213 -0.8732065402763477 0.7170837570064296
Ni 6.629362524725808 2.3777117057782395 2.803666063530158 0.2921644795192452 -1.156849355477827 0.6207938867337437
Ni 3.9591368206869277 7.451455162630197 10.690705113091234 0.5792975672621701 -0.5289983047869857 -0.9535707404577126
Ni 7.389722515230791 6.359644777316591 11.613083068662226 -0.37248728493971334 0.863561560987416 -0.40410979694100085
Ni 7.603072508739741 4.479567862262654 8.488400873527278 0.857682990719452 -1.7067232181622412 -1.015662624692451
Ni 3.1469555961962015 8.888573735451896 12.474480371227674 0.3311989677138877 -1.0128668071148685 0.6343479712690946
Ni 0.0070743849869992406 5.218377348372793 10.283515152330539 0.6261813762979023 0.00545562379793254 0.20322282208151451
Ni 8.98011336741092 2.5959628477550463 5.909995776378139 -1.0647328998565404 -0.3976172472381217 -0.23179626284383303
Ni 4.098569493425548 2.855578227914192 11.918821074746251 -1.0100694468753895 1.187087328426762 -1.4714012015533369
Ni 1.149696676865325 3.7035405641322217 13.129316543820538 0.5238702395318011 -0.1617992648294052 -0.19312764262904158
Ni 3.133834339722885 9.027369895402483 8.258348784460331 1.1646102303701684 -0.8737004491936308 -0.09914919409835182
Ni 5.889470966876012 8.230801420298231 4.0098496131175105 -2.0663632148256412 0.9530367223311135 -1.0204852428920748
Ni 3.114147908492997 8.774583388154952 3.6039645035722843 1.6561244221687672 -1.8630133802479591 1.3311783773431267
Ni 3.66716840481603 3.2173630035925194 7.042103786302137 0.11882533237104051 -1.4456246068098653 -0.3129202240093578
Ni 5.35468201541022 4.868740873906074 12.043136568769079 0.38646200195225056 -0.7161702440532246 -0.7245690096398811
Ni 8.141698723013391 -0.06892887912011444 2.640622403571432 -0.20971794288755494 0.43664530767486087 0.9241897161924341
Ni 4.8169014538406705 0.4840052333245427 1.7211987766408978 0.16579450203172738 0.04724093526483477 0.6436587071470592
Ni 6.3152798359906654 5.956086576663617 0.657214002508161 -1.2358156468704007 -0.4327991944558934 -0.4293793701410669
Ni 8.368079042597367 -0.050448184971557564 11.525472539213332 -1.8001900171638352 1.2288790676515675 0.39071512080164966
Ni 0.0883952587861401 4.892691940815785 6.188330997633346 -0.959681738451457 1.5087778424295821 -0.18874519729062977
Ni 7.338746933949149 6.282972265478059 2.7646314621520207 0.6500075321832225 0.6789694666332113 0.03700820179323303
P 8.695583058120183 1.9235143663172984 3.8277614905408277 0.9429590263801374 -0.26206020393469703 -1.3501191801116876
P 2.1873034517579772 3.5798661294173417 1.9000797840698762 -0.45832330686892675 0.381638098201046 -1.989339648981735
P 4.748903701999051 1.4864210347747966 8.510413304345436 1.9436182356852205 -0.9787883773739208 -2.708912490958606
P 8.68396215321866 1.8547346130503803 12.815101096703891 0.21849800307303016 0.2692356386372137 -0.6270658357853846
P 6.247545782304089 7.892385756980557 1.7428383928260662 0.7489014157376587 0.5439585256412439 -0.8365377241004045
P 1.8431955455073186 3.649700675304429 6.020390735726678 1.2473974381707293 0.029592111834820002 0.6486034527468443
P 6.822289550778717 4.152373010094024 6.207376369555287 0.8685929527637365 0.8900837756476606 -0.13153018153221863
P 2.45420235682019 9.100677982504266 10.35528833430918 0.49036028069981347 -0.4754296275319103 0.3542720474832673
