# total energy = -381171.2953306696 ev
CRYSTAL
PRIMVEC
9.23827648187340 0.00000000000000 0.00000000000000
0.00000000000000 9.23827648187340 0.00000000000000
0.00000000000000 0.00000000000000 13.52115145051557
PRIMCOORD
 96 1
Ni 4.239444956495706 3.400840432795776 12.692561002666183 -1.4338458690073823 -0.4966419999434673 2.0187263296739686
Ni 6.893416948437494 4.077220826105503 13.080942754014096 1.8562606349051578 -0.8992124774218062 1.2859382745584047
Ni 4.283419151293963 7.491660001494353 11.225273305770687 -1.1044371604246979 0.6870928670712941 0.7922281035497517
Ni 1.6989097582362256 6.861840520323957 11.160614610520058 0.32941462211995526 -0.529396825776985 0.1579202414899732
Ni 8.679268124162457 1.318052582867971 8.264411320828652 2.0369364249240918 -0.342124613487456 1.7188523973256076
Ni 3.205016691800267 6.129060450702602 5.553217445991821 -0.8390265519605291 -0.27303212956516854 0.2080881205936158
Ni 4.972945611662074 3.4179220055230823 9.691988287400555 -0.7466447584929979 -0.11539779474673029 -1.4038642350436272
Ni 3.5476089270730644 5.097616149225616 11.021158211869412 -0.3872960678177717 0.11905621743492399 0.11082920153944137
Ni 4.088694765168408 0.608747896944484 3.5433796442204084 -1.1499279457676452 1.4014224583713542 3.325002801569093
Ni 5.871210923178628 8.901300854788776 12.234667689570262 -0.8066231959291593 1.6751287311854117 2.0441591679247764
Ni 1.8182867635267845 4.758155689590761 6.969112612285913 -0.2734388780852839 1.8995808949593478 -0.9198545791521899
Ni 4.0524068161836295 8.039499019505143 8.747237817609658 0.788281717307494 -0.24394523950154115 0.5686711978965754
Ni 4.600615365243145 8.113044936477603 6.30141065565549 -0.3484407855134709 -1.5946215776682795 -0.2794370046502478
Ni 0.7980882156901167 1.3808359080463208 4.147667301406784 -2.233673382170947 -0.3292228178241234 0.052119603513374746
Ni 0.3064890518123808 6.478812350044444 1.9038729258943223 0.8134420186232054 0.4634809398104663 -0.44334200296874615
Ni 2.074944553418621 4.674309094635095 2.0100678348492447 -0.33648052782780113 -1.8591086458769142 -0.7929660101570407
Ni 4.295955492121952 5.519833087222398 7.551454744316141 0.3003241325119021 0.32788764395246756 0.7825340161904395
Ni 1.548944820387468 7.993335353243194 13.177862433646027 -0.4480162685159639 -0.9430729262501824 0.2694996909318778
Ni 8.648282945726878 4.569473136111859 3.1225336664143954 -0.9456823388485713 0.9901233427707659 0.06610691893140228
Ni 2.107038325000373 2.854451824151231 0.38325727952972233 -0.10218283871835306 0.45725861304983834 -0.5739237045447665
Ni 1.1524472433819348 2.6951377507697347 6.475616830300597 0.009947598131015128 -1.537077974925856 0.39030374429584397
Ni 7.534479411765343 3.5636280980352857 10.935960980930659 1.808919426617033 1.0874074586359208 -0.896828807680978
Ni 7.583137412606186 6.02007650615743 0.8840300516920523 -0.5003086501617771 -0.6032993294934061 -0.32928169608651675
Ni 6.646302297878977 8.090965456316296 10.282808385516153 0.36161511811189984 0.13245269334648802 -1.4973433753403953
P 1.6085317019943481 4.423120364264387 10.358945638967796 -1.0668360622424722 -1.7397883761473263 1.3234316435181726
Ni 5.390063021186453 0.9050674542959573 5.810904379854358 0.8094868906301995 1.6711453210576317 0.09418696499707005
P 9.061474087858556 7.541999368606893 12.026036002425949 -2.00492104835976 -1.8556248010933718 -0.7037991240823814
Ni 7.983930788053145 8.549313292602148 0.10572098538493259 0.43619639306290037 -0.25146725891019917 0.2751615172033454
P 1.5819716578672505 1.0108706603392312 8.310437336774951 0.4134333883347719 -0.020455182530558322 -1.6082921331768365
P 5.258020339200851 2.1419959622097426 7.971353798809797 -0.7836431900942182 -2.4097461262002304 -0.20615670789885784
P 5.705965876465099 8.649668687159597 4.185607978006985 2.5692637940843106 -0.2795730160074798 0.6300732551531406
Ni 1.3042875513029708 3.7895963343305246 4.333650430574751 0.4695780538471397 0.7472381691026228 0.06942184223724818
Ni 6.732587797756226 6.835104948948715 12.202122166281443 1.2741235413116636 -1.2553935690023283 -0.18914448961157748
Ni 0.23912169397459915 2.5018452974579906 12.411416237830597 -0.7542110008760301 0.9620677221851301 -0.14017628724299086
Ni 7.197236138422838 5.330975006495351 8.212936569568903 -0.6205429470652023 1.0487308680013294 -0.5259212085235587
Ni 5.110503544549895 0.6008316180531762 10.081045356740013 -0.3480468925091619 0.9518427020230124 -0.7826245190217167
Ni 8.187893450396821 6.234376799589182 4.891830774984106 -0.11383045025961043 0.12298229196220756 -1.3289577155427243
Ni 6.761318836794583 0.26407797335023114 7.790603229291773 -2.464046796525324 -0.16752356890769213 0.8242303674879612
Ni 1.967799025840854 8.347420004131333 1.7362915191252302 -0.3050742456023778 -0.17274265121478635 2.059273912079028
Ni 7.652184289060422 1.7444175068866892 0.4815257474894967 -0.33876778120008105 0.2959244607823097 -0.05324626091865023
Ni 3.6561679109122034 3.6354002659738676 5.915909398832385 -0.4563065335492141 -1.0101910600549184 0.17686567224422442
Ni 0.16312209083860535 6.405257194795765 7.799716788780949 -0.8929351290535267 0.1243730016621471 -0.8608459618284657
Ni 5.668523142953055 6.389718414196885 5.0701341251319505 0.7792471179090515 -0.016748680213248573 1.984873128569949
Ni 8.551530478894497 8.293440756188852 9.033291802427556 -0.58283669076368 0.04946982459535351 -0.08682281132251499
Ni 7.76492821202637 7.837790496558691 6.577796784411122 0.7107660423185178 -0.45484948938771347 -0.06316403425299444
Ni 0.49273362419732103 0.3775295482744873 6.232101412156658 -1.2379648320029195 -0.6135696010711627 1.8040201895432026
Ni 1.5322327787088872 8.232348035558418 9.228875348241395 0.9293267803086834 1.1928851660554618 0.7981395839381803
Ni 5.283582649496391 2.6593301921482984 4.1200568652736855 -1.0461633643844692 0.8787570377809317 0.38561328079871005
Ni 0.7901728606264306 0.9214616992726347 0.5984019514078104 -0.03333872336144581 -0.7486371063326784 0.050015926906810636
Ni 2.2492615873783453 8.875960263122469 5.157277860869863 1.9644930222517005 -0.8695517171325798 -1.1655234862130572
Ni 3.148229007887477 2.187004843944428 10.804779306288584 0.3721234738423914 0.11419837512199042 0.7137636914942611
Ni 3.025378410738905 0.46930812719103177 12.773255497776226 0.4915041644962696 0.9393427697837886 0.04881110796543207
Ni 4.034373701005857 7.494413007807354 3.8589092731398424 -1.5817727467300695 -0.9410301847885406 -2.014466268846034
Ni 0.33443114206170943 5.007090280564249 12.213426121061936 0.1679981945512655 0.313430330876557 -0.5670076941512235
Ni 0.4653116488990726 0.28593943019279255 11.665873489613906 0.33953037039771844 0.27207876451296364 -0.893695404258319
Ni 5.920478650249867 7.671113517031353 1.028728248268859 0.4065942539257514 0.46161663290821786 0.8092426358298773
P 6.752062084024025 4.406066506365736 4.994266629345875 0.5202822650702266 -0.45971787322360824 -1.6543400765748348
Ni 0.5171180542750513 8.19168114364625 3.7542285176570704 -0.393728967927309 -0.5443611603963012 0.3572460425099267
P 3.0578232368169456 -0.007592015396051801 10.662062719960565 -0.12946584280402218 -0.23770980011479065 -0.3364617587747238
Ni 8.252478239437703 5.947639182331144 10.150828523808833 0.6529396182283529 0.8209221290503346 0.939671356767801
P 8.132787132755729 1.5547002664713574 10.503256751771065 -0.5297956038773004 -0.8320753174536767 0.24681587618111683
P 4.330220258614963 5.7479723184288956 1.8369028139339199 -0.8167325164490191 -0.21829437170265628 0.9131326870473242
P 2.69614472287751 2.140416216976444 4.469416137876256 1.8399755245918892 0.39300006018108447 1.2842398038100593
Ni 8.389777500591418 0.4270023650777686 2.3740300506697993 1.7942736516794002 1.0481891365652463 -0.34755298359187886
Ni 5.252763760032739 5.544739479906451 13.464686890700515 -0.6959865700164982 0.2789014438617519 0.007519705415812856
Ni 3.906867012643352 7.504131674388816 0.11716536196394083 -1.3551611134109693 -0.3165763327047064 -0.6353375888758735
Ni 7.197236138422838 2.9762677343633737 8.689246386305648 -0.40729050866182764 -0.49205129524899127 0.3458419144380431
Ni 4.193244337128883 4.817373040148917 3.934939362587356 -0.3476673976825561 0.12966818862281537 -1.694154123247979
Ni 2.3459863393820717 7.501489527390433 7.244227554233932 -0.6037215046324892 -0.04660510145304877 -1.3773772444966923
Ni 0.058617786431599275 4.0665321405211365 8.641394886978647 0.48363478905052193 0.37964806435421067 0.5065474319826373
Ni 6.16614289144214 0.9080800561706865 2.5772527270884025 0.07534000749389605 -0.18156770570558406 -1.0020676596168356
Ni 6.31108220702824 3.4628846958766766 2.009594835106877 1.3849769112208212 -0.07122161445014831 -0.6514411793059556
Ni 7.733397975293924 1.9708846100977064 6.445546241210613 -0.45849685633231363 1.2427398847940598 -2.160319551869144
Ni 4.081230237984167 3.2580998269495898 1.781303172342781 -0.3319826399574476 -0.21596546645916354 -0.4068279672031123
Ni 2.4481154829733986 3.2133126638441394 8.605860781333268 1.49071044340491 -0.1771225254500369 -0.5351751230216589
Ni 5.8759316823260885 2.090972962657061 11.81793182085369 1.0641734278086445 -1.423094286917833 0.029884960484890467
Ni 0.14555735626509195 2.678647427720389 2.187451976513385 0.16364428845794396 0.05427444507284846 -1.342775852372739
Ni 7.519531880844424 2.4507945830766538 3.854813021464728 1.6430709314189187 0.7314006878497339 0.603816892559773
Ni 6.000842415071302 3.7674706627881247 6.873774525542525 -0.5639457673964481 0.6760692622672808 -1.0440954261118471
Ni 2.8146440919273474 5.3892315763268215 13.499517039698075 -0.5088295431485946 -0.02943116077692351 -0.9594570240351605
Ni 3.310831907602624 0.5696681408865888 7.031188285505953 -0.47400935014561585 1.9031521572503742 1.0025150315668994
Ni 7.589225436633928 7.659778152111717 2.7936999959132454 -0.8158783959788402 -0.30057147263601786 0.6970232388111287
Ni 2.3300225980771585 1.5656199089611764 2.429561329016925 -0.19720027003651844 0.39127742106302293 -1.4704522073765063
Ni 6.40886936079705 5.637233101402279 3.0670023880672708 -0.19274351981674548 -0.5332524520776494 -1.058091483280623
Ni 0.9473020816823408 2.1007562971720506 9.978285238882988 -0.7393595376854945 0.6828495184139078 1.4086166621269482
Ni 1.8978467983172422 6.097733456046955 3.54392100720679 -0.2661701123380126 1.967655222029766 2.458523295603934
Ni 5.435792488466152 6.136866794106915 9.899767281649936 0.9874869335891833 -1.5792492089772672 -1.0460116692979533
Ni 7.777150451462945 0.27978950971438943 4.799941336752944 -0.7287092570604998 -0.9857077302015733 -0.6350136298775516
P 5.604372552894423 4.346220953024748 11.411364522770405 0.32345840453652036 2.076994469287242 0.3743284519135102
Ni 8.570136367197794 4.364235591650084 6.340635452650008 -0.049451312652592255 -0.5700500805219731 -0.1327707388075391
P 5.448199493427088 1.633188661220513 0.46631492569636057 -0.7348274541430958 0.14534009083211744 0.07062306163420096
Ni 1.9812961473955286 5.927314974651277 9.02616631998052 1.7636831804870527 -0.17891741256693058 -0.2017287540344913
P 9.175492892942605 4.485432537355613 0.7310876174181943 0.49194870823285597 -0.890492323939989 1.0210799390532803
P 6.011660436522722 7.246411482731896 7.658244598259509 -0.32055999994280276 -0.8422782261286076 1.3037051116235225
P 0.7992439240450036 6.8797258230822385 5.690214615513203 1.2855145567574247 0.5777675037708889 0.04399851706813712
Ni 3.9904456975886924 0.04891112960921959 1.5236578107232273 1.545057393586907 0.8125362189794845 -2.435095146487981
