# total energy = -340895.1590098175 ev
CRYSTAL
PRIMVEC
9.02535198956674 0.00000000000000 0.00000000000000
0.00000000000000 9.02535198956674 0.00000000000000
0.00000000000000 0.00000000000000 13.20951493329526
PRIMCOORD
 96 1
Ni 6.387051875592661 2.100063963565795 11.276183275385488 -0.0011878496605140833 -0.7842332582697332 1.781580372482448
Ni 4.674626768142004 0.3758887507187167 5.974703411555008 -0.4952507760228954 -0.6175149588721558 0.017370115847331377
Ni 2.665971566735327 1.6072075571691606 4.76876660172977 0.6945120423535006 -0.9572049947761901 0.5212070908773411
Ni 3.256572532194289 4.309036846264102 4.9277165834404055 0.30541285988871913 0.2800916075151112 -0.48504863867891296
Ni 5.219333820135413 4.318693972598053 3.144048959700331 -1.3144700634495103 0.37540805813093414 -1.3137941204284083
Ni 7.452575873592593 6.417864426344165 2.6584940628403 -0.8555016667974169 -0.7545033353054683 -0.8038212077039899
Ni 5.340219380992367 4.46582525623924 11.614333420447398 -0.6639336553460113 -0.38862635659342104 -0.0990445501996875
Ni 5.645980246358343 7.798598832954602 12.396627441100119 -1.5174306330085738 -0.12676232782993008 0.328978305913485
Ni 1.7593479110116024 6.342954007118189 0.5047689681239076 0.8436049153598311 0.5279397816154843 -0.8561601263170223
Ni 2.6933725345389488 1.7495102776433717 0.28814067121478615 -0.2476913368075347 -0.6204272474229444 0.4307657089656323
Ni 0.5564562548546593 9.126435653169445 4.750260118040268 -0.0301847511134964 0.5122470534705759 -0.29690507952802414
Ni 8.694482320138698 2.075749666048352 1.132298062655761 0.2607921358555509 1.2097665151918326 0.9114285598720238
Ni 6.869899166938501 0.5915639704868426 4.8701628180955705 -0.16427729405625258 0.6830660053000881 -1.6024724411712659
Ni 0.692087435341902 7.511024051292282 2.474802884476152 0.35114918558356945 -0.683989545555622 0.5481301405204303
Ni 7.637017961219344 3.87740842589506 3.7479226073898615 0.4560417099236017 -0.39922470093455764 -0.19029351561435615
Ni 7.773228569286624 3.719789683562236 12.677157935749682 -0.4246104879975139 0.6604194715451658 -0.36018198520979905
Ni 7.967084098751049 9.019674767744858 6.8058191697692925 -0.018571592354600274 -0.3531155652813209 0.6593185251715031
Ni 6.796405727931618 0.6796505006800472 0.331552612958996 -0.8679836013145116 0.006423901248472807 0.2461584451027761
Ni 1.8395201102868242 6.565212318426488 9.111830829025894 0.06549885303375816 -0.8634764574727773 -0.20234504746225151
Ni -0.025304378600465954 4.968790056555525 1.3321527434044635 -0.246630242532872 -1.1543623273899153 0.3188625576357218
Ni 6.5337048155930075 2.027093994958324 7.037765293607368 -0.202959798228115 -0.13368065221631817 -0.008396194483495217
Ni 3.303071144224677 4.334461262042364 0.5301825534801127 0.3883031689260474 0.10611071301784952 -0.20932482121419432
Ni 6.273594179196307 5.6118463661760964 4.731634499708142 -0.9956229324327562 1.60869836747632 0.25076174820274233
Ni 5.4897694588929 2.7482827743667606 9.283554391017315 -0.044381354328852596 0.03789883192830248 -0.7121652366588896
P 0.2633200514661891 5.559120261463066 12.233555581261712 0.31210646985881085 0.04044191006513035 0.9540615640512021
P 4.016326639476532 6.03148009411727 12.560332880628845 -0.3529085914768374 0.551823015990985 0.323103849410579
P 2.2429804079565567 8.453713012465043 1.3091074103380054 0.7887725409009835 -0.38371195001093916 0.2810051204683161
P 6.301933783578182 7.656864709638372 5.763786357210488 0.017337977057815302 0.5223550884388553 -0.11328949015447587
P 4.612261587798451 1.0036281359455057 12.748793054838657 1.042667692526385 0.47996428217747017 -0.7940283899832842
P 3.9282301813964415 6.000802923641475 8.234203823288821 0.027638330542558855 -0.06179389337834519 0.14769727821038436
P 4.691567353309131 1.0298377573228832 3.7491906693056745 0.37642518654153884 -0.11194017521543302 1.2088404038331375
P 0.21423748124009004 5.570582458139812 3.5933580440770463 0.5065242920541857 -0.05032368795521656 -0.03436125108868921
Ni 1.476565591109402 1.0800728649628566 2.5264125531821633 -0.23941161329724572 0.1099318865361526 -0.0908113636566178
Ni 1.851262092866703 6.585248599231507 4.934969356077754 0.14599957879298725 -0.006347025263950359 -0.6772216307041692
Ni 5.860711414337187 5.505654077909491 9.337409567229761 -0.09053059919140538 0.3609620579089332 -0.9685577007848479
Ni 8.623082762729458 2.293251617003386 10.156756266809024 0.23883722885101447 0.601137545955397 -0.1430844620287213
Ni 2.359750408431939 5.077401139081475 6.979049062961774 -0.7338455498458006 0.5738591698554182 0.6543298137076602
Ni 0.5967815263126903 9.266328604736024 9.14608294131559 0.7318717139488814 -0.3129269088775772 -0.01391146787476959
Ni 1.4780547741422077 0.9906677308842405 11.294703297102563 0.14602940358965819 0.4484096472996406 -0.1483541950680929
Ni 4.115767964661085 6.85865357870289 1.5941244073245853 -0.43765960787198815 -0.2564518566089842 -0.2716897566046611
Ni 5.624229148727668 7.839375371998332 7.995481465383894 -0.4704468296053382 -0.025291170466620962 -0.4771903189767588
Ni 5.048790774148181 2.889529528690437 4.991848927649554 1.0675351451920259 -1.4904589895157365 0.29081876412462815
Ni 0.7784799070183939 7.600916554363453 6.890689967146808 0.16404975142647873 -0.03857194673592713 0.3852582114521365
Ni 5.082139448731311 4.276960746272642 7.141816768447419 -0.3460242056521783 1.6396202538661566 0.7293222080541505
Ni 8.155443189021664 7.566963181215487 8.946684943363616 -0.4835843954285607 -1.9844522389824466 -0.23605375256860636
Ni 4.530419698456145 0.343833409036199 10.73826509295133 0.5638632349849708 -0.0981040406632891 -1.2857508411379468
Ni 8.272790812006741 7.175091435146495 4.810508853406896 -0.36746283514192846 0.9442435495195156 0.24810451308555337
Ni 6.906090827311531 5.984882203218027 7.041173266414565 1.0309825428789727 0.43325325127417647 0.5681518350579957
Ni 2.2417710108268842 5.1998480857849465 2.874020364305146 0.3608221898969592 0.43036898774784593 -1.457742987339954
Ni 2.401384355888496 5.208304840340938 11.135779488911897 -0.21567158936782857 0.1406730243737513 1.1100804747534043
Ni 1.146995847921966 3.2762297482273217 3.8314062082089397 -0.6709715360293993 0.3281316416424736 -0.11016174315877157
Ni 3.4962046455519844 2.5023329148092834 2.6910819002739426 0.2863964666872164 1.5972662143799783 -0.36343905869451604
Ni 1.0334208219533305 3.4267184627061065 8.19464119405062 0.4734341943684362 -0.2034735046397399 -0.10910321998727017
Ni 3.730421547881296 2.5727577342334143 7.14914806164468 -1.3816028525422657 -1.2729716870954078 -0.615945814612823
Ni 4.069946254009245 6.668354037813771 6.090048308994754 0.852732588692712 0.7116237623331227 -0.1396759505678046
Ni 0.6004665774175055 7.493975161904587 11.064276139957947 0.8145846168680809 -0.4200233828474637 0.48116524446410686
P 0.13494615629215212 5.827561297491765 7.887387535511154 -0.32594286152127094 -1.1453405835072792 0.6357607924562213
P 8.627432982255593 1.7355209824867137 7.927003414324467 -1.0231676748202443 -0.09635697606519535 0.46357632773775004
P 1.7844293634247332 3.198413165749447 10.284862109037157 0.7358679795924682 -0.6938240151475406 -0.8650013787577361
P 4.048565195798843 6.129820326392718 3.9210857129796604 -0.02864594587146679 0.2825634660943714 -1.0859136476992135
P 7.0682493215564834 4.025451270059358 10.331174798822238 -0.17356154757165593 -0.3353276451702806 0.9630935923464832
P 6.192952661631959 7.614535810099838 10.098673615853752 0.5665294689632243 -0.0927026671420597 0.6873240092454936
P 2.457774753397399 8.539363600230645 5.797378716289896 0.5370926517593461 -0.006113054876273343 -0.4986142931784896
P 6.697487873146475 3.977517627106448 1.6507530741187373 1.6949066851432875 0.4501780520539731 -0.6957027202274921
Ni 5.174125833400123 2.82240798799362 0.6341726559285089 -0.4652827689058955 0.15400445137533475 -1.2883597395157038
Ni 1.5918915353105485 1.1119955339751788 7.0145430636473165 -0.2524717889153136 0.41192543633067763 -0.026900166824953674
Ni 6.890928236432057 0.5411167670815908 9.253978313450624 -0.23014947126902943 1.1384898791340328 -0.4084724447850707
Ni 2.9151344515029782 1.4440472488839575 9.20783710534811 -0.13940392785334055 0.13549739371008276 0.11718702543666913
Ni 6.259884669942783 1.9787903125851407 2.5271517294875374 1.2452572518992746 -0.43832809469392253 1.138786070218213
Ni 4.15101196310415 6.798896725004674 10.408093358804571 -0.4510329438551007 0.5556912406971397 0.055574909051826875
Ni 8.228440233684278 7.144666974518692 0.17299974672377624 -0.6619647045450987 -0.13635717060721678 0.945601606209307
Ni 7.694717034726773 3.993826437653597 8.236396081220144 0.024358888460338693 -0.2734933854723032 -0.4745459393753762
Ni 3.0292600239261662 8.333901468462052 12.475105581858628 0.2732337040530133 -0.644568106335206 -0.06483679396972705
Ni 9.156490074376974 4.82620755017818 10.182858486501006 -0.0700011117794859 0.27624138053108555 -0.5372214640277265
Ni 8.66533945945428 2.4599137617536107 5.76500207208636 -0.20455362507779612 0.09459602751003064 -0.09109187101151407
Ni 3.6986071830895417 2.7374343016065645 11.38257231631946 0.054166201629758326 -0.5366074845928114 0.319428714551837
Ni 1.2710041804719543 3.2748939961736534 12.312575243123058 -1.1626608199532815 0.6976426175626823 1.286288973029604
Ni 3.1311562447769203 8.235443906614321 7.985864953132656 0.5435929147717089 0.46317472142395716 -0.5212256028201023
Ni 5.5793280239506515 7.995712514387771 3.3789544963654192 -0.13841636712909064 -0.22731945801940204 1.1678637043104596
Ni 3.053041825692485 8.28048943701876 3.431078610119127 -0.13392362146505968 -0.1781414536328545 0.9905059229211651
Ni 3.5681366987123484 3.97134428653409 9.225947376097366 -0.785866422997782 1.354242715361758 -0.2246750784180195
Ni 7.217826475512157 6.123276946400088 11.446692025036208 0.5829539330678347 -0.8794406941115177 -0.9349433551645124
Ni 0.5451763702825358 0.0048014871118336085 0.09098005795270428 0.22004760694833717 -0.2039422167460423 0.4623465690957069
Ni 4.316419583966132 0.4489643159412414 1.6572125183404276 0.3773487267970727 -0.9553699984499805 -0.6745839359710059
Ni 6.050252825682333 5.664698825813122 0.40451626382026745 0.10977144969888838 -0.21756880639054144 0.7704948256377183
Ni 7.600176475522907 8.615402188420868 11.4300348359129 0.8504023978976387 1.2596286901295985 -0.12860195214183012
Ni -0.07767939713182236 5.079350615051693 5.733814066703555 -0.012423313365017313 -1.2428111043516272 0.8684607980612463
Ni 7.9045925634835 8.94798639908077 2.485264169647818 -0.44485612562042737 0.23619002103615452 0.0869181992497987
P 8.567964939812226 1.791189351858499 3.444169882780245 -1.0991165195427328 -0.9219101761296381 0.9029878853038384
P 1.7172356199142047 3.28608543229898 1.592922230476284 -0.776646961282043 0.12611286717138925 -0.1598717087893892
P 4.906758814225388 0.9463622793203473 8.197402049139924 -0.5121166985402986 -0.059481957415716914 -0.15854759066132695
P 8.40575229345699 1.5411329572711645 12.265734570262712 0.021401605604227658 0.21981389367097628 -0.8526677968930476
P 6.224063048990024 7.724798531989445 1.3373973752854533 0.8822498814255386 0.13765814880682742 -0.2808169157169099
P 1.7369650387609494 3.1803353862663593 6.023142474203901 0.27485092794146215 -0.0903141123052251 0.4102315935680225
P 6.7871998691833655 3.975829886335935 6.032930468137704 1.6894623741992647 -0.6324404698337367 -1.1660580185602887
P 2.5487773747293883 8.387205195684775 10.150098264849627 -1.0244069465439842 0.6459392756511199 0.6600461473661471
