# total energy = -381171.7230925355 ev
CRYSTAL
PRIMVEC
9.20891892887337 0.00000000000000 0.00000000000000

0.00000000000000 9.20891892887337 0.00000000000000

0.00000000000000 0.00000000000000 13.47818370419215

PRIMCOORD
 96 1
Ni 8.688504620545954 0.978272680039616 10.033752724892775 0.4293649719633638 0.27401814762752164 -1.4034461736696024
Ni 1.8910791545233996 2.8855319053411272 7.129231107570119 0.5981283268154279 1.1574844179586645 0.35390926482720986
Ni 4.736257576569315 0.697196210885554 7.348238541407419 0.35749106864119723 0.4620321231790817 -0.6272743522517649
Ni 5.624144716092616 2.00001145801474 4.204075065322868 0.23049708441643527 0.7848896609068096 1.1373902183119509
Ni 5.510976309836374 3.465168897365429 10.476012904251329 -1.9372814948339154 1.604649394217927 0.8295209264629391
Ni 1.3744772134246395 2.490469277918816 9.859480378036642 0.9840077167913311 -0.7404923657383571 0.18874211196683624
Ni 5.466745871619372 1.1967819113560867 9.84480228195626 2.331231577633095 -0.16336146711020255 0.06194018914822236
Ni 1.1768722283610509 7.438587246247518 6.5752916041663765 1.4735676130770363 -0.35900056330718816 1.6202053396746545
Ni 8.452820755193525 8.563419873033663 2.301440559170342 0.1848633457377203 0.675587694645172 1.2115691156182102
Ni 6.7058796017054165 4.187663850676497 3.7824235259155583 -0.39074366004673994 0.5663194098349472 -0.01884541484127722
Ni 5.126549983921586 -0.08207909552948854 3.4404411079212704 0.27412227730555366 -1.0404817406186597 -1.5495267422121701
Ni 6.992221730774632 7.387855311178299 6.6328841839309245 0.4234956576667803 1.4975799168312336 1.7100335134823967
Ni 7.606355333575715 7.920646531974225 9.702903890034934 1.599701306184032 -0.9999526701563617 1.170018288759617
Ni 3.5000430738234307 0.6611810493567446 4.707997245775992 -1.320775693952564 0.41006087231811317 1.3906474792430374
Ni 0.11102364900853437 8.053144459325093 0.02244305662682784 1.0855076705100466 0.15671953631365265 0.7115312026193166
Ni 7.963790317742839 0.8385264125012404 5.983235463905671 -1.4054133246983023 -0.09932994265059022 1.3610175721917463
Ni 5.77265695367862 2.9614870696996176 7.772370042716006 2.0745048700961695 -1.725381456693377 0.6463529661497708
Ni 1.4010817805720301 0.05250741466285625 3.5082905817283123 -0.3473616935166792 -0.2355161348975815 0.29123348306454355
Ni 2.4675114427168627 5.34582355551955 3.189652773536252 -0.15990847556459556 -1.105615239893199 0.14101138154977652
Ni 5.676073810638871 8.051284257676157 8.633194931814923 -0.5755429853157442 -0.17230633500831616 -0.9369285039153413
Ni 7.922967179575866 3.474350189662399 1.8709337232005778 -0.059050012084620886 -0.3309675684293719 -0.5425606168524527
Ni 1.8002700037305928 0.8683393670470909 0.5216594794432899 -0.21752664029869634 -0.5545928654266384 0.3663168944629433
Ni 5.78785167011794 7.199385573816411 2.2933670998355833 -0.16000000683713736 0.6064867260824524 0.5261888603626486
Ni 1.0027223601283393 2.4228021407090465 2.0936873453090987 0.4666593375384479 0.15814675567848246 0.12451055568127589
P 2.4237322415335134 8.098866742428864 0.16673208393460728 0.8438453135054113 -1.639602256144028 -0.0901369632974125
Ni 8.518738197783009 6.059606871405408 5.818073500669794 -0.04471456929855525 -1.8598192987906939 0.46871904828095406
P 3.5601404795707037 4.008393823449688 9.480379570010859 0.36491718590193933 -0.13609311831255272 -0.5648649367766078
Ni 4.3605060524035215 4.34347876107243 4.564817893214236 -0.2477257895898959 -0.5433183209540836 0.7074246366501107
P -0.07355532005298292 8.43380433734674 5.24767673802441 -0.17434907646995781 1.4573938315306514 -1.179591534270349
P 5.910311875699802 1.1305697833568695 12.118707252262837 0.0019216425027450779 -0.8109632180654097 0.0248769657473378
P 2.8811300420332517 7.949792760780556 7.972992790553635 0.19918181924292147 0.26245126872552865 0.15566641245878998
Ni 3.353897528434338 7.844175668148703 2.1897732067199236 0.5386288858982143 0.22144294463396702 -0.34404599887988496
Ni 6.300410895751935 5.271148430909584 0.9265093460363337 0.5285025960974898 -1.428736829915591 -0.35945410590483895
Ni 4.038958225790355 9.303678831200154 12.379078387815587 -0.9069730952038315 -1.7818613940579764 0.0285029925356993
Ni 4.22668204070886 6.648646169783979 7.006674208338189 -0.2966806222220439 -0.4293127785691897 -0.3003452155578247
Ni 5.981238970254735 3.1186004376821828 12.861934245040477 -0.856695429995202 1.178979354607647 1.5567592554048673
Ni 0.8925302765103932 1.5724045106551228 5.598460119958732 0.9158122907620163 -1.7358515029867652 -0.14458830026775746
Ni 0.829564292477758 1.9156117148836103 12.236088738986348 -0.9818451619223735 -0.2681197798652157 -0.435695799277398
Ni 1.2525419162288627 6.880370199943131 2.1154682806559344 -1.843851719717844 1.1645279550690073 -1.8113141521014549
Ni 7.980209820416357 0.04780349881000505 12.000516301554473 -0.610634943922871 -0.6238262458021643 -0.14854137137823448
Ni 6.462423408671299 5.180578712012184 6.428622071283104 -1.389027170030795 0.03032256224294132 -1.130648014492111
Ni 7.709255795086599 2.3858099128685932 11.678738251964953 0.7212684845117384 -0.5525069294318872 -0.431542953451289
Ni 3.762773534437849 8.942744457792461 9.734038324465052 -1.0925972303669764 -0.9006780062237392 -0.37038000878872346
Ni 1.6490779706998353 0.543840081877075 8.353899467605933 1.1178153815038168 0.3776883695246786 -0.08661686595929598
Ni 1.3665299162809226 7.314856209836186 9.569551374995841 0.8135479480734505 -0.7912343721779147 -1.8039492270959512
Ni 5.407090493986697 2.8129195785992875 1.865218668035583 0.18352354388037423 0.40024028668326556 -0.1343527385826783
Ni 1.7711053570861532 3.8951793725981747 12.8188309785157 1.254727396173239 -1.595014442231324 -0.6528172337178757
Ni 2.1306307658785646 5.273754555001904 8.150581269161158 -0.37676431504851243 0.6042023009236497 -0.5082201916993698
Ni 3.9829311622650097 4.580194025358922 12.425389120846917 0.4619151379852432 -0.9467812283397048 -0.39245678608310475
Ni 8.921232422882005 8.712079453324534 8.142925894751459 -0.35085170894780865 -0.23044694790479023 -2.2226952858928883
Ni 5.2458054856726095 0.5058219804539918 0.9409728743027551 1.0606494738157863 -0.6384553085692488 0.4257281465417249
Ni 2.258247966130741 5.243374331042318 5.650014411499486 -0.3060391806188084 -0.3654072381644804 0.47584588913372244
Ni 4.064798452656253 6.199554814271069 9.373011861866816 0.8377867660161571 -0.4574853843486637 -0.6477506178282457
Ni 6.984449403092944 8.613451930254769 4.55966918657107 0.9296011170159926 -0.06471363812830144 -1.0679534636763672
Ni 6.482056824094711 5.655758935205453 8.632736327646029 -0.5197680444379693 -0.007352583710329272 1.0400914471587765
Ni 8.255556500134938 1.2699651910792826 0.5598433414093476 0.192996516367816 0.3435870569655953 0.48570452709535705
P 7.043828513153994 1.4098302536734566 2.5612729729584243 0.24638598773254985 -0.7330194544000795 -0.6637022560614956
Ni 0.7375764000460223 6.726553624981944 4.31804648932063 1.9965713908434841 0.7872072532963927 -1.4499070362353028
P 5.332535085324435 5.77488551208972 11.410374695565121 -0.4124923645777412 0.9146864046876892 -1.3634022703738389
Ni 4.995442603347892 7.21649574541899 13.617683525947927 -1.4276520814918445 -0.07389093375219533 -1.111924984161311
P 0.34440068013790304 4.212270082389141 6.1389757820572655 -0.12604936092330551 -1.1654512382142252 0.1882104078330823
P 0.11754632637457686 3.8816146348314366 11.12409794982119 0.8191280132643892 -0.4429231702637727 -0.8175922933461531
P 8.281037579157724 5.8014716613990025 1.3820128718866365 0.4367273258657059 0.894281358668776 0.5606838088157247
Ni 9.14496311130217 4.47159324295353 3.7642681420003345 0.4038326320202142 0.3185373130858191 0.34306075214848014
Ni 8.770003554175032 6.165923841885375 8.199588373691538 0.10616162086044297 0.9569653679615585 -0.44451108357618285
Ni 2.0179320144940833 3.159570918554021 4.242083036934991 0.8447752815188484 -0.5500684951937236 -0.10507070178910936
Ni 0.15579833434163504 4.107463374634052 8.920656865441122 0.41610425029871567 1.202085087387175 -0.759249591741202
Ni 3.785206461253717 2.1015121638293954 0.03249551266631956 -0.7953985308579333 2.008451687220838 0.280739011291123
Ni 7.173241452621727 3.1661184600015098 5.860206147126263 1.2902358734924941 -0.8638808920000476 -0.1874326491267933
Ni 1.7881971108506243 9.359669059049283 10.993844236043817 -0.7065360633975704 -0.2577479497125884 0.0965552081189305
Ni 7.430750456132451 3.165114687824609 9.507295398622281 0.49455529261776765 -0.4940696112306008 -0.769972377475345
Ni 8.183017844745532 5.712025430626207 10.555547575446159 0.8249911569133856 -0.21631359382720167 -0.3264797078613474
Ni 4.277874421730785 4.364060695158417 7.290633069156193 -1.9465410657589703 0.05839566633007362 -0.6434877287868337
Ni 3.4051819986468055 7.089753392476956 11.281442461672015 -0.3980520207826951 0.30969606064510535 2.667115866637794
Ni 3.400411778576765 1.7825796702276029 11.016488047106023 0.3848401500781114 1.9793270019407394 0.16315834996046094
Ni 7.051978406516902 8.281451980515161 0.5594243355923845 -0.2718900455409253 -0.2709747328155075 -0.8036299176287902
Ni 3.337634577384739 7.111937678478363 4.599282272774328 0.8167379157656579 0.42944596171294425 -0.128135811138689
Ni 4.583159297294352 5.164877505024888 2.2425403129001062 -0.7635207083127302 -0.5551651929903407 1.1122247747899168
Ni -0.4343405089719996 2.2101866175872207 7.6390709394074285 0.039779079670150846 0.13978445112121088 0.5565201643563383
Ni 2.12950727775396 4.939526046851196 10.658049290762 -0.8343941953948404 0.5605897064400216 0.42047152612847577
Ni 0.8443068509915198 4.657723914875668 1.1620606029543834 -0.43055333584451017 -0.17603109215807103 2.298066403735036
Ni 5.151644288344098 8.312228187994073 5.867889148293127 -0.9483742838584377 0.41111656727613716 -1.8607050438297568
Ni 2.9627486916100336 5.692797207641178 0.659312559680661 -0.5871689995904469 1.0559430694790524 -0.07517957065663182
Ni 5.896590586309143 8.068210250897653 11.135028936738447 -1.3816822996299496 -0.2044330403395318 0.9342895236305975
Ni 8.605246783377536 2.1276102404288086 3.9922920284835355 -0.8385735235835108 -0.0064269865722663515 -0.9426443233531959
Ni 3.5904286143397477 2.0898905079830796 8.638626352273052 -0.8724033276487619 0.6093673900643569 0.2635948954116686
Ni 3.4362528915354504 1.1385723340149112 2.383845650434347 -0.9850639259699874 1.1047320659572972 -0.04728850067331856
Ni 7.591768405793969 6.591891601653357 3.6081640715461023 1.1435644654434627 -1.0889184959638085 -0.5711011474943068
P 3.959807566520081 2.465817001610902 5.790928369973925 -0.3577877739460096 0.43387700090110437 0.9202495005977636
Ni 0.8999287220784837 5.98134026836433 12.63435514934759 -0.05768398497502969 1.215961845369267 -0.7100998694894287
P 0.3918192461314453 7.732812210027072 11.28986585993083 -2.124634439762709 -0.09421293313899903 1.2888598190805738
Ni 7.014802000295366 6.196055425030498 12.494303145696618 0.6829004262565013 1.8578912285300453 0.05862835116617
P 3.1706860838523596 3.3701144348886665 1.9348740108691405 -0.7400069414615063 0.23274499991034756 0.019513387442579296
P 7.035881216010276 0.6273355091570892 8.181958819054307 -0.22201912885241118 0.6346102237915457 0.09176627137071938
P 5.551698149893749 6.131390395432375 4.227917877645924 -0.4203843657313083 0.28163015564682464 0.45798212147942413
Ni 8.304216428416977 4.310087220582143 12.871504153721533 -0.20608960210634827 -0.26403146872845495 1.7549121191626424
