# total energy = -340890.79871630744 ev
CRYSTAL
PRIMVEC
9.08200137497266 0.00000000000000 0.00000000000000
0.00000000000000 9.08200137497266 0.00000000000000
0.00000000000000 0.00000000000000 13.29242703503845
PRIMCOORD
 96 1
Ni 6.19348887721522 1.8176535546608847 11.308771654860214 1.1523689511089703 -0.09003411917096107 1.8486141741034936
Ni 4.584521545955178 0.5491486513041162 6.082495016041544 0.6040022690977017 -1.1967490198862423 -0.14491791569303428
Ni 2.8083273267379716 1.450577230463163 4.818664618698546 -1.1280589136086958 0.004739314457198289 0.13480216741527104
Ni 3.458498710106537 3.9855544853098226 4.668114101331017 -1.1594901355347838 0.8539793166156197 0.37422200824263296
Ni 4.877043722363817 4.314486404499122 2.8173566523235367 0.8551494256643208 0.27383302819990907 -0.8656608667186059
Ni 7.0156642811681955 6.026479957286676 2.726117051943628 0.14761371735764253 -0.28753520827734996 -0.301933385980551
Ni 5.093930992841471 4.63492665257345 11.693666865397587 -0.5720023191523375 -0.31001847698153057 -0.17102232608957
Ni 5.868780088580424 7.953880414357508 12.652795214532706 -1.5393945388741745 0.7429961059968172 -2.317859784311879
Ni 1.9179188478258817 6.683072315498326 0.2825519554995339 -0.40734013095284044 0.43781233139976855 0.49289461708589305
Ni 2.7676853714016163 1.4773055599726364 0.3218297942567784 -0.21016865727172834 -0.4394460103484496 0.9621160589245623
Ni 0.4837446197164598 9.098984534711551 4.738085471318372 -0.07461084263735536 0.08209378127796185 0.7871190644579605
Ni 8.634313025699424 2.541725181732674 1.3974992908939428 0.0761499049897011 0.2729997336653363 0.16694532780671892
Ni 6.776553353772539 0.8215723590737946 4.642619107583482 1.2378344770726424 0.44274036482900525 1.7783963183275115
Ni 0.8910124319913897 7.670485649147312 2.5362351120118185 -0.2857524053453144 -1.1315774682849156 0.269828020805574
Ni 7.439494030817734 3.802098061221694 3.9106588542759035 0.5202354709926911 0.32893871092480126 -0.362363309131834
Ni 7.038678072189943 3.4430411440769335 12.793389133992918 2.4749138211468154 0.4739774684664159 -1.1463988495684643
Ni 7.9584940709632885 8.866312746161364 6.877980234890055 1.22720065150788 1.1210901956003465 0.2641353412961709
Ni 6.954024739074822 0.684876434525396 0.2862646775870204 0.46443610463488405 1.4078157634922077 0.283748230431092
Ni 1.8484869487093596 6.226465623545121 9.109259910860725 -0.17259301301079952 0.8311718318028007 0.1512924517608104
Ni 9.136765659672275 4.989024797067116 1.1550025934537298 -0.22025380942187228 -0.1591119478052292 0.39187108878296384
Ni 6.686441737940737 1.8649526168713288 7.1400141332955345 0.18370249266039973 0.38107142706429853 -0.31962668949525597
Ni 3.46703579122747 4.51188370041771 0.6171964534389038 0.11271921947330266 -0.22766501428427888 -0.48852939813866186
Ni 5.7608223404053955 5.2858427600398 5.252449149855164 0.013597021958144325 0.7720007207592834 -1.5379241249762352
Ni 5.3012276700598635 2.773788476202964 9.455833617366421 -0.6230531150815657 0.1805842587463922 -1.1328895022281198
P 0.20493626510846683 5.722968559435133 12.353702210261305 -0.23770542923941643 0.48092458920821046 0.09293612330910446
P 3.9403079553688793 6.2189093985529755 12.605035694861805 0.38228678752863837 1.0988146720315979 0.0007764731547083402
P 2.489530920879482 8.60517796587394 1.4874356241027302 1.1019509036677344 0.06500288723394611 -0.8308990377573883
P 6.536833932296987 7.740480632337768 5.860125849644109 -3.1720846412794015 0.4141332426152738 -0.44523587755734934
P 4.6195599065557715 0.9193709807149135 12.532871021586464 1.0028515889707117 -1.3498610413542944 0.878751638464293
P 3.8046682675591668 6.118435219360551 8.180385524098 1.6601338004384765 0.3083809413781076 -0.3706839131823874
P 4.763100935402943 1.128075368118141 3.789405056355082 -0.03153123783906183 -0.17524099215660788 -0.17053098827544824
P 0.060875745793084995 5.645072235207217 3.384876375639805 0.10731887439333776 -0.2174623627196642 0.4381658580844453
Ni 1.1972257251976959 1.0365560421015036 2.6631905902812805 1.2244683401783816 0.6491714094351723 0.1481690756404803
Ni 1.6831763630038095 6.7267113312282 4.7002553035512085 1.1094924634604184 -0.5079548538531252 -0.33643399086058184
Ni 6.434298138833869 5.718191426807887 9.277037168090153 -0.730685149839948 0.36483182527698454 0.4725955005172248
Ni 8.73791141330206 2.501301194424938 10.503396136713093 -0.38275755651746984 -0.9468516765663241 -0.1318086320045859
Ni 2.4500968717017266 5.023427417584236 6.891605053079015 -0.5332691642481977 0.4512741133316293 -0.20851518082870538
Ni 0.9963318588200026 8.732362310573453 8.661956820929097 -0.8533383405975111 0.38400017067531933 0.38584853673796776
Ni 1.3944322990912417 1.0362563360621517 11.563707061133652 0.4630631355467574 0.647137409724279 -0.18907789803970015
Ni 3.9536130871158646 6.8327346131492295 1.747728502879611 0.10552321594549567 0.3953449062641772 0.5255990492974496
Ni 5.9456410646723965 7.937423828196731 8.097546774821135 -1.4084415700016646 -0.08770187149335863 -0.7882302952442682
Ni 5.351523792663827 2.7935236647942263 5.140607029770111 -0.38313730845439176 -0.35730414944137173 -0.047929733801743264
Ni 0.5604548345886364 7.194770426685126 6.758799857841476 1.6589212681876142 0.415231103665143 -0.2267458449041192
Ni 5.340352931197074 4.493311007979084 7.526251663609154 0.592343858923167 0.8419038735083243 0.216616212669285
Ni 8.357938647411014 7.224314176564268 8.781934597682376 -0.6342479553561207 0.12257040123576955 1.7217975959968603
Ni 4.69841892291009 0.22085428859852932 10.415028265110246 -0.20410059670077757 -0.12406652616532184 -0.8258409065081905
Ni 8.15480152673878 7.21590424346003 4.70514686939348 0.6157234141893719 -0.691005571862139 -1.3047942309226432
Ni 7.505747229516888 6.109480366184765 6.8255543830064545 -0.9745432289443217 -1.93910620674748 0.8960803595507276
Ni 2.170988811054382 5.3815307246037865 2.5497137099815803 -0.010795290843291085 -0.42268010374402043 0.662325430318627
Ni 2.223228481913536 5.496318137675561 11.461394684899869 0.15612329749055046 -0.6062026191831302 -0.6404258020320583
Ni 0.9483879745248923 3.3773237834481367 3.645102047607861 0.292371967544361 0.4980144548109616 -0.5593159819339206
Ni 3.3001631013168127 2.3839254110133052 2.6843525612598818 0.5860605970176165 0.43995251767122295 -0.6811075960221367
Ni 1.1283296641515304 3.4489989368592013 8.513400711023438 0.06790669114430241 -0.5758934266766275 -1.0126963429752753
Ni 3.7432830214991832 2.975872084736872 7.3139716923364455 -1.0124209778267017 -1.3298486027881098 -1.0771335875137384
Ni 4.307547755588066 6.98951719973504 6.07062484048297 -0.36462562280344946 0.3710942612469286 -0.2987737573056467
Ni 0.7128326505960929 7.7071133599565895 11.22978730688944 1.958059350811215 -2.3979743303762833 -0.00024039814558023115
P 0.23355455906609562 5.404707991646999 7.962030602227641 -0.17698085766585003 -0.5058354935172772 -0.08813510237603531
P 8.718848292799041 1.4035415462873007 8.294846893326964 -0.1696897233210755 0.999099321017131 0.21868955025854594
P 1.9571167649726322 3.4276199060521 10.48647546029138 -0.4979995424126262 -0.5366915596661853 0.5108753699340299
P 4.095364961728118 6.0239733249575504 3.9197108848644504 -0.9188636759938303 0.991183408604164 -0.0482907166855878
P 6.789386221457516 3.8924821370892713 10.575003175115212 0.7734438809637131 0.8551854211085788 0.38833093684018927
P 6.646244800662813 7.760034180905181 10.188564932575241 -0.49924009968794664 0.0672330621160455 0.7822979889202333
P 2.3016606442118075 8.547470930296914 5.77392403532567 0.9033444973123088 0.11310359939591488 1.0781275759958917
P 6.6069378995017525 4.011855960763249 1.4236191263235196 0.23705468302929492 1.113520610783205 2.122137641482784
Ni 5.066648661259256 2.704601791118639 0.4375880732560297 -0.8977837153950796 -0.4423883808062252 0.4954400092155661
Ni 1.5805860775335372 1.341584134152191 7.14590199466862 -0.19924455416005685 0.1053380965178831 -1.3279465006693902
Ni 6.81710448909697 0.7967548826152193 9.310879429133697 0.8604111882838924 -0.37959587096003655 -0.655657017159516
Ni 2.884053052680883 1.6878172656131676 9.213579409358045 -0.06256188189262128 -0.517411885500967 0.8638130148765898
Ni 6.343932226968678 2.0628675868578883 2.48113824357751 0.2276300472812854 -0.033093697230175266 0.24990377107782122
Ni 4.135788949035853 6.985057937149532 10.235434416129278 0.17653939925305723 -1.0540859616656557 -0.23692304254743712
Ni 8.391487559816042 7.353432987517778 0.4211169558933451 0.5518150455711851 -0.5306597516498086 -0.9589500024917549
Ni 7.679867356379145 3.7847968489500166 8.632327700238745 -0.09444510375446315 -0.8703752414751397 -2.4186213172026734
Ni 3.1987898040063336 8.26781794957802 12.105878010921584 -0.20357634876619132 0.21060317370598566 1.6061308638594596
Ni 9.068523502711969 4.8326690645373525 10.227791003925686 0.32571249067801966 1.4047492087517421 1.066813436534653
Ni 8.755085477557042 2.4659177177790297 5.533664234779165 -0.22391557454417566 -0.5356698032698903 1.8733376449921024
Ni 3.6449521945881846 2.5643212006995677 11.660157005597688 -0.511223754412384 1.3898558365796774 -1.3028481629398658
Ni 1.0844635983918443 3.4687795354564264 12.53598160699489 -0.12372302678297402 -0.1080377548372333 0.4494393741157356
Ni 3.2260902995909326 8.26305898095316 7.9531647526635405 0.4946697067084449 0.6301069366045535 -0.08214083246581338
Ni 5.691217883266217 8.181802316284026 3.7127338940880326 -0.4370543701878215 -2.4539858127448966 -0.22873767852316734
Ni 3.254834833365137 8.387300757266308 3.536490395346973 -0.33549888064082223 -0.18535159822804853 0.9643369778352809
Ni 3.622955587699994 4.355864001932068 9.48112880708772 -0.1857210657523253 0.8222801857401257 0.02416785549545515
Ni 7.166816027014667 6.087338447277494 11.604886670940601 0.8449146353101901 -0.11449713730933184 0.22088912901302604
Ni 0.6182626803789012 0.24939992654661827 0.6141857700435962 -0.9508163176410269 -0.3447764492880062 -1.5822144622531782
Ni 4.775334391009216 0.25712144396046616 1.6957812724588546 -0.30892035882134544 -0.044075393052659576 -1.077264713774964
Ni 5.768206007374884 5.984303143748791 0.5402255851325029 0.871615541640144 -2.0847710279088676 0.011892894782844034
Ni 8.192237535654188 -0.03226017643581393 11.227475029385836 -2.265473814510995 1.5407700790654626 0.3950142623976358
Ni 0.3029819171820213 4.9428791490081165 5.680079717003758 -0.5812760311447795 -0.8638451536661058 -0.5000176012839196
Ni 7.920022713911936 8.80433717002387 2.6418833072835994 0.47510181187884626 0.5299557836042486 0.45704006928112906
P 8.476522336981247 1.6126455417429972 3.608627822618735 -0.8025695946850759 1.2395056941274782 -0.9539150111710087
P 1.8234932814276503 3.3346020498387032 1.432684779913855 -1.0713092675224776 0.1649853758668707 0.10901940202421223
P 4.811980265820879 1.1306546564568056 8.101029722278453 -0.039761081948021845 -0.5119027827572796 1.0356442100207002
P 8.628718512964854 1.7727248947616783 12.601606331211523 -0.1710837754551247 -0.7913495575995404 -0.2610173644924795
P 6.608327445684202 7.865158344708155 1.3628596301456983 -2.31338683614219 -0.8060115304870893 1.1067874058244291
P 1.80394881486143 3.139956600281437 5.842859148976963 0.09052262877160538 0.3973812199679156 0.4594437936266152
P 6.96378789035674 3.7843336668892005 6.172803711299224 1.3929319044018398 0.5263444121039065 0.04281606672426175
P 2.417819439463647 8.73824744734618 10.163323326660976 0.988290146216769 -0.3711243431539156 -0.2198087514646537
