# total energy = -340865.0512631244 ev
CRYSTAL
PRIMVEC
9.34007562505705 0.00000000000000 0.00000000000000

0.00000000000000 9.34007562505705 0.00000000000000

0.00000000000000 0.00000000000000 13.67014478658819

PRIMCOORD
 96 1
Ni 1.9807311576899078 8.124324681466327 12.446366220403272 -1.060118798123297 -1.9614285243937641 0.4824538813685432
Ni 8.802358131403805 7.016208769214179 12.67301716556276 1.2611024464616476 -1.118323431488487 0.11966813998731005
Ni 5.435391629569469 9.089462716047551 6.436054641791231 -0.3681945711016304 -0.5843245881631163 -0.6976621579467082
Ni 8.141547780919238 9.033609063808715 11.904781935274684 -1.9015614157244864 -0.8168775266673157 -1.292151345347652
Ni 7.025053820831266 5.186282472569131 11.95646897977711 -0.5713664853405515 -0.4994046502902689 0.45368400832470257
Ni 2.128902117408454 6.3599003351809715 7.967275045858443 -0.19227557904139145 0.829416796784907 -0.6628921014553745
Ni 2.825372876630124 9.107909365407368 7.257397542084327 1.565452155193175 -0.5181284519520174 -0.7475269039876351
Ni 0.482525118935174 5.004533940977906 8.95480591175114 0.805763161921709 -0.6370358025139029 -0.2780802335120372
Ni 6.3918620739704854 5.712175430647344 5.030298539590085 -0.023826155885320256 -0.26123153738581467 -0.8907440349394787
Ni 2.801882586432687 0.8393533681212144 12.6266343500079 0.41183261950655525 1.2204003407565949 -0.34857242599532867
Ni 0.37710555336840085 8.389209226197666 2.6943035953813617 -0.8138824485947339 0.8913094205246457 -0.8797278863346333
Ni 6.305718556479049 2.8001546724420203 4.467553379124991 -0.4972971170289629 0.8784554473801128 -2.2911938449849187
Ni 1.4407533655688587 4.370987271243368 6.752107856827796 -1.9514230764416198 -0.3338700867881476 0.7203526575656883
Ni 5.009624282193653 4.0169423645936435 11.046994059891967 1.469346118796521 0.33165379586311916 -0.54634630914713
Ni 4.633032432984639 8.206806889312675 12.627796255415678 -2.5045414142052604 1.2663156152314707 -0.2292616693474374
Ni 0.25898815498913624 9.399291704687467 -0.006002866604331175 0.7488700482790909 0.012785581800442496 1.0770780516854548
Ni 6.986152405852209 2.282387580157753 11.064902720895772 -0.8485288350240097 -0.40284095753090626 -0.9537023809395704
Ni 6.443288530362967 7.260274285376896 13.27356067807557 2.3072632397429556 0.0034887298795488303 0.8266729154911827
Ni 3.870097695613879 2.227533316010815 0.7130335153278786 0.6978740168471981 -1.9819042757496128 0.5457441567867568
Ni 7.835389442000036 2.7341857183010667 1.4478322088852158 0.6486106518356959 2.4284912680182176 0.18704621232165203
Ni 3.208642879911172 5.981599252132542 12.13180274742893 -2.5160743545455246 1.0469748045421712 -0.31672622801900935
Ni 6.850431766942087 2.3246981227400156 6.505211363743074 0.4828829984861619 -0.4941043211232781 2.2426958973845315
Ni 5.226865101160728 8.662425118386706 3.7477109486663247 0.09570777251697066 -0.888580965849889 -0.47189410357482603
Ni 6.984078909063411 0.4398148211161517 4.795254602473772 1.4702706874933196 0.8102661919983852 0.8835472600807235
P 5.824293698452527 2.977700170001895 2.1874961478357315 -0.04628834154357834 -0.41389310158000975 -0.3512440592902209
P 0.16519044552282874 6.251639518609005 3.13690175903383 0.026463593508167328 -1.0468452209428425 0.7337820435977168
P 6.707407188893038 7.342308169593235 10.879330362343579 0.7977678024210584 1.438034196057117 1.6796178773050168
P 7.512951351266069 8.94085277277462 0.9152125283417176 -0.22085647600287772 -2.3917275781356233 0.34940186387515954
P 2.7514274979052287 3.004113903870027 9.305431416714471 0.6674406400580053 -0.6298876215048957 1.4845315682877078
P 0.9207754773841008 1.2147889159678253 1.7994561679328815 -0.45143892104426764 0.44780081007104816 -0.45742650608627033
P 5.002712626230988 5.659301262532953 12.871165935944315 2.7417531916377103 -0.7098067637290421 -0.044762648927671296
P 4.7113022667240125 3.715472743638303 5.871696450265661 4.733523561548125 1.654844784125395 0.7788359985135619
Ni 6.131684927354258 5.844262780139255 9.622565278500874 -1.820705877729 -1.6151837180903477 -1.4307875417970326
Ni 4.075233776570664 6.834759120042961 5.04858920968696 -0.14283917878713465 -0.40236067546037807 -0.2739042477574767
Ni 9.033786525245594 5.798020065718773 5.457436076060121 1.0727184891651784 -0.8280985921941157 -0.5010493849825436
Ni 1.3361818788688558 7.663653471479051 6.109119304643719 -0.8124022645047815 0.3091923815358094 -0.7742887454625116
Ni 6.914411284974868 0.8889940020541527 2.5627420921471504 -0.8922051928660376 -0.13355183994793773 -0.10830437823505865
Ni 2.9656701525966067 3.5460624519479986 11.745060104030426 -0.7976960686428585 -1.406121149398604 -0.34873903348018004
Ni 2.9389481962328423 3.024176386313007 5.6897190868216185 -2.01480591157364 -1.9887552372331752 -2.1084046081674077
Ni 3.182145085362413 5.2198226841393085 9.919699236350985 -0.08416171955058409 -0.6670364626410512 0.2504475593964332
Ni 0.45434517676631203 2.2786608899832883 5.819572290223976 -0.4979697176159553 -0.9593030149557995 -0.6061712517245625
Ni 2.436554868427693 7.994824532922602 3.670297599861784 0.9149311737086436 0.4558409067667053 0.7126015528653599
Ni 4.210702233438906 6.534839951641407 1.057720600208691 -0.142040079924607 1.9278054370226796 0.29675955508909535
Ni 2.6839361114373634 5.320144436429835 2.5174259132286907 -1.0374015590314394 3.263024045873451 -0.5155198106845768
Ni 1.7802651145457347 0.9034346929783107 9.97745546199468 2.3509434542397254 -0.17154811668605296 0.6294754736681417
Ni 3.628787501760603 4.425682754104677 0.2810802358654775 -0.6808234891228147 0.03792685695276049 0.18845980483972705
Ni 2.0242092097253233 2.0313543675786194 7.517240313993171 -0.5888240186953665 -0.7170945556397069 1.5833799433161893
Ni 0.8607804356130399 3.066664390332149 10.370034718651388 -0.6577455242574285 -0.6801295483795835 -0.06314166565549126
Ni 8.53431664111114 3.245442777874553 12.364153940742494 0.04019585549259529 -1.22821212349153 0.3391344205108805
Ni 1.6609830087360047 1.4941225576913861 3.840845512763241 1.3663466977141436 -1.1752165451311052 -0.13570256774235337
Ni 2.3777684324425357 8.950837313617983 1.2728160038046517 0.4825731805552269 0.023603755461869026 -0.24459804259419168
Ni 8.5295251823154 0.3481270347335822 7.045633743463884 -0.6190650769680951 -0.16584566698463696 -0.33702277348451637
Ni 9.081710453278616 2.8103073346466383 8.0427615370615 -0.5545031339263096 -0.42691419643002604 0.731744701452714
Ni 8.46765652137392 6.132450813555527 10.38955641071567 0.31773898555423985 0.344172240045104 0.926592669206972
Ni 7.564816791212935 1.348137175669142 13.526266698199182 -1.223115682805229 -0.08931960960243973 -2.0434978801916936
Ni 8.036574670967351 7.639350594702219 4.379558658644635 -0.19329270745199614 0.5761657065014077 -0.32591200828333544
P 8.688241087414823 4.926899232381047 13.602245411387688 -0.11242611371291607 0.4414429861738204 0.9622345867802977
P 4.954517836004833 1.4174592169595512 12.323088430241071 -0.43837900253651596 0.28458949538546474 -0.07540171396976693
P 3.752151220618556 0.3307871843353547 5.014372776641516 -0.5760168396283694 -0.7059825048869455 0.8327831421539786
P 8.277464561417492 3.6961761473965913 5.399105435765475 -0.9783021817661215 0.23970214795447106 0.010401140728665957
P 3.9330124450253847 6.924115623549476 8.880823172723746 2.1862702102966347 -0.42880781390831313 -1.5841541024780526
P 7.49839951344197 7.088706436217164 6.442807516468267 -0.715737013170548 -0.12331473560096182 0.22289844613357093
P 9.23413114740664 0.3383143512817224 4.528796254999581 -1.0085126439112309 -0.0017128689260486629 0.8699461243575212
P 7.747854253240441 4.298125341290999 9.494790241925127 0.7503893131370947 -1.0755652145853543 1.138093929247195
Ni 5.317127592002888 5.916424204419732 7.041491419924097 -0.08583165105383928 0.3615377279067451 1.4178608064330356
Ni 6.503644099053162 4.955022200088596 0.7785859020959475 0.4462278091569734 1.9293799805986516 0.09254223030479546
Ni 1.5894380294467922 3.112580202105748 13.572020926664464 -0.43124804791868954 -1.5612766836592467 -0.006202015045653835
Ni 8.938181511145807 2.6474631161208655 3.5032475452819734 -1.494684854671626 -1.0122366297300374 0.41093401895168585
Ni 7.9159008938894635 4.823130992184814 7.425527309406414 -1.0363018982093573 1.0125603316180432 -1.3598767737190838
Ni 3.4140031226829626 8.046652612566968 10.579584919348655 -0.5996403925845801 0.5984016350814726 -0.0674328368316774
Ni 4.174051776685529 1.449673137790947 3.1935511857159358 0.07496951152835475 0.8343790258861887 -0.328046538127835
Ni 4.366167792220752 1.7352179298052817 7.437830057019958 0.8637435950912349 0.4988652328470312 -0.48163755611483505
Ni 3.638650621620839 4.2782496603605225 7.858337073803647 0.7289285721601576 -0.5178615714438759 -1.2964314607802447
Ni 5.873450516468077 0.011296821468707884 10.877703321169665 0.4063466566913196 -1.143912592811501 0.9152602749132882
Ni 4.294165149225904 4.069153387338643 3.4008037278093965 1.2455958661856161 -0.5434412196851931 1.2154928761526484
Ni 8.341770982097156 6.6111390294238594 1.321382529040689 -0.06964655665354456 0.5147921884899327 0.40336417702422794
Ni 0.5903759061871928 4.152504222218138 1.735547634474852 -2.234946078235783 1.760929786111632 0.15883889664950063
Ni 4.789796262278391 9.106013330055449 1.2786208608057281 0.6983483853804553 -0.09135772307839105 0.0799638794191526
Ni 1.4668962372438594 3.890552461233119 3.910289909044341 0.5590874108628823 1.0751304410407807 1.883668851714782
Ni 4.840961196553366 8.858090362659514 8.717136479376578 0.368595663194791 0.41942405870056804 -0.02499549360307308
Ni 6.087375608588198 3.3079745841854247 8.690110970554993 -0.29588358024204525 -0.2629076395366569 -0.4602907150079427
Ni 5.7641342713504615 3.33137147362661 13.305179636089639 -0.1249692404852493 -2.9568686513917526 -1.6829682818344887
Ni 7.179127708344954 4.826446719031769 2.86605544403091 0.5787344956698484 0.16111329450597411 1.7033008227442539
Ni -0.06787899960631215 7.945443553092045 9.263778415456224 2.0634928352563815 -1.4617109708487666 0.4677278880122784
Ni 0.8186090601575929 4.715449260301612 11.957289038417004 1.2288790676515675 2.7330152975440805 -0.13075370837751027
Ni 4.665293054194161 1.7262234369781915 9.930608444681248 -1.658555657318079 1.0209747809339835 0.45877376414278404
Ni 8.875733765515562 0.7293795816795824 9.809163177356714 -2.5330148390546054 1.647170298299273 -0.8858810504202227
Ni 7.2033652045924095 7.674170396633053 8.505399766975447 -1.2386158353233572 0.649850437780068 -0.8386807385853362
P 5.3936228113734686 6.6051613810237155 2.8996703762060894 0.13548813773870214 -0.7213960112285382 1.0998202304779767
P 0.1802130231584383 1.2723891623485788 11.805250353382052 1.440643608655506 1.189858463413996 -0.016847924795274208
P 6.667683847258963 0.937977094663075 9.039300905894727 0.09022258103268332 0.6304347522576175 -1.0197643055656502
P 1.4361113479831227 6.344704032138732 10.492587718945073 -0.969447559588969 1.451752574084474 0.43001417551158844
P 0.9726381153082797 9.351844120511332 8.167132116071851 0.38345638235670737 0.6413845664009018 -0.7890767024049636
P 1.789595850095333 6.84950709945519 0.849802110723152 0.55499987105707 0.6715184096718048 -0.35183232769352313
P 2.1519907843540067 5.761210827679767 5.415755988582561 0.44076010117418285 1.0697138980108998 -0.7889386341652026
P 2.5309923730743282 3.3006799851221253 1.9980691400730104 0.6068780479836 -1.0826306060725677 0.4685434419350382
