# total energy = -340868.735637288 ev
CRYSTAL
PRIMVEC
9.27923211509840 0.00000000000000 0.00000000000000

0.00000000000000 9.27923211509840 0.00000000000000

0.00000000000000 0.00000000000000 13.58109415960329

PRIMCOORD
 96 1
Ni 6.518428420636233 7.356825580195398 9.781823852843155 -0.014760446138626192 -0.6951550752541382 3.0287199290060998
Ni 1.9757526120911177 0.8711036681953684 6.786241899699594 0.3157414955082369 1.332132256615964 1.0120186001819604
Ni 1.338649829881839 5.576966832495257 11.715105420582159 -2.342302747845592 -0.3225150667866446 -0.5634480018244231
Ni 4.114671237703667 8.252846769780048 5.2293324728067425 1.869865370172786 1.791566280050566 -0.6283781268389048
Ni 1.629822847300458 2.338097338091935 2.425963312764125 -0.5181171390981076 -0.43723846117416953 -0.21975115875384088
Ni 7.027700504354199 4.8301742501360225 10.087615372178384 1.0690775499784815 1.612257545582488 -0.5114271286724418
Ni 8.848814717029105 0.248696405527371 1.1431345581518992 -0.27535023617538384 -0.696060103566911 -1.2536575601478281
Ni 5.1415667138389445 6.888001668277929 0.5944378019107011 1.5976829902024225 -0.6045398867687266 0.02574188485079438
Ni 3.5318797997357976 1.293821860630131 11.845267062123776 -0.6104217994708003 0.3719234420164434 -0.20429034411408042
Ni 8.584440121303498 0.9607438320045748 11.644823590338033 -1.1533914788362134 2.0536930755571405 0.23235239245761918
Ni 3.5145461945687115 5.238673875548555 12.514529806211046 -0.25994367181232647 1.072283972730921 0.024048042088139227
Ni 0.7088321726279558 1.1892820341781039 4.990305026906836 -1.7553993432117057 0.4797308260104255 -0.08943942300975563
Ni 1.890439354111361 8.168053148786028 5.085032993560321 -3.2693723566889825 1.3522737645608454 2.425334467556791
Ni 5.830401213824724 1.9803458318757576 4.862412157561873 0.8662676470646693 2.4474161299471784 1.2212421199316
Ni 4.83326423435478 2.1470843496741314 2.390150117291766 -0.5397362600297801 -0.5120153970757441 0.4528684544019426
Ni 7.074272969200881 9.029073075688531 5.425742262490702 0.27439404290970165 0.08691485681568903 0.9846962582179235
Ni 8.130203161914217 6.479594835184277 6.374815604549536 -1.0234841776193986 0.3183917886468904 0.49844794280395455
Ni 7.4826055684394275 2.758288795683552 8.778479067240031 0.34646309296180977 0.20591605264296148 -0.16747446083731157
Ni 3.443476557537283 8.352579954114006 -0.0029071833505609906 -1.9648946285654936 0.2950662265470725 -0.045279183552773626
Ni 9.094166887383984 7.135794276619392 4.433914859507163 0.5333421835779782 1.2386042653591314 -0.4426874001038827
Ni 5.228466720471578 4.248162267646758 5.803350397024356 -1.8026657323978375 -0.16985658791624297 0.4945365235646902
Ni 4.802763399138393 6.287171403519472 2.9807240470442364 0.636692303131555 -0.6722470603077132 0.8664054581941144
Ni 5.839485581843234 4.73938624534225 12.629561660159018 0.7257218922974017 -0.09615565868766665 0.3166166990243386
Ni 8.96538042800819 4.850217391014452 8.507794593830472 0.10805086746335583 -0.028455941347847766 -1.3267596794501408
P 6.400211006381055 2.538751448441539 6.9355660830134545 -0.29228866380193536 -0.22928635193778577 -0.029666930936813427
P 6.7580460256842265 5.926032977664116 8.088750049300232 -0.1489236944183177 -1.1994345371382051 0.4923420870165327
P 2.511498344386009 8.827481762918223 10.982813493894552 -0.4365997991489062 0.4997044409188749 -0.6412413559548182
P 7.318001273975331 1.0962391760355086 13.456500824182681 -0.2422040884407184 1.181228812763456 -0.9977883155151914
P 7.439169483970944 0.21402084388450038 9.604875396198238 0.4393279967133466 0.3628646742482847 0.11115547453060856
P 1.499774412387875 2.298948258755782 8.734978956071519 -0.14504698507173083 0.7696731010673712 -0.5528190613556673
P 8.834710284559101 3.9668437944933665 1.6220988146767525 0.5305461088900799 0.18233260889606662 -0.29746275180370707
P 3.241699660129212 1.2070610424758212 1.2339893734152656 -0.6439749528358973 -1.0797442856637083 -0.7143519598975632
Ni 5.655376341950221 0.7301809014330489 10.952595675250754 1.0830849200011667 -0.5254473542109338 0.1140921885614293
Ni 2.852380207029509 3.868994294232704 7.635494832644721 -1.1848522684486562 0.4990061293002696 0.2648861034192664
Ni 4.7190461690434 5.428591914603556 10.399030106037838 0.2791459557723902 1.4717421298325233 0.14473202493447332
Ni 5.558102154066626 6.841874606561878 6.3942639466639335 0.6371504737148963 -1.1283702742015278 -0.6056999685150988
Ni 0.7586644316369494 2.2115286151374125 0.07503186904767369 -1.0842272611357262 0.30931913692166085 1.5364598817258828
Ni 9.187274700149796 7.195274153022508 8.83716371347033 0.522824571876106 -0.3716557901773535 -0.10826941123206515
Ni 2.7255423863502295 0.846561955697559 4.097959341073088 1.5021677933122324 0.2770574486744777 -0.8242851319852965
Ni 4.041597286584396 8.56080591768435 2.516454382137476 0.42888726099599683 0.9922627577112719 -0.3179459593587234
Ni 5.484601358280498 1.488639334122081 8.73610638274593 0.24415658418139885 -2.68343568684374 -0.9995970865891559
Ni 4.941571428953401 3.6210624974129173 8.719958663414152 0.021593409900059587 1.5372142433934042 0.2815918462097215
Ni 7.151819510090247 5.41817133719315 1.4271013240861719 -1.6049584408179132 -0.6772069754161499 -0.33054205085617905
Ni 7.2969466968210925 8.107598953034655 12.334906147012772 0.2748822954000298 -0.5184614098114039 0.04497553626942577
Ni 0.5210112399796794 0.2350828444242493 8.872542640890323 0.4586966310479455 0.9898407785333405 0.38972961695992875
Ni 4.2752483455283015 8.225343126463537 9.738540875700826 1.0453879196710254 0.051797187176949505 -0.02981605492016801
Ni 6.191279821187212 4.087390295952472 3.0028067630916833 -2.8010654562447823 -0.5714022236744932 1.5647057639454536
Ni 2.4216753797086055 6.868515281312789 9.977160035397652 -0.9510549160143942 -0.720143626878676 -0.20372110187417172
Ni 2.657117330406927 4.275563839412499 10.272359311532545 -0.39544235107398995 -1.4100423388298813 -0.5578013450616071
Ni 4.049614542935767 6.281576026690912 8.111307862020354 -0.05016813621395876 -0.47405048779619646 0.5306389257142022
Ni 9.118348565684533 6.439016754137347 2.222193236346477 -0.4330570761029703 0.9703078507067353 -1.005877777391545
Ni 2.621949041550795 4.067829675132228 5.194741352174054 -1.3209806108745186 -0.39325202829089045 0.38472907842154386
Ni 1.4201678820193375 0.22255959306798656 12.747880218041775 0.20484724505881496 -0.6824864786475342 0.5155668618724283
Ni 1.531388755430841 8.052368964836319 1.909311455925504 -0.5363575733655344 1.3904366487838118 0.13844670614639382
Ni 7.590086911400002 4.039871349453198 5.797714191575486 0.36248389387009833 -0.09341100606299396 0.9965860676769741
Ni 1.4103133377541102 4.767261057934287 0.6418286950099195 -1.2834910985694927 -0.6045059482069977 -0.2015834867058786
P 4.576814102661661 3.3134281226246998 11.147362112967318 0.5257314611102558 -0.34914629622092774 -0.04405610977894993
P 8.41029677645837 6.478212229632941 11.210024765908074 -0.3313997708707841 -0.7346271652068316 -0.6994138505304922
P 4.787833115030342 8.791747440916913 7.311259912008582 -0.46730057066687264 0.004307883346734516 0.992671048893284
P 1.7008182504767815 6.788880913248587 13.344362234737439 0.33075570952888195 1.349910149424675 1.264448994336377
P 5.720999069863301 0.29814079264343946 3.838967627765802 -0.7477274500342155 -2.6961914438475114 -0.8089389885465293
P 0.24424423006743112 0.1949826438195595 3.0751810601265874 1.5432133983996326 -0.60479468309201 1.1977692336206405
P 6.230855745190221 5.663189455200054 4.542346395813086 1.0216761778763825 0.36173955950490605 0.4132755226006689
P 1.1718463574602485 3.114100942435103 11.87323095534194 2.1480736446222553 0.5724862007672914 0.048222582451813725
Ni 8.591501616770389 6.1042406260762565 13.355810951041052 1.100906007342988 0.9352660286112539 -0.24409153527141833
Ni 0.7072593428229125 5.428888850023976 5.819620602217058 1.0244041183305068 -1.1035624711292285 0.4601858139989623
Ni 8.201653247453061 4.6658483326285705 3.713709132353888 1.7017262791682821 0.5821314371665394 -0.3913301286778293
Ni 2.968240696385093 6.322219062361058 1.5981955133328483 -0.18712925895376156 -0.8114877231103123 -0.41071238985918296
Ni 7.1393203847368945 8.014175646384645 7.777457801301702 -0.8530449777268083 1.7710103102760855 -0.8325831103280307
Ni 3.2465898153342727 4.092967114317258 2.7823990238985616 2.881125494922167 -0.4671478471390923 -1.0886981524228863
Ni 8.029690522101651 0.767877780978705 7.426658295616136 -0.16887802605305754 1.7396593067686295 -0.6439839516969619
Ni -0.004699003028164971 3.2803476609434044 10.19637260952358 0.7942885856232063 -0.8901179713197057 -2.1005367753835564
Ni 6.919866550581874 2.8434164690255446 11.088161541444038 -1.1316175774942316 -1.3267429672795925 0.6716096838340304
Ni 1.3240164811942086 4.95106408317499 3.1137919440132276 -1.4666184354527128 0.21910864007383557 1.6465496339961383
Ni 3.053962240567929 3.1039773004451194 0.06282782326836372 0.29528965541178825 -0.9260157136575794 0.13136768781242536
Ni 0.0825257767205529 2.82461674522013 6.986875595739044 0.7595326701992597 -0.2563197019064941 1.1739847296065329
Ni 2.349418000995492 8.102114926988751 7.638890103592598 0.4968841978612605 -1.3552482738081368 0.37067465721100673
Ni 6.886266451914842 2.858996299365768 1.3025137171397718 1.5332136068744433 -0.6281505842091311 -1.3024411573094343
Ni 8.583066794984049 4.015847418094747 12.211019122073926 -1.197566373581215 0.9915379637301053 1.6713728636874057
Ni 5.513404094061351 9.211744034638878 13.323610160542755 -0.7478146104313831 -0.10188021987626969 -0.8640037907311572
Ni 8.006594513932018 1.4567187764268055 3.7194947334361568 -1.2933294248161533 0.8000285734307769 -0.5461470486521304
Ni 0.2352721407547678 8.397092429481518 10.954986005385145 0.9735055317084267 -2.187058767636201 -0.31527535450509575
Ni 5.3921616502106335 2.307271729759463 13.03892332621396 0.27211990216354426 0.4566760010734909 0.1938210691516404
Ni 6.911218306462109 7.583851267571157 3.6330512650124223 -0.5674841195670097 -0.6827605582445274 -1.4927781245672163
Ni 3.11588255495763 0.9105886557258731 9.138799064842852 -0.5429326554798907 0.4062841788845003 0.17416292860108068
Ni 6.33528422085959 0.3395929773342344 1.8431310461759476 1.4512787197718489 -0.7142159485403312 -0.01860578802664538
Ni 3.0705535071839614 6.179829249037221 5.81364570480427 0.3188180775510316 0.3353862663223579 0.6815374844707036
Ni 4.007514667859178 2.037478062611168 6.603155231160657 0.9693002353778275 -0.26209851337180023 0.051789216757149516
P 0.2629066212409015 8.64998861536147 6.595305000983274 -0.9653332803102794 -0.6520721280217351 0.2670106059614369
P 0.40504867907332537 3.417364799003997 4.9745507470071155 -0.01703587243636421 0.14560080069267184 -1.2303145145465133
P 7.3347131706059105 7.548441718685933 1.2366005492685945 0.17704230703140478 0.514260741466495 -0.40535549642264385
P 1.7908175205600596 5.876964399439518 8.088641482287143 -0.22816637940072965 -0.22540192928171504 -0.34894883549814093
P 3.8458054937441886 2.6893348235226235 4.397666468059249 0.7667569558618408 -0.6671290223548575 -0.6868948921278751
P 5.092711557947775 7.164587733168357 11.983902498225664 0.14742217017212672 0.17139616448922093 -0.8693969367222706
P 4.399200325090362 4.657552699320554 0.8294491962494116 0.9938568416712692 0.29861152069616964 1.4108054422481509
P 2.7845026257676073 7.154770305830682 3.6896573632997733 1.392506643938963 -2.5596144439200046 -2.699357500280319
