# total energy = -381178.67264173913 ev
CRYSTAL
PRIMVEC
9.16699303573439 0.00000000000000 0.00000000000000
0.00000000000000 9.16699303573439 0.00000000000000
0.00000000000000 0.00000000000000 13.41682092165434
PRIMCOORD
 96 1
Ni 1.7092591571310778 5.9117112009214825 7.33714925831017 -0.08146540366534356 0.5295773172189073 -0.25776774720693024
Ni 0.31415651255802857 4.523810145949535 10.806497631354336 -0.2605147138244481 1.0552990081371503 -1.2828904888710166
Ni 4.489323918760961 5.524689928812391 2.7738467903640647 0.8660416470967923 0.3787224672161477 0.08311913721868265
Ni 6.334465411249888 6.575456486890617 7.6718994203576 -2.058633964502184 0.18755066276189636 0.2434346184137098
Ni 8.584989662572712 7.969334421215821 3.0953277302276945 -0.3762909749565197 -0.23847727440843444 0.0690253781297779
Ni 0.8009430848042728 3.582103302082491 3.9572239840437335 0.4151454859298721 -0.5783290327013136 -1.3567066035212183
Ni 6.6173954792850145 0.4848578369457456 3.823150296379745 0.33398398665819257 1.1943139280821882 0.3981448376068175
Ni 7.555261353138234 6.8129091032823315 5.398660277394542 -0.3491560664129406 0.522928444443822 -0.5281177019542453
Ni 5.719864374073404 7.760381985666551 3.0826754466642523 1.0137052438557639 -2.4753030861654337 -1.5653354271096525
Ni 5.618257425068046 3.2187695395574702 3.3718216525666223 -1.0891943753330144 0.5920057588574579 0.2747624819927139
Ni 7.747429024736872 5.987329725131623 10.065217919664585 -0.3214984525966721 0.9032989887863541 -0.9666985360889222
Ni 3.1540414028805643 5.869368860840669 0.5460658483593841 -0.4204172758517727 0.5125946666179817 1.217893000953709
Ni 1.2428792277196248 9.049178680687497 10.814963349272636 1.499756098546946 0.6637361946232246 -0.8094976892634768
Ni 1.3948221345911325 9.304956115832523 1.7049158359078065 -0.3985582709951523 -0.5387415002166787 0.2533418502250927
Ni 8.521975753563074 4.594689334844286 5.405530021853637 0.6822177983671799 0.7275514893069729 0.6091617018114541
Ni 3.334594494508994 5.4051065067829 5.070833945064158 0.5591298340650435 -0.6425361635068418 0.016805501593112993
Ni 1.1869880721723798 5.633932982881035 12.712692213077347 -2.858959243237773 0.9390033841664989 2.088854968170254
Ni 7.694718815716589 3.3607112572044344 2.8173845063155305 1.7915436543427468 0.03335080754630385 -0.1759015085587422
Ni 9.107049906695329 1.326473035729355 3.2342315064365152 -0.16744720714380196 -0.13866473569447085 0.7799837389647599
Ni 8.267133351691104 8.66499000937619 10.136461954875685 -2.389020720727421 -0.3342953472510242 -0.8427063148049616
Ni 7.526797840267282 5.110186012069769 12.196198167027271 0.38223793656857397 0.6452491915626306 -0.5400728174335925
Ni 2.812653421293727 1.2917759677047 0.16498387093276923 0.45726375525616086 0.6611486364017064 -0.36721292391465143
Ni 5.905211802974461 8.697899513790592 6.387734806835429 -0.578307692545075 -0.0933528991315489 -0.47749602314263573
Ni 5.400330503496019 9.059005697047452 10.461913119352651 -0.7984576293992313 -0.4979622614167875 1.1590985565233198
P 2.373224450929166 5.662066484008556 9.531068245340935 -0.770256484374667 0.5357417941584064 -1.0158986519626567
Ni 7.61172086224361 2.545719755822147 4.914662304380292 0.2284826250895678 -1.9994589968039245 0.5315172145540975
P 8.711512498207135 8.610776413524722 0.398607434401393 0.3799563396232489 1.1922945836593142 0.44561254417047774
Ni 0.977852296765648 6.743707474083357 1.588095345530265 0.14275458949312833 0.9597645279732502 -0.20363754102142995
P 5.639387343640524 2.5490932091994454 1.226351139569439 0.04485340886926469 -1.0906683887753796 -0.7675429420982458
P 3.4205258857013625 0.60326146699247 11.503944449922107 -1.386022835986832 -1.0549796771245188 0.7926451364825123
P 0.0146901060791307 5.4874811047405085 3.2382035644484266 -0.96125551069648 0.9202376735232215 0.06666510542771746
Ni 7.935874897229034 1.860542040515723 0.9702776105546117 -0.41428802302558326 -0.2381142346420609 -0.4050557057940379
Ni 7.6000421133232905 6.821718583433373 0.5641990769616483 0.5636297788179261 -0.9454905345527393 0.3491671221565341
Ni 3.155700628590594 7.518584214652991 6.206446522378577 0.1351675211744898 0.6834408721410036 -0.0399207474543377
Ni 4.230713882818149 7.677714043937003 12.563578240206475 -0.35706143730294637 0.292078090453026 -0.07032095701274986
Ni 4.503367751842539 1.3236679359101886 2.686115001771421 -0.24965617384338937 -1.1482670131254549 -0.04659610259198427
Ni 1.6138674292936772 8.928761062306553 7.84308384526973 -0.7444971160223758 -0.007496565487361283 -1.2757286810152546
Ni 3.0770478297394606 7.503101163690337 10.346796772950217 -0.5278935017585813 0.2401775449289928 0.731830576298301
Ni 6.3397089311732975 7.322071388432507 11.912406401662073 1.7492052985858522 -0.5836974961020786 -0.10529824441888316
Ni 3.5551981779999644 3.4170332614167145 1.8165038067533867 1.0154602788736575 -0.8985691874108525 -0.7214713445511639
Ni 4.056330177393312 3.6332184543428543 6.774246394140777 -0.03308495547942689 -1.2069146475653343 -1.170477487784223
Ni 8.068713790953016 3.598869732047377 8.63973494401082 -1.1313905490850902 0.16490490033792246 1.4469009024191275
Ni 2.2909048549287956 5.012484202028349 2.7425460931988908 -1.724719911849978 0.4806600226929142 0.45947104732012484
Ni 6.780833795219381 4.299979680967236 0.8002372263530446 -1.0581822432222163 0.1868945172351362 0.4095901033292817
Ni 1.0188562558869907 2.707471345067864 1.4775542452707922 0.6726316973406417 -0.9133126642686141 0.37988949094105545
Ni 5.336372394220453 1.7549107816390783 5.4692598730066635 0.21187304155734477 0.5338504906729645 -0.06966018350029939
Ni 6.25120161498359 4.720506312027481 5.13230963266969 -1.3991380332125516 -0.19542235220048926 -0.18493070864054603
Ni 2.7504645416426676 4.949442792040092 11.499288534241863 2.7043960911454907 -1.0083113265337023 -1.1103244724434103
Ni 7.952027138671422 8.266519163168606 7.753486573627411 1.0045022372002572 0.3118755847949274 0.36340332036057416
Ni 6.942392877614763 1.8001682254535358 9.956568886734118 -0.9080871542036166 0.3303715867165859 0.2020912795802326
Ni 4.289089293434002 8.198720083879214 8.426487772300506 0.263177862478908 -0.08247559009741279 -1.8628884246343205
Ni 9.047702794834928 1.3590433614074526 9.081939679817355 2.3516062846347046 0.12559993209071274 -0.9919529397803369
Ni 1.8134145301551545 2.7302696563432454 10.61929296969719 0.2531618730038027 -1.6012357405506874 0.6317143903009894
Ni 6.69080475821274 9.032815598409027 1.4897362620998449 0.20927699869539443 0.12707214576086504 -1.2403238191533994
Ni 0.8827676631894962 1.9103829807667267 5.56882624939847 -0.5306103864691121 -2.3680644301907283 -0.10002722582793094
Ni 8.287089895175825 9.192293773422216 5.365239254777821 -0.42416208760618557 0.3693561955098994 0.4939004326425881
P 0.32807292443867025 7.518895892410676 6.436290534685625 0.09971509390415084 0.5351522402035236 1.2167491171572529
Ni 6.934885110451701 5.74712701087798 2.881302280822455 0.9023985884592717 -0.3747166884908643 0.07649289015141665
P 5.2957351148140335 4.263632554225424 10.926310228205654 0.5287134265567153 0.3281370409591123 -0.6248978815997882
Ni 6.607339288103233 2.8372667971579806 12.246391119804603 0.9769328122224206 -0.4113978459619818 -0.30016678099843147
P 5.177590910665618 6.482420676221602 5.74179548782299 -0.4771862052117008 1.2412252479217463 0.4831496218839873
P 8.747978795856296 2.3113930840001573 10.997888858656623 -0.2611436056576987 -0.665024574417345 -1.32725384547774
P 6.230181700325589 0.17726489128485123 8.585665269947459 -0.161246991870361 -0.7702150896137703 -0.8699769775954566
Ni 2.0170409428451577 8.133496929587162 13.09869411557895 -0.6153261787509532 -0.36557667386280907 -0.4719907770536903
Ni 3.799571874010864 8.467202971146346 1.485577197433323 0.20870210002853087 -0.5752737908147577 -0.10699877204975765
Ni 2.7595490315799025 7.335015182369314 3.5063921912443328 -0.7433457760267521 -0.8970910602034291 -1.2925843191200126
Ni 8.992820008503724 7.4980043156528975 11.87275915748595 -0.18136895943121667 -1.2296570834681726 1.253667330339841
Ni 4.05347924260978 5.6512861003897985 7.680043376826055 -0.21237877754916973 2.200058779440295 0.06432822976442469
Ni 4.349389772553204 3.144681903157137 12.64201286462723 -1.8693843167713096 -0.29955383000478086 2.2258351170734505
Ni 3.336482895040851 3.8260828173998473 9.109524994771064 1.2025694832227611 -0.7759941581893925 0.14026730429490036
Ni 8.360159995367246 5.7287471901674305 7.572333043965794 1.6103960668937167 -0.32905980988369776 0.11163267127734322
Ni 5.7630134095270495 4.434780311166061 8.729412885190422 0.5872109085719758 -0.8068962470848877 0.523898264556259
Ni 3.373939227920307 2.9679422805639137 4.416146564752926 -0.7851719680339188 -0.4250095232081455 -0.38822475027962816
Ni 4.549486892987067 2.1681863213367065 10.600791227981427 0.607665833992218 0.9136710760492974 -1.0990015912314235
Ni 1.0504548803205405 3.9724796935831344 8.573965436943531 0.7388239768969985 -0.24024645049371526 -0.36611480575446625
Ni 5.064195208825463 2.0257495860745958 8.167247963947313 -0.20789785895968066 -0.45252675479180776 -0.1009206841764778
Ni 3.0634806802872836 0.7859898860296843 9.277248879873602 -0.17013863793303602 1.3905934860766502 0.17357491730809463
Ni 0.8166094756243878 7.222682851702438 9.134090702272378 -0.8924615318512178 -0.8425890725008071 1.0873231264522305
Ni 5.1671130378116725 0.7494236681582057 12.937504462996353 -1.685917851381116 0.8379993962475956 1.1937086903980216
Ni 0.5759163272520351 1.0861328165826165 12.656811141222262 -0.49262799368806764 -1.119269340341524 0.8611146421088202
Ni 1.575466896148293 3.8853474263243903 6.166438098683253 1.3545808154274672 1.0203129789802687 0.7675434563188782
Ni 7.354174197474077 1.4952740424944801 7.303781404252113 0.38058883100092517 -0.2171592296569486 -0.8260926175076805
Ni 1.0142177574932059 6.295184846788687 4.890538445935461 1.0414890988372514 -0.4918553771881013 -0.13605583731671406
Ni 5.246600033014258 6.677640956446979 9.91666771685541 0.5837538032613109 -1.6880143288988285 0.1513878396880941
Ni 5.0067089965183005 5.351937948118963 12.81129238842033 1.0410730943457556 0.4923464578919069 -1.3090319231530745
Ni 8.974284348914331 4.679374015005915 1.3719367368834572 0.4877310706070826 0.28559145428741783 -1.7377782876958328
Ni 4.315297726058174 8.60004186487033 4.321839292172412 -0.8499120885247815 2.658857997504376 2.6733073401604863
Ni -0.034968411013698575 3.2614143904030963 12.695706691982794 0.27705693445384544 2.105784654046057 2.6296790619475745
P 5.526899174094807 6.62150229209216 1.0335115273932036 -0.9689670204081249 0.8027225753231724 1.2349841521080407
Ni 3.280518403550621 0.9307247864050795 6.256128873652877 -0.6860389718854829 0.16483933720730967 0.643238588890505
P 7.136054769051714 3.5417593664480105 6.79148767433649 -0.9875560962642218 0.9454511966743716 -0.1283409851709596
Ni 7.10998384132064 0.36183679258884444 12.14885064883775 3.1495124124058402 0.1254217546416356 0.2032891565430757
P 2.4443603156243636 0.9736446470368986 3.4722194752120186 0.007708938608483497 0.23758278761862311 0.5194579693967184
P 1.610255634101679 2.018067646046944 7.667659686153796 0.6408238088014254 -0.16996560269028146 -0.27044662822617943
P 2.2832320818940173 3.7833829645969823 0.10190029277729601 -0.12977823183811843 0.2402582775682572 -0.597240524893836
Ni 1.3019696637795788 8.736611724693661 4.778360120748855 0.7874695058188438 0.5005752735596024 -0.2270770029912928
