# total energy = -381177.04431797087 ev
CRYSTAL
PRIMVEC
9.16762194533843 0.00000000000000 0.00000000000000

0.00000000000000 9.16762194533843 0.00000000000000

0.00000000000000 0.00000000000000 13.41774139443015

PRIMCOORD
 96 1
Ni 6.341051662154106 6.771526523828536 0.4063190942959065 0.30740700750061256 -0.40730182151573724 0.8680944158607631
Ni 9.161268902702313 4.8102421297749345 11.83309259517433 -0.34705161847542815 -0.16499848849299326 -0.15716767959466482
Ni 7.31420391195397 8.5517687173466 3.7890093692940554 -0.2739083615225347 1.0490054618189546 -2.2462064816409506
Ni 2.54765466893984 8.014096850868544 12.621761119115535 -0.5819494030627204 0.3912270274410617 0.1096925168318369
Ni 4.02152410067458 6.902055126787062 5.539500795687453 0.49168954103419843 -0.22909480475227 -0.6900745754074373
Ni 7.54008495200841 6.557425878127354 11.620153487188759 -1.8540800823140713 0.6802712161637704 -0.9135566619586202
Ni 4.486313371737531 1.5964222034968958 1.1837664488298043 0.262511946760135 1.2234920923080415 0.7862214923443556
Ni 5.624546992058128 2.055500046013481 12.533927965637165 0.7443058259471762 0.009165211439035828 -0.6683721507333392
Ni 1.52065180713138 7.290120568789758 1.4806883090265335 -0.14144795486656284 0.004388358875682765 0.011228521725967758
Ni 8.117406783916698 6.637624235950167 2.8082397423205547 0.3073321883986191 0.5983844086902921 -1.3736118639169892
Ni 3.6216415938303648 2.8093352731572976 8.132251914326217 0.41990176966793485 0.7118541331763741 -0.8954537817103224
Ni 0.8051207384986826 7.102486847989636 10.406934218951394 0.1957131439680307 0.39057396723809507 1.565400218909317
Ni 4.820913241858354 2.2338286304178383 5.68584813051878 -0.20806292378263522 -1.1076312418819634 -0.3968749697554584
Ni 1.669955700078602 6.743519438420592 6.0099272375580455 -1.155369428498191 1.0708392698645945 0.19813023804995555
Ni 2.39625139053978 8.282754015477309 4.038632716971897 0.7745656532729822 1.1551156606161719 0.5395817367297868
Ni 5.7314598005777455 6.191591919631781 2.5353489698422678 -0.25042827612272356 -0.2090283730196981 1.2334682296841468
Ni 4.3561331384174675 8.611853312359255 0.37237138978997725 1.533920917354113 -1.0198249836002566 1.0963219875167314
Ni 3.682276246166907 0.5304294450468706 9.191783332744977 0.4745410542793699 0.4739728404807257 0.08573369202339429
Ni 1.386896201206047 4.643519754904605 0.6080462004962359 0.565717257474574 0.8371036239062034 -0.4735015572712619
Ni 3.1322280899013792 4.168059371758234 2.061528674283289 0.061568921851732676 -0.7366426529749637 -0.11672371264700541
Ni 7.414268506791188 1.4063865657157972 0.8181396785928954 -0.7081846547445868 1.3592157430963172 1.517543247327038
Ni 6.072541179498377 5.727288532538265 10.05149817740171 -0.8240192799184196 0.40643921640512587 0.46012770706751727
Ni 5.970166343900831 2.44058601084512 7.7963786615005946 0.3990537225743321 -0.8457774975311178 -0.18590130008393144
Ni 1.5356958749397056 8.653941865258721 8.563631620298443 -0.42400293632050207 -1.2058473826430844 -1.5223154719047007
P 1.1064769774881522 6.761515480533781 3.6256615961057768 -0.43630437939567446 -0.8548619763308891 0.16667587619541618
Ni 8.950395259967939 0.5514077146177369 9.480747696989466 -1.0459345362031147 -0.08429773090781612 0.7236503544803536
P 4.300549845838627 0.6492821645436757 7.0958788260053325 1.0877980092061204 -0.18993201850987934 0.5137614332325732
Ni 7.230118482375686 1.266580329227701 5.434695623480531 0.42626216466832395 0.5517101445622047 0.09528714003978428
P 0.34600805901825143 2.9395521769656203 10.43285750386401 0.3095268820570927 0.22825713934232303 -1.1838796201227417
P 3.155752208119638 1.2195779309015062 4.513808903834259 0.8142552585531203 -1.0592160838033695 -0.8134116796059023
P 4.146928002898886 4.7291270097456435 11.020715683811364 -0.2164192661671305 0.2919816740844778 0.4528874805653362
Ni 6.947077318747261 -0.15855677389721806 7.849230919466334 0.2500878620641693 1.2146783506711532 -1.008743014754482
Ni 4.642602992698126 4.541639970898558 6.431847791083817 -0.7551435399926285 0.5910292538768016 -0.4787172971442465
Ni 6.942539345825188 8.734332743144892 12.918601387475888 -1.1136995595632302 0.5895215589830234 -3.2734200443957944
Ni 3.7470913341649954 3.6377216029320123 13.081855650919106 -0.11926961899731073 0.8001828396204541 -0.5662677306614053
Ni 6.929860524509579 3.5153430159890875 10.785127048752514 1.0309563176267276 0.7547205935225969 1.010322186316144
Ni 1.9764659761928987 2.6552183786260586 3.578780210390837 -0.44934604307098097 0.17524279192882075 -0.6892492512926646
Ni 7.760767950352112 4.349724970594177 2.9207869713611947 -2.112351765740614 -1.708842064277457 -0.09171382086622915
Ni 6.969858859578272 7.544916288836555 5.800140874800556 1.5985211698330017 -0.685639165343903 -0.013904011675601862
Ni 4.556445680533199 3.6613832354812437 3.8913062801040508 -0.6201883919392609 1.2197580791869058 -0.33107632609309434
Ni 3.8097245281116625 6.315529002325722 0.6930841460070511 0.042566926827933144 -0.8636975723446482 0.46104327690325114
Ni 5.5243632181340665 8.215463669521727 9.58250830190867 0.6490428542771081 -1.139211844901722 -0.07940954957757937
Ni 3.4771231996009644 7.6505456302671035 7.8064153741371305 0.37317556925598955 -0.6261687778924119 0.01229835775137882
Ni 8.268544201276878 1.718342409336581 12.077255707150382 0.005602948009074221 0.04693805931243529 -0.622082266527864
Ni -0.11962830032348665 3.3175974080514976 4.888660135392763 0.6141943791393552 -0.467073285147415 -0.2518377548757405
Ni 1.7052052069177321 1.8497511040133268 8.740115679143363 -1.5325446058318768 0.4586552362870488 0.529886878039526
Ni 6.735378590027056 1.3003905194026582 10.11372982950194 -0.15174445169656445 -1.6646345165223073 0.04810174060323329
Ni 6.424577866786437 4.848810315801519 7.921646882918343 0.3252216670845302 -1.5842746872163167 0.3247449845584278
Ni 4.939652282841556 2.756859804458421 10.068780978518257 -0.8679239517211699 0.49113572541325734 0.0022954809023960467
Ni 6.6343697301171645 3.8458082885586884 5.104216599477833 -0.3931694958794132 0.5158643385081889 -0.6331786335513419
Ni 0.12614831313596758 8.837771022901954 5.036697979732836 -0.04906436162681873 -0.50291780564985 1.4124563475880128
Ni 2.359406717461376 0.009747932541494626 6.324600364358834 -0.40683619473322835 -0.04822823887876856 -0.29603938909361915
Ni 5.372098183259917 8.940485060515897 5.018369152938696 -1.849464695029247 1.4169105267046243 1.144134993234952
Ni 2.281142727894236 2.369601113197426 6.079739596343653 0.1087358093455224 1.7050432593566571 0.21809176877354697
Ni 2.4688406220488126 0.5581871711346514 2.138747554935042 1.5986702938163564 0.6817490862608775 -0.907869638876172
Ni 1.9428758089474962 0.13756108584442867 10.708954193778354 -0.8447002053065388 0.022138740880568324 1.2267440235864355
P 2.578384538101027 5.085490814648286 7.1298393651821526 0.4105234137768285 -0.49004326368002704 0.16626167147613302
Ni 5.954508045414164 4.789669985861539 12.560710256737252 -1.0577256153007717 0.7652690584624046 -0.7475934955595125
P 8.211677441608966 2.0848272689987546 3.1280650727217565 -0.13805332736271705 -0.0488563593810707 0.6528036068711208
Ni 4.883793961600771 6.9424751724707345 12.039390677736167 -0.07416732734203355 0.1157361519227555 -0.8890242240348946
P 8.602208973947093 8.737477237513117 11.464373586014966 0.6451031529030696 -0.4696803837529589 -0.5193116736268412
P 7.19761009453393 3.569010275556387 13.610420401637997 1.2789255906859975 -1.1255531164677066 0.8315251013771614
P 2.332802278229346 2.323451303723257 0.6210898931700236 0.18962348613052504 -0.24723445177577422 1.902190307557737
Ni 0.1605956530444281 2.632583519748084 1.2350134561719983 0.33678726043494256 0.9009310027748096 0.8166944641222321
Ni 8.383946227828496 8.371771625726451 1.230527738695695 0.3665547215053623 -1.2836499927448604 -0.1361702514073913
Ni 9.409647287303756 1.5929018366240153 6.756329356731728 -1.1994152538644958 -1.0190333409368966 0.49973657970839097
Ni 0.1776135098833037 6.943126073637336 12.660148702987446 2.232314039929575 1.8801256144482137 2.609005849868939
Ni 1.989483999524905 4.642868853738005 10.061709074857475 -0.4782496134792086 -0.16283387674150665 -0.11374971762034602
Ni 0.3646623363956926 0.34179186963065306 2.745149084032854 -0.7449138918448204 0.7261474098705946 1.0197007993175666
Ni 0.6982950223886797 3.84726594046699 7.6132269911279495 1.380853890191383 0.2529559276405837 0.09474926525844327
Ni 3.4157643051213036 7.1723166252571655 10.1912044868093 -1.2430342761060271 -0.1348633596705097 -0.17110691538357628
Ni 2.3655673594889173 5.9585784696109325 12.14934897030571 -0.00455702324306312 -2.587965998479504 -0.5692070157953873
Ni 0.7382576037313198 4.680144405053454 3.0992301510413625 1.814733719305965 0.5154856150125317 -1.5027180093887476
Ni 8.358111868849909 5.423409363956564 0.8013904330805183 -0.44708295806841714 -0.8118008834753568 -0.30140708116343573
Ni 1.128515940931915 6.248541187898277 8.40345126053355 1.381933496408807 -0.2387438978062598 -0.8972358133114096
Ni 8.298494822562558 5.032529461979976 9.58953895127016 1.1559744090720414 0.05610789873716144 0.008476927122759595
Ni 8.112813805262236 2.752303496292219 8.891682141216178 -0.04459835543566513 -0.3339783302312377 -1.0973159759988844
Ni 1.202471148128602 2.9468954422395197 12.299400024451213 0.07124629704049665 -0.29028885976308716 2.0591399576043248
Ni 4.158515877188785 5.170969722780418 8.860929352999827 -0.9530539487222941 0.12184714991649985 -1.161490196683948
Ni 3.308603970805936 6.271075202933539 3.085825254058222 -0.1940676379448077 -0.24242597464353735 0.06752385388358693
Ni 4.581060745777169 8.333276780676384 2.9070208700687012 0.373754324577595 0.4431519984451271 -0.5117405461478026
Ni 2.7508641796280466 2.4004226585792607 10.862802476983095 0.9342774394457393 0.5782971510221138 -1.9980677728833527
Ni 5.575866918894075 3.933423252631917 1.6984715885111417 0.016289224078326787 -0.18254061114181463 -0.879431181029821
Ni 7.866754829043187 7.349700944588849 9.21814941380332 -0.1924452718500363 0.023835154746384757 0.007069505252271695
Ni 8.424320435401844 5.678993499500933 7.288476814153541 -0.7015190697989532 1.2044371325591194 -1.678242337113729
Ni 0.9515900027034708 0.5984183638037901 0.07364167452207093 -0.015986862346559563 -0.6369103326796322 -0.3154481326375342
Ni 2.435085437606244 4.817484551206121 4.848097991567085 0.3493985214410499 -0.9349394985097703 0.31663598229804824
Ni 8.676640897491149 5.909183321925827 4.8169555794129835 -0.18810113594872765 -0.5928624504307983 1.568513310617002
P 7.867653256005536 3.351215078163095 6.71031981187515 0.22722252743022156 -0.43223175198819747 1.5435890365714966
Ni 5.980397410125141 1.779829650525149 3.248301186388139 0.6701996908603812 -0.4346383045471612 -0.25867740350539326
P 8.94408793598736 7.992332916086724 7.246090313536969 0.07545596424647005 0.1019522107647857 -0.3110656872991223
Ni 3.374785034491678 0.9672941393004616 12.459835244109506 -0.13373258850017614 0.6478282651437165 0.343412479060944
P 5.818873076965549 5.907441473733516 4.719610101280183 -0.15635649654727912 -0.2370711380895272 0.15977143576609903
P 6.284313249195101 8.916685913635694 1.5874397673978116 -1.3492653167518247 -0.4364370483187967 1.364881683132843
P 4.953367045450486 0.4080435240062941 11.052327478215185 -0.16185274377515996 0.6848164123322916 0.8977122387271959
Ni 5.654442607611418 6.945527990618311 7.442579957251683 -0.47322902033616565 -0.3557635444271292 1.1962440552253655
