# total energy = -381166.98198237503 ev
CRYSTAL
PRIMVEC
9.25874332865218 0.00000000000000 0.00000000000000
0.00000000000000 9.25874332865218 0.00000000000000
0.00000000000000 0.00000000000000 13.55110674959893
PRIMCOORD
 96 1
Ni 6.29300109906655 6.477046396495707 3.9737127765672287 0.8486558475201772 -1.1091651620279868 0.4040097810280267
Ni 1.0542375362950815 0.943928869750611 12.433669022055417 -0.4933967535332922 0.10855480368296788 2.452881523937124
Ni 7.849942097677564 0.16294276991630263 12.555018739871858 1.2348645958110411 0.5592457908176175 1.3562152657070965
Ni 5.614474103287505 2.8514058861032456 10.982033265160887 1.9492111563919656 -1.9340380481959527 -0.8679424636639309
Ni 6.395634267494069 4.956945937097421 12.095135113130448 -1.4558989921526797 1.7902455043566137 0.30077741799923685
Ni 4.875570843068602 3.2992327774430943 0.43475354593437654 2.716357634382741 -0.5154419062587897 -0.32525174899151726
Ni 2.3601369716454976 4.28084473203809 5.187200695988456 -1.143868626947443 -1.4011108406682065 0.18877399364603617
Ni 4.403013848628175 7.410892494896065 5.200643465247808 -0.8509677834828056 0.2324588361284964 2.494342105074756
Ni 5.976731689926666 7.579225705106324 11.272989270378277 -0.18549660844634505 0.6835005217343455 0.03977470879477666
Ni 5.30021384142311 8.363367184624899 3.410705268008434 0.25341564088582164 1.3036089523652905 -3.701802854951547
Ni 7.857071329945422 8.502192780240795 7.480942294236518 -0.7109421628850658 1.2060037057152908 -0.6410145846559928
Ni 3.0121191506557823 2.1863225854578743 0.3106484261401229 -2.788679938096236 -0.02891256926929214 -0.10357303419766034
Ni 0.6693904679843417 7.705246458869692 7.006504849051154 0.11247804999677402 -0.8463559957424068 -0.900065826561037
Ni 4.262021707102307 0.7989017679359997 4.452595344365316 -0.1882507741527145 1.4983880145548258 2.2245757907450527
Ni 4.2939551124163815 1.7755399256812645 8.488277815077987 0.9782420179521476 0.8396451593811346 1.8223552404069647
Ni 7.725439777799816 3.497814301704115 2.810459094279096 -0.8546048660147604 0.6121938037695586 0.9221207494785474
Ni 8.88213456640152 2.6583055378195897 11.527533416193329 -0.18839912680512072 -0.4154679022662974 -1.0012474777083853
Ni 4.1588422728256935 4.722662699037887 6.76475350872246 -0.9775439634438583 -1.7344561653011357 -1.352342927235884
Ni 0.7883903167753537 6.790241902891529 0.9194830100664272 0.16072017283261353 0.2197881826393634 -1.5384512011242988
Ni 8.992924687592652 3.850553900328527 5.187796959050859 0.23477385741491827 1.7966768618042541 -0.6518600120109289
Ni 4.195951315591367 9.187997148178976 7.1684134173514575 0.7428986611870044 0.5082204488096861 -1.4351039097841993
Ni 1.713719297301423 5.634241520030199 11.170258885147105 0.5270761480636085 0.3573684270204039 -0.3522989829172965
Ni 7.976120250075421 3.9101431715959616 7.36037864371818 0.8962994175400694 -1.4306330184970393 -0.009745509422538054
Ni 6.233513673974371 4.362182791094089 5.16352701548757 0.02212665669571028 -0.8649203890081555 -0.424496845237785
P 0.6809768592310892 5.351498020035651 6.517499697307031 -0.033604061207690515 0.2457622381056219 0.22272695355271319
Ni 7.6035854584787 2.1767027512678703 5.274456943701097 0.2389855815034207 -1.21157245805232 -0.36248672208357574
P 6.221347685402989 7.071818801242245 6.369575534743571 1.0510111793950736 0.053363760333121 0.22954449069517885
Ni 7.001387541681746 6.979370250340236 9.304013829909334 -1.2949412493879633 -0.2531171358087963 0.7622649815287581
P 1.416615486595907 3.9761117169316464 0.9930057639830787 -0.11512114404657592 0.13481425160012914 0.08145383370111778
P 4.500138064848715 3.9279940284952177 8.758649782402003 0.6010555277645518 0.2162940534431759 0.3048413036559653
P 8.017117964987198 5.948668439272286 11.066335047916807 0.6094684344185956 0.2892974423840953 -0.32539058856222675
Ni 8.673794326802422 5.867959974754227 3.4310180247259026 0.22680240917366742 -2.2368430381481796 -0.6173488656079368
Ni 3.336314043979153 8.76624287770443 12.872535301721458 0.41063654231592506 1.2701614713401221 2.380527338544429
Ni 1.2847339483837668 0.2648685703629586 10.311240097580987 0.3531669873445466 0.7810844282281064 -1.4454016921657817
Ni 8.24481823662797 6.201867289699651 7.827132257917706 1.9390295878732735 -1.3678063129788058 -1.6290147104361687
Ni 5.898013855197684 8.527728394000208 -0.12241447328501916 -1.131413946123858 -0.20353264001244947 1.6269004923066432
Ni 6.150203502615705 5.053922013426679 7.471836320294392 0.2603671325029903 1.6995614103064793 1.6674665866544636
Ni 8.302611311713633 6.910244473571643 5.311220635345224 -0.6674748357300504 -0.024731698418725148 1.6371645932368128
Ni 4.5125077457706055 7.598548702175176 8.602283497784217 -0.31729804136207934 -1.5341178638562676 1.5204532218849813
Ni 3.2126727872194705 3.537663932458472 2.4409472823388114 0.5724476342198722 -1.248141001204973 1.3292197109548594
Ni 8.27861264932625 8.673877655491266 10.079475237673213 -0.36430269224639195 0.8970679202749776 0.11593129865269712
Ni 6.509294599078752 9.204144396328509 5.182634283839746 0.6598903385145732 -0.313028467452448 0.5537767972832462
Ni 1.4551318583287423 1.7218484738354205 4.833395416021148 0.010545893836646354 0.3506390787163703 -0.053112563554263366
Ni 0.8533802129542694 7.373950109508081 9.535019472874295 -0.4699935441180034 -2.256266436980114 0.3883617900781247
Ni 6.047375900580881 9.282260412749165 8.707561889145406 0.5531833866736214 0.8575024992775296 0.8481747941187004
Ni 0.10906521733203799 4.773678374097484 12.632856068122043 -1.533805217711855 1.0668188358512916 -0.3958799528320408
Ni 2.601993861646728 0.10423678275062608 3.1973430860949374 0.054820033163673336 -1.8974427655704225 0.12008645847165125
Ni 5.998647135092921 1.837360554061106 3.2200547831768236 0.8284706308215538 0.5356564335334516 0.6578211146903703
Ni 5.347442690511857 4.877311486791143 2.134340297607675 2.3548402181909704 -0.04083348907659419 1.6430261942239124
Ni 2.546821010888083 3.315704081604804 9.529991975313976 -0.23882334489394355 0.2012739258852598 0.5404122030508821
Ni 3.2777432344642694 2.0999848050711707 6.508243731724983 1.2169429783356138 1.7454118929816906 -2.8648059318265373
Ni 7.237365129747796 4.165647449081375 9.840339492299934 -0.3564924521733538 1.900604965348488 -0.05419422665421634
Ni 7.543588802510245 2.0305812660064273 9.161564362202997 1.1389074262874255 -0.8516303567674687 -0.09060978916877298
Ni 1.0138694159212447 3.1818411723467923 7.0604518422094555 0.46362415025654996 -0.5192556235779251 0.7904604701263678
Ni 4.446104039504285 1.2855857527586276 1.680554479141083 0.5260759889338682 -1.736834435725325 0.6494344332885719
Ni 8.755289784492906 8.97482384462686 1.2562596095310836 0.526825208395067 0.2137358057976964 -1.1236666980782712
P 1.8110009121564468 9.105844319720935 0.8981906783178693 -0.33154246709623547 -0.7832402982288446 -0.20330304050014664
Ni 0.22986311405346266 4.377941172029013 9.249511312158731 0.8481465119839264 0.22237702641246218 0.4278027696825665
P 5.665221274794158 6.262354659057972 0.5524830951576615 -0.016280739437894542 0.8238675848319036 -1.1658677569263536
Ni 2.9025419248245075 7.97636097739875 11.029001943565573 -0.8534262723256271 -1.6209689573135568 -3.4389299253075674
P 6.918679188631406 0.8233485534945039 10.911757552486229 -2.56340296442816 1.3378357347586443 -1.6584682398105952
P 2.177239758373761 8.286658497171404 8.274956371634593 3.003468610638479 -0.2893964298558048 0.6088300295036482
P 6.800306156755372 1.60083670014596 0.9413327181559266 -0.5226826469816029 -0.8584185833338958 0.7382354513833801
Ni 2.965705070969075 5.737893150210269 9.061530122993124 -0.374720030924974 -0.9424028967663513 1.9730789641484987
Ni 8.434659507303463 1.3015848610168823 3.034268842025124 0.5312966139028592 0.6071966076652833 0.22084619159023255
Ni 8.432983674783356 4.938965457793294 1.1988905848842106 0.38394489195735165 -0.3724322633320618 -0.5113569375561386
Ni 3.9881388243549525 5.339924591029391 4.044043115826793 0.9284348646220334 -0.5451450897501773 -0.011393329438606185
Ni 0.7969565059886274 3.3883944745073253 3.262470011673288 -0.33620079180385326 0.9308856401553709 -0.7313916889886695
Ni 0.4776020836128351 7.956019518577347 11.938064238154762 0.3104342243627105 -1.1468688472263473 0.3719841200510497
Ni 7.471463192943229 6.959500987422288 1.788109595456384 -1.2169625187196396 0.7113604813694071 0.4602755454992912
Ni 0.7732420870176393 7.673201948637159 3.0308403294163093 0.04887332866193519 1.2704162676634057 0.03467364012278545
Ni 8.944908845331478 2.479037751884216 0.7122408574114412 0.8072924540820419 -0.2681292929469124 0.3332594497873422
Ni 7.798454226714513 7.010924047182904 13.041585138655783 0.03416404747621858 -0.8319238794774769 -0.5665418102583984
Ni 1.9124026677376995 3.504175058285956 12.337997502643743 -0.383197729378682 0.21837664700381743 0.09006805773269004
Ni 3.6910164961630265 7.462648869412062 1.3152433589929104 0.05852602126035083 0.04494134059738067 -0.006111255104060443
Ni 4.0150632495951175 6.386532922923545 12.196592421170932 0.7332986762033952 -0.3163320779043842 1.0152283653685097
Ni 5.121686754944137 5.620779307410117 10.015378810213582 0.6440533714823167 0.24622118001991147 -0.35734400154037166
Ni 6.293195532673854 2.2033957079279096 7.098923771974907 -1.2859956101589014 -0.28790493291194286 0.3384242818177333
Ni 7.097641436041014 3.1688141206573457 13.085246593987641 0.13812428980996858 -0.953799568639067 -0.0012256448769849858
Ni 1.692924160062974 6.596326785205832 4.921531244338264 -0.27355457772754177 0.2751602316517648 0.43818231314467765
Ni 3.9818613964619565 4.125677454665353 11.329633335432197 -2.2226857728111917 0.8311859728701879 1.0868089058199732
Ni 3.6638976373155567 5.002767457219008 0.73786072573402 -3.0506812637685394 2.445670350900665 -1.8025646880435988
Ni 2.92698500688573 6.516507160035453 7.0586769411370565 -1.3931468486261231 1.5563566206498098 -1.7660298263423584
Ni 1.9762972545954627 1.0823841156383072 7.926083224172593 -1.1554324205256423 -0.10831132021359412 0.9624798700218843
Ni 9.25303981919416 -0.2188303956503746 4.967618490389834 0.19096431642913564 0.13501891141176747 0.13881848766351576
Ni 1.7722993655595116 5.479407557412843 2.6965478507535563 0.6645514914356684 0.20915667106744626 -0.3108898238428904
Ni 3.038960247207102 1.6535652426984833 11.636389385928934 -1.7979672984809034 1.4356703238106308 -2.1127356314425936
Ni 1.6163358362711444 1.6649534968406436 2.107549198269662 -1.068123156485012 0.3138761601647239 -0.9411643963735598
P 7.956686148088107 8.519349231399675 3.326809944079212 -1.5334576045644495 -1.2545916419263232 0.38199059644445826
Ni 2.3929129225912273 8.931937346101261 5.858726230155872 -0.5256034201728238 0.07694951807286102 -1.2719892685774803
P 9.277260691418462 1.1204097739812768 6.618075572994396 -0.5504233074299811 0.5139509235355599 -0.1596130558113638
Ni 4.458844070154377 0.4804565541429392 10.6069393569423 2.157607038033987 -1.517103074465826 -1.4128988344420699
P 0.763578736734572 2.1838134660493167 9.41828986791715 -1.5905407227306865 0.4987413056746572 0.42872913815157776
P 3.1889889221010588 7.25822507818868 3.4223860984358727 -0.2638494346246359 0.05381344627602991 -0.6173678917713303
P 4.484000075442385 3.044922877831127 4.678926247886069 -0.33168104955662875 0.19662408581807428 0.08412958076106801
Ni 4.842896738298127 1.3977183917144849 12.720247493485479 3.2454814090039976 -1.0579770691899455 0.9045737417337196
