# total energy = -340870.80645938317 ev
CRYSTAL
PRIMVEC
9.19276540433752 0.00000000000000 0.00000000000000

0.00000000000000 9.19276540433752 0.00000000000000

0.00000000000000 0.00000000000000 13.45454138821379

PRIMCOORD
 96 1
Ni 1.8802054981193144 8.645271862298735 3.6695515416703155 0.25076380508527135 0.10493623309377412 -0.05491824930443445
Ni 7.769091007383107 2.640677015062567 4.144066463435585 -1.9868091692503975 0.21297578770322032 -1.766699084495241
Ni 3.5618104927385748 4.501311115665143 2.9349604171314194 -0.7548537766663516 1.5278328021785041 1.4660304241597268
Ni 6.229661322295964 2.050685332289307 6.127978305756675 1.4453438423446527 0.5918291240702774 -1.7886601621473646
Ni 7.70486115559849 7.154324821881989 12.214611229892268 0.16735104788556984 1.5353766759640333 0.9022024132880655
Ni 0.5000717288278731 6.101587714873137 0.17281295802614455 -0.11598940558414218 -0.26850544533940857 0.154136863188141
Ni 5.694394171893368 0.12431744348419915 7.511293691149827 1.1621584263955664 0.1688991090989801 -1.076780575049694
Ni 3.6254887785997516 0.6190371443016237 9.472750365451127 -0.2483081444559272 0.6136066249566853 -0.2556152196403017
Ni 1.0427445710291934 2.720690845022966 2.695738002646529 0.4968019225600992 -0.011379188371219111 0.9547200235708073
Ni 4.917577918085503 7.554642176349536 1.0183699535958295 1.3976239105608703 0.15833110377514667 0.37720140258593104
Ni 4.983021214901689 2.3562988177021618 8.122937094247735 -1.600926693950701 0.5547183352609092 0.17328026888581124
Ni 8.696539914882505 0.23146555904824223 10.465884339496485 1.4855931767830028 -0.5532309520821053 0.23982453246494825
Ni 2.6021225570140927 7.28682934222312 1.2852745425016474 -1.530417789296861 0.7635248220777883 -0.17689472570994694
Ni 1.7667391949022633 3.7942311801109074 9.58091152376122 0.7617834139066493 -0.35984825601946413 -1.0470653073734484
Ni 2.2460959461987984 7.013087174419722 7.4625343442411705 -0.06961133254023495 0.4517549096227898 -0.16641105256980374
Ni 7.285799752499365 3.0952868419274155 1.7772906510176754 -3.249503899899829 -1.723386023529903 0.690405476384295
Ni 3.470921621321011 6.056432851274161 5.763347266535713 0.2831671611166413 -0.3031801139034585 -0.7702269166883122
Ni 1.4087453322933654 4.320719239565412 4.695002682446579 0.1680619579096654 0.06699523507362655 0.1570959458164649
Ni 6.3420980357892605 2.7264822872190893 12.682829107364928 0.5487104385039324 0.769032896380211 0.5241283782891941
Ni 7.079697952440523 9.245715719321188 0.7253974398716863 0.7436267976022807 -0.8635811013714417 -0.3655635612366866
Ni 5.8103425217659 9.12641201008106 4.645813114117638 -0.16400398579020786 0.11447322604993189 1.1316044648681092
Ni 7.346812136397248 6.9957771971890885 5.667335266965928 -1.1641181212250986 1.0652494344816428 0.6386501981888744
Ni 6.180075545778685 7.787917790903202 10.444881628408421 -0.5689738167386588 0.6759563908385005 -0.36816937429064983
Ni 1.0224837161081548 0.32002222588619245 6.088005404008421 1.2309320935258543 -0.5675869636934613 -0.394874651495978
P 1.9786967865149627 0.4996047363460271 1.4676213175144566 0.4104493660057834 -0.3992002754545254 0.47594744770859315
P 5.304630112094312 7.211513015377354 6.6024261203345915 -0.12077371434666297 0.21181107797115778 -1.3635069142725034
P 8.365296999560462 0.1496922337920681 7.11781575413294 -1.666661574254665 -0.16547748501194082 0.29696164379757245
P 4.858955653189195 3.6119478351792935 1.5169184411984684 2.494118933320356 0.5718187423866217 -1.9395047277374793
P 4.271970004698685 1.6853924139602163 5.774043049067759 -0.4705776987562476 -1.528952260494928 0.8745455708027455
P 5.7962592051873925 0.7231167147782608 9.712940778131655 -1.0230280639185865 -0.9216438098421289 -2.098714377462837
P 0.01221350809804539 3.348354480367196 7.881400860714012 0.454100784147147 -0.09237767970247315 2.918852834269612
P 3.9643524964306636 6.963565747260177 2.9089660344362196 0.3664505918273302 -0.31214169397212044 0.6251493354889621
Ni 1.4081202242468 5.567708672044533 2.6388660402806043 1.9303238325691594 1.67961967707723 -0.8831680223644339
Ni 5.347946422615154 6.32249905997635 12.411249077981415 0.0802299885963457 0.2532922279340799 -1.0405719863396206
Ni 9.053825934556324 6.729720181252291 4.211284883248709 0.3653247057530031 -0.527743349333962 -1.1663536954238365
Ni 5.594717016762324 4.4918425673127516 6.110245461318071 -0.24508140998851338 0.12015562114668983 -0.9136471647898974
Ni 6.604983547666277 2.50644425482799 10.350107894336759 -0.07069299564018793 2.092889543250944 -0.26298785795528895
Ni 4.044090543429343 7.182316792496583 10.831632299712416 -2.992693374399846 2.2240538568033115 0.30074965008509497
Ni 1.5107298715374688 2.0298269476178743 13.134443931265496 1.047540447237654 -1.5090472940408848 0.3651038479914486
Ni 8.59109889585151 3.5809957941089046 0.11938828268172141 0.6141234166921037 -0.5962791894218311 -2.074824972439749
Ni 0.19543083799335126 8.317908293971552 1.9829171851058198 -0.3540671305613128 -1.079495917098328 0.20746334252542334
Ni 6.701480005972149 5.076677108701846 0.07763658083037221 1.048006331130479 -0.6707046555212578 1.5321121462801484
Ni 5.867549100792046 5.399085776483456 2.301063167575776 0.47341876774946845 0.19280908294735827 -0.18939748616264798
Ni 8.221990979885293 5.048023258979124 11.73254812846472 0.5027563403713212 -1.1254196762136361 -1.4549782801106232
Ni 8.995093356475326 7.203956562226222 7.363119182923759 1.074521603812188 0.8626400776144112 -0.01471005251666499
Ni 1.503265346040244 7.990912436259997 9.486030234334489 -1.6385797284167842 -0.27863970555993306 -2.446135206352226
Ni 1.271010128444943 5.943012511884063 10.46944929391499 -2.2490460079722747 -0.2140181129248056 1.6831860542722497
Ni 6.823366882287055 0.5787599620189381 11.58695678731343 -0.1596523936897315 -0.0693069139259387 1.9874043796322352
Ni 2.166468212384807 8.989504155117798 11.146562652848715 -0.09972434987553148 2.5000769506760037 1.3728402758582874
Ni -0.03798174876463505 1.3598582059457776 1.121947599082136 -1.942007439554675 -0.5136107665873219 1.5966936297059597
Ni 3.2615563895484807 9.13231376546187 13.112069659581143 -0.2960663856768127 -0.9168201632012404 2.9302492490320113
Ni 5.51134782743433 6.3140968724092765 4.418148763558438 -0.7395739676891457 0.7740622312740024 -0.34000731003413703
Ni 7.124347213943012 8.068260364257101 2.949585187591438 -1.2869592596237514 -1.0441028823110148 -0.9481045751368189
Ni 3.5975611573428936 3.168838157818174 12.683542465959244 0.7969015977660212 -0.08523412667915643 1.8983681055981692
Ni 2.229769594864967 2.4145717575136247 7.539992585422963 1.426575560598214 0.1776478018258876 -1.1263049070320668
Ni 5.168485256658475 1.348146622838063 0.7046254671949262 -0.48041191123785004 0.504639416326647 0.27984632427352446
P 3.472346499956565 3.956437525429296 5.287002065181162 0.07509061048725132 -0.35612118487686406 -0.013703208518705432
P 6.315144847663814 4.113293681290314 8.077084499755607 -0.00023397038767701637 0.4457048467739678 0.9643585751018359
P 7.748223429946284 6.972767705416239 1.1758181235480065 -0.1880476570029729 -0.4735437233631071 -0.6361138049202658
P 6.4360113270203545 1.0904826017029474 2.805190744494013 0.5582818842424514 -0.10057127125685905 -0.46088001185250954
P 2.983852139861703 6.025683051042367 9.290508387963772 0.16269400872953269 -0.27595624519049894 -0.8306565827292791
P 2.347767931419619 2.1339993650249576 11.081173593348334 -0.24972507940811187 -0.598644090109582 -0.6308885519655844
P 1.5838675129856468 7.175891049488504 5.30169486210507 0.471348258373685 -0.09562832542928693 0.7299253888557881
P 8.161631282330147 7.361290741887554 9.991746321112235 2.5921571537427166 -1.4475891867354036 -0.4119390631774325
Ni 8.832133204394903 2.8031499505772843 10.006129321842478 0.5750141093954677 -0.1654628297239215 1.9735181085684463
Ni 2.9308374618537036 1.7819348360930425 4.159498358696904 -1.6538605658352548 -0.21444774426305646 0.6862215202099343
Ni 1.1664148438298894 4.830173104751005 7.097781960517051 1.301135036903501 1.0408972308895235 -0.4445344806149505
Ni 4.397837348427751 1.1931198272897883 11.723735943561223 1.7084929084681544 -0.7667847237759827 -1.0886068782606606
Ni 0.5516606089237793 1.2461712763593504 8.605592209766442 0.08434889586072569 -1.5062046823857673 -1.029725273433104
Ni 8.697698203321732 4.563353089286781 2.7646258286545997 -2.077847818426473 0.45277486624687185 0.8416359645589183
Ni 0.645156548606137 8.65165164147986 13.044957875846551 -0.977109189899285 0.5843251023837485 0.05057976983008063
Ni 5.128193365951165 2.879918734354777 3.816703814384941 0.7416151664888906 -0.14891778088104676 0.1781208848075642
Ni 8.01068607461533 5.077651541833256 6.787358820251797 -0.5489009572481837 -1.6431781464207444 -0.67179300348943
Ni 5.154328397956843 5.5092334913944745 9.47229348501121 1.035517454634849 -0.604216956211669 0.829174598867114
Ni 4.212364113905575 3.025798728339334 10.374985356036992 -0.5876515956538202 0.5208581921783546 -2.1994856805456444
Ni 1.3046556497747985 3.8647948472496974 11.931770062905183 -0.955022899523207 2.0119725558899026 -0.05745644234525589
Ni 3.286965193088295 2.3635427168300103 1.8858691608765068 -1.7246492065130428 -1.0927237286425118 -1.0726848077137654
Ni 3.3481614322939914 5.040549540716509 11.322130682662443 0.3226127687067734 0.375235794219128 0.3146642032836581
Ni 7.2771953240936975 1.9113781655590796 8.143159339554133 1.7937887416231817 -0.5330956147848109 0.31756723586306596
Ni 8.309818660427762 9.105544432644237 4.5312611453079485 0.2145935258123014 0.3269445633129079 1.1687391649368775
Ni 4.5268945817473805 7.7460631300794764 8.515702591946845 -1.6186089417218124 -1.3736856545777183 0.7135628883373647
Ni 4.38522487431175 0.35917329440852086 2.747268968320474 -0.980996183658517 -1.2403760125475733 0.08581622443487157
Ni 8.190046120152711 4.857733015392236 9.252244421301643 -0.20387691072574568 1.3127127144387716 -0.2877321547795045
Ni 6.862463713493579 6.759964379387598 8.336689113664693 -0.2945808022702217 -0.04125540710536121 -0.9467290349455308
Ni 3.753488843899454 5.330296313065065 0.34278535154657175 -0.31644726332600986 -0.42856175933577806 0.8919650518307736
Ni 8.80865488158713 2.495045225743558 6.078115827001136 0.49132418727497956 -0.47943103538181947 1.3268802641884052
Ni 3.556708507946752 8.580021613555752 5.619396834006658 0.1577934861041218 0.7072438880978723 0.6361986513245882
Ni 3.753856554515081 4.634826840199247 7.793583292213473 -0.874684667483771 -0.9332816511913733 -0.5789227004212546
P 8.571968751073525 1.4244557683460222 12.533026560388173 0.0005054788815088069 0.44313477205394647 -0.43487818847210913
P 5.667450176533311 4.286660043792977 11.293203807807618 0.5686740261100528 1.3827922448646766 1.441289983990253
P 7.286820149457729 4.871439428589726 4.577490643181094 0.44615916070256706 0.573944787590689 -0.3496864849951139
P 2.3477219675926655 9.212621763914772 7.8365171836940615 0.328492367416002 0.4458429150137289 -0.157010070970878
P 1.1726659242955457 4.03596413882399 1.0709534909070062 1.3148711555426709 1.3470793648440993 -0.9091737023995761
P 2.0670852257462635 7.201134383251286 12.386721860642567 0.8567172843720731 -1.2432844444436202 -0.11585725088165208
P 0.3835515889480411 1.5648752596885205 4.341821232519698 2.5439885644572895 -0.3083845409225334 -0.6819691726914835
P 5.475036404141179 8.552075606768113 12.603447739663405 -1.030618988891967 -0.7402121154937767 0.6002502582544371
