# total energy = -340863.11067961046 ev
CRYSTAL
PRIMVEC
9.31050237571418 0.00000000000000 0.00000000000000

0.00000000000000 9.31050237571418 0.00000000000000

0.00000000000000 0.00000000000000 13.62686134685745

PRIMCOORD
 96 1
Ni 1.2418720730541797 1.5008809436855466 11.911566483662495 1.620527498900764 -0.06382095111070299 0.3185403984096127
Ni 1.0813403879675114 1.6965132234118587 2.4350660455899376 -1.2879835871232077 0.21124672082725554 -0.21096698480330767
Ni 1.1231166129404775 0.16996415522709887 4.200548678792802 3.52255916939345 -1.6848153623455566 0.8293206375266751
Ni 8.517824990242405 8.794142085127115 1.9641762061698964 0.7492832245571095 1.051521543372589 -0.030574530352747348
Ni 3.7057382962034837 6.830678132402823 12.008617300215471 1.3069017641839493 1.8813193776459989 0.321642177263388
Ni 5.664677344685105 1.2138288393526924 11.083912152014552 0.1903120275571174 -0.6368676523671548 0.8200818925372263
Ni 2.4742660545054 7.887289825579115 5.758398725523721 -0.8452319094402927 0.02990167265543883 -1.1511733881389723
Ni 1.2343864289984043 8.422178197475015 12.338796583442303 0.19253011825435873 -2.2066387466506576 -2.0029050463709956
Ni 3.063676729374709 0.7971931604324209 10.123490984954973 -1.3662875623414341 2.8780568832991724 0.5522423629165909
Ni 7.27621361125982 8.173708815738099 8.093306108807178 1.0150357897417293 0.5919630785449805 1.7109344280301113
Ni 8.03836204006794 1.109067064582063 9.916103264700276 -1.3488716808578318 1.1040710353345307 -3.1754491868762607
Ni 5.227828564713728 3.2544489267663015 1.5708633361547464 -0.23050505483623526 2.9990532551796028 -0.5061036595769993
Ni 6.449971682849763 3.117947648779081 9.924252747588362 0.850366916674013 0.848413649602384 0.10438318880378153
Ni 6.122232682343103 1.0061767008253775 8.016328735766953 0.3510905644314921 0.3252545772049947 0.6067412652954196
Ni 1.0539581999475665 3.6243086408405323 6.775943549971116 -0.3403356399078333 0.7690642638387787 -0.17956661611515523
Ni 4.656200949728165 6.7030870053625895 5.577174448504265 -2.3887353282765185 0.17596732879967114 1.4876436315541284
Ni 8.655815948638736 4.993948740483527 8.36341775373769 -1.1311645491172133 -0.16995660382921698 -0.7987772175221792
Ni 1.7835850433243121 5.8667152501705875 11.377897787601555 0.5078941758185189 1.823315547437705 0.755982490954156
Ni 3.911826270301234 0.6754676500030565 7.602221789341145 -1.1548330963787465 1.9179434566269353 -1.0734965049817835
Ni 4.756726445835388 8.815705209048975 9.615331203799522 1.574561573693611 -0.27277527635935606 -0.912786616561815
Ni 8.8925354761488 6.385887493750381 10.249021697779357 -1.7260604850382726 2.627128784721895 0.4243400079449466
Ni 2.0054543192560663 5.31508659467732 4.182819619823887 0.13177855009759884 0.6933313917818381 -0.6294785589919353
Ni 8.609868618520261 7.832609244062238 13.492283124673245 0.6827603011342113 1.6361466934952593 0.6850246716883557
Ni 2.6716952612252007 3.052262053239907 3.7972614673884078 0.06709345121438769 -0.6924237923659043 -0.5901329673147772
P 3.0276264634742573 2.6093800676116365 12.621635685368144 -0.5954407526809358 0.2581055901623232 -0.055611675827033254
P 5.356630057086362 8.349947318638316 11.532589925484512 0.2600472872697263 0.10010101648865986 1.7232366424362322
P 0.548414670010614 4.656247502240948 10.36296921437266 -1.0704438341983886 -1.4037148539499569 -1.718115776269899
P 4.734725728293351 1.4813195778134267 5.604605982187762 -0.8969041410036037 1.0825545014189937 1.2194480041456548
P 5.704665953167138 5.05888018531559 12.85890639462958 -2.238017260961939 1.2852985840918767 -0.5739998091983405
P 7.206319668564911 4.51469993186787 5.862208035882775 -0.09986910298351187 -0.8277234682428841 0.3907835121457399
P 7.736050022044269 7.970404681904872 3.8704243275310564 -0.8636584915765964 -0.7083124385717027 -0.4429753636579468
P 4.52369387733787 2.3147492141974375 9.470041742448812 -0.0362281290940989 -0.20859282814417626 -0.4253473661635384
Ni 5.970713563731548 8.714351078214182 5.04086250076741 -0.03498628626719781 -0.2656036983115813 0.8706495781824488
Ni 3.586815247043756 9.649311744981567 4.3301536675361 -0.10119579221473539 -0.5619907005526064 -1.5679800638213512
Ni 7.32554065380646 4.037424949794283 0.06904854906273922 0.934976522395293 2.336112045653848 1.9014464874131771
Ni 0.5093338355278806 4.358683840521315 1.4709653679198595 -0.005989384814215491 1.1193444165538335 0.5279405529464327
Ni 7.667319892168977 2.679227457793761 7.784521429405927 1.2969436245299728 1.096179805511912 -0.021883430336652635
Ni 6.074218420656992 5.9844651760081415 4.061676946854586 2.455278820524707 -0.5727512815032201 -1.2769203873305106
Ni 0.7412370400652434 9.260477226696302 9.901958749215781 0.18826722921294672 -0.0371095032577877 -0.2708960570587721
Ni 4.469264679390029 6.720115914539224 8.827725998900233 1.2198259563103637 -2.7453632775864714 0.3840179112871322
Ni 9.0030976940124 4.638436510849533 4.606220309902027 1.1855842615186745 1.468996448766586 0.8940939252483183
Ni 9.02715603261952 5.791486389510555 12.815750353177677 -0.6603665068200434 0.26278731190870874 -0.04557511752663764
Ni 1.1549212896749665 7.401402628640364 1.4726002921688572 -0.3396188163464667 0.08235629091072914 0.23698654879552086
Ni 8.432447681795315 0.600888662421498 12.053204365910377 0.7720811962882316 -1.6318619500769769 0.6024369814931109
Ni 8.949906792904631 2.958617018522258 11.029308847668897 -2.1604959295460078 -1.1964263464395006 -0.8374458377369707
Ni 7.139125771611512 2.0627697729965564 1.6547639988963079 1.1261596397034541 -0.2743691032090372 -0.25610295790999765
Ni 5.323615015019472 3.7505311240048966 7.919155020580225 -0.4869065178232583 0.7774709998452353 -0.5184521538400233
Ni 9.198767215748939 1.6829105791761771 6.162680298601194 -0.31219800113135265 0.4170797268381075 -0.29758205099039076
Ni 3.4706201751332113 7.292274228170532 0.8486048245015587 -0.9677092367416237 -0.26141819947532396 -0.5003811552709253
Ni 8.485200989282907 0.8142276559105888 4.091887665551328 -3.4461177013052584 2.1945087961563434 -1.8844967469327158
Ni 5.199980851565935 3.3862297799571555 4.07429547097 1.4751375286673176 -1.2290289629658704 -1.780744506844714
Ni 2.152830264229786 3.399199310018965 10.583643021776101 0.4687411597681412 -1.5211088531911094 0.5277562048497685
Ni 1.0120516279388034 9.39783507091876 7.369692919031956 0.09999585836936327 -0.3488760732786766 0.4431334865023659
Ni 7.606596794492648 6.52952992719877 1.8210933339251794 1.2259079008383855 0.3541401498910933 0.22327202742290578
Ni 3.2894750373854897 9.425859683615133 13.00640337613654 0.3371837245424128 0.5092712586717035 -1.3184964110000843
Ni 6.757916554920378 1.7342021377623307 5.688465678718073 0.8236675530059556 0.38630542176972826 -0.06109455331847543
P 0.5312265512402569 2.6925042344399497 4.2722935493960295 0.059596628616710265 -0.045826571415811396 0.650620226066557
P 0.6064665845033577 2.1047135870155476 8.38858683529985 -0.9126886575313701 -0.6984612568092358 0.12163863345011953
P 1.1476590976805574 0.43158834602670865 0.2644657561799862 -0.6694458434134922 0.48680161681427775 1.783090638479387
P 5.193491431283753 8.267959033121949 7.441683586902687 0.06754802225330303 -0.6988397231945771 -1.403073363711216
P 2.499339237891225 8.11091878649413 10.264406372204435 0.12485379795330756 -2.938973773389203 1.0424270372704885
P 8.078853415688048 8.34154924533196 10.372289958482405 -0.2955801900690135 0.763150469457505 0.37823601449803246
P 3.389097414744691 5.236459400584006 7.634545061068055 -0.6317688976880087 -1.0290177058431182 -0.795451752693372
P 5.385911587627922 8.258322662975521 0.9108753277028495 -0.5080111610123573 -0.7425181379191341 1.2253422581429025
Ni 1.5085993503052455 6.062878228542645 8.819509480393739 1.0546611174428353 0.07249662450782998 -0.8315204733914712
Ni 7.184309640520317 5.004925822998153 11.331702798115067 -0.05453078405802867 0.04938883484577301 -0.014475567908355715
Ni 7.556990436869301 3.179210755603712 3.7803498705439917 -0.6652091796243254 -0.6085330670885197 -0.6752583363302113
Ni 1.0357003044334174 5.900177196360211 6.2059862391442655 0.04618678296870755 0.9427883051302279 0.9491574418813654
Ni 6.580151129600823 7.173630494087512 13.065721518977027 -1.416088030803329 -1.6062241949042144 -1.3128243003159712
Ni 3.9699517377641773 3.7679976268017064 5.7482875197468895 -2.0091937075931847 1.0304066157708447 3.1161621190801685
Ni 2.354086087500487 1.7428515946377228 5.973198536863994 0.5685426427385112 -0.22607221587586226 -0.22509211135078008
Ni 8.581946421352015 8.688775127690285 5.800764305308541 -0.5449681978526807 -0.9607225210111455 0.6148916623166958
Ni 5.133103511699474 2.795310803673623 12.882985216342323 0.9217759645446191 0.9598971968963728 -1.1263717557142603
Ni 4.877111243896554 1.0815638400288778 0.7743861533689537 -0.39811475569983046 -0.7527855812834132 -0.5829881287398798
Ni 9.173098160199471 2.3327557261425493 0.5015996010538349 0.4105699507440478 -1.5841319909908653 -0.6885565961010142
Ni 2.6187836751941407 2.987954412079159 1.2373583414145777 0.39015410609185713 -0.11577137603606512 -0.8097936232373409
Ni 2.7491307109912264 0.17774401116367353 1.797287309937353 0.09546300349601625 -0.8160794562460526 0.470524476920809
Ni 3.6655076146549685 4.7179575131883125 13.64893698544495 -0.259792748056759 0.3058558609634087 -0.7574261653792181
Ni 6.759918312970119 6.587813673205181 6.516378842337099 0.7556672737065824 -0.7252416102268736 -0.4254052159846673
Ni 2.6479348586999034 2.9613263747663257 8.405675331692848 1.1660071107176952 0.10221394906660461 -0.9580133496100987
Ni 6.645715688606757 0.20357134525661044 13.494749476800578 2.041308328739542 0.47119399218400787 -1.0328849021080082
Ni 3.9182784485731896 4.729586330881923 11.105728521605961 2.2228742346729136 -0.7949426742674374 -0.06953857032077057
Ni 0.3553707099951297 6.967468035969309 3.8095932280250677 -0.024695188753834887 0.7415375191734197 0.07243106137721719
Ni 0.8629383431879597 3.8347632406374847 12.673049211537792 2.2633698807941145 0.023252542770037375 1.2141445896548704
Ni 4.755935053118049 7.74597501776996 2.917810947915724 -0.5510118329435995 0.34660424652536437 1.263069083269715
Ni 2.8297689736368383 8.086581132810304 8.057930854342104 -0.7522641615623045 -0.7939574275360326 0.735217747602979
Ni 6.448323723897185 0.2192753699193922 2.840737676699163 -1.131058619666968 0.11279660967845734 -0.3165146262288356
Ni 5.289296502594611 5.963628271285721 1.4307933425374535 0.1221957915051702 -0.9175765817512908 -0.29353436328357835
P 7.4972914944742355 2.3583782291792335 12.680870964735874 -1.311388082090077 -2.1452716563970857 -1.5519016702022501
P 2.556254340021767 7.7652663790679295 3.332462558741113 -0.970899204433831 -0.5104102573721532 0.16396773323563374
P 6.78306422232666 4.621388980667785 2.23774856490082 0.9808480881164271 -1.3008326751717338 1.3664405429795305
P 4.046260616720814 5.226748546417124 3.825918263208397 0.37113462756656085 0.09477137674563033 0.250945067858142
P 6.430838600095262 5.449874740194063 9.30551119651394 0.2147663039447398 -0.9229033932808428 -0.410298442250216
P 4.134589354478453 1.8121962176817725 2.4446176901630974 -2.177025551769915 -0.07418249685068513 4.252749638985166
P 1.733438676552662 5.853894688149689 0.01981554259192415 0.14071750445844153 -0.19631632476966834 0.4644870124774775
P 9.21477196964431 7.367223773753857 7.363097359020624 0.7691557951113206 -1.0703242779013888 0.6988145263835965
