# total energy = -381172.87795291864 ev
CRYSTAL
PRIMVEC
9.17404959441195 0.00000000000000 0.00000000000000

0.00000000000000 9.17404959441195 0.00000000000000

0.00000000000000 0.00000000000000 13.42714890856177

PRIMCOORD
 96 1
Ni 3.6215110651444364 7.725879875052088 6.2674032543799125 0.6970024128755221 1.2642795586380484 -0.5031250365646497
Ni 7.512537355065224 7.694963328401658 10.383428611520214 -1.061367325818417 -0.6720004915145459 0.9436177430100587
Ni 5.919482015969172 5.289298211069686 12.263538123133356 -0.7828214655238712 -0.18513536845218437 0.4422037755992449
Ni 1.4053726354241005 5.102652174985716 11.169910696919214 -0.31195940275798534 -0.41541313776896205 0.06589377447933167
Ni 7.839656436345446 2.492011270766345 8.8689673540723 0.4655969577122046 -1.2588997823833739 -1.675927058716991
Ni 8.234021300102714 6.949562636444979 8.085842053367482 0.899029929097355 -1.911609801099424 1.3917453402929063
Ni 0.679148459035194 6.69036821730119 3.70310047393838 -0.12902592705312618 0.15264228092048548 1.9248679516609106
Ni 1.6921717693664482 0.3538651050501506 11.842677687156177 -1.3680729363766309 0.9325900244409875 -1.7834328523101544
Ni 4.012334745813554 0.6168502414271618 4.561202528592742 -0.3932782535431356 0.1459036766450713 0.5483124317345653
Ni 6.954223053566172 4.744084452186899 5.092756127842743 0.08037062793926804 -1.3733817501840542 0.16471335315240665
Ni 4.630537242129819 8.92313919867649 10.906094391661927 1.6081882606091207 -1.977803623317678 3.545642533575475
Ni 4.482991004806717 5.3034354212739325 5.607808364344934 -0.6761767343794226 1.7752418318589296 -2.2781622086119406
Ni 2.3647488567797725 1.0700336058356343 6.403487434318727 0.7969969856933049 -0.5226003716804419 0.03967494999211877
Ni 7.456649045808722 6.7131565561378865 13.214059551958764 -0.9805274715522146 0.12225981197388622 -0.9959142384209301
Ni 5.779458499196028 0.24945433084148672 2.6728886645554217 -1.1396689870437986 0.8345672306375951 -0.757268042534799
Ni 2.5764767440632292 7.1214843231598275 10.7919361899114 0.47902634374423303 0.7658408718054747 -0.23412748208017098
Ni 4.996866210764322 8.651183676746129 0.25152032677788927 0.5699688336620764 -0.5227716071509836 -0.22530037070684422
Ni 3.8790266332386625 2.785012062137681 5.45056332194206 0.14515162897039519 0.9849363992531875 0.2532428627533832
Ni 2.6823085785318788 8.333789087884142 13.44285851046095 0.8526359152138477 -0.5130397245752004 0.3513175928406337
Ni 7.176556142015177 3.5560175261125635 13.141472637891248 0.3331036409357683 1.6260569133594251 1.5447632593852556
Ni 6.169181293931005 1.3903730645714443 13.238725818718112 -0.4233089955772709 -0.16564846337216632 0.5206843856046516
Ni 2.3091174209079024 3.719370650640023 0.6830455952420492 0.820793059671638 -1.0626695895696088 0.3617267039890996
Ni 5.825172787611187 2.828873192563705 11.48675117319435 -2.2108746391088765 -0.11151671452476923 -0.7142779121265181
Ni 5.827814913853123 8.574773018867367 8.787544912978367 0.3269191093916112 -0.7623714251996354 -0.9910864780149835
P 0.6131677779774639 8.89284648738874 0.30064736158888256 -1.821133966405354 -1.1145091999487193 -1.4037513636148469
Ni 3.179753061922446 2.6647586219317985 7.916485430879179 1.5192319478833705 -1.0486776461658907 -0.6942762721936108
P 1.0893358058808873 6.192235680201786 9.16133054900678 -0.7171359504006036 1.3562162941483609 0.16652109578510677
Ni 3.4717171857058 1.880203086917544 12.564145118904655 0.9527014504788818 -0.17691555164555336 0.2291130595847151
P 7.85849993391814 6.972571152468504 4.175373200444839 -1.0538468490716562 -0.5232027811511312 0.5789229575315707
P 4.064168125212642 1.5143419948050487 10.1087493143078 0.9492338036452554 4.959258705799543 1.6697996056630144
P 4.247300500356815 1.469994639758113 1.4482925083764349 1.1402618834327911 0.6747744547152571 -1.8012472547837557
Ni 7.843050834642378 0.5858621371910138 1.4310251124994506 0.432418671188023 -0.568512303721208 0.09559824352229988
Ni 1.4533070438064424 8.867709591892545 4.783676897403294 0.4814318678619322 -1.3877354478025647 0.11052452581482901
Ni 1.6509711132812623 1.4056845531054403 0.8892314392520573 0.37529750069499884 1.1645202417595235 -0.007989445963379789
Ni 3.4478738311822203 2.7633062611362225 3.061161959477115 0.2554815222759148 0.18474353233040441 -1.6023734536995564
Ni 5.338810555957628 4.026976528737615 3.413933517832687 0.03938518666584185 -0.0722639396717336 0.11214483502707139
Ni 3.385848082842888 7.253315413773081 4.019752882199767 0.6696127080086597 -0.38444934239759593 0.4516464090693834
Ni 1.0644374356704231 1.408271635050669 8.304677994165703 -0.5598057770861457 -0.5880328902526388 1.4934707797588669
Ni 2.280292557532339 2.8229742787666052 10.070697191994256 -1.1262375441292412 -1.6339445436376183 0.9977160675163591
Ni 8.534948470199858 1.775839100361081 12.852291920711378 0.7188033108006976 -2.7035301436007697 0.017513583403731128
Ni -0.040573151102726204 3.3171069303053016 1.1753709590388661 0.005004652303442993 0.03090491710897258 0.15122277486513955
Ni 0.9728804221477877 3.3914350789586476 7.164028060084664 -0.355989030174374 -0.47337197367193307 -1.9961391884020723
Ni 0.3013711940905795 3.9919133117352588 9.188990308102046 -0.6354630587101443 1.6721123129565911 1.370528082785343
Ni 8.099795782582706 3.1989635214731873 11.101915394602008 0.5762461820303559 -0.27935138691497696 -0.47339022850437823
Ni 6.797557811088613 7.419356534789733 1.9096627945151279 1.3630852533540525 1.1198714927018971 -0.034358937095844054
Ni 9.126115042783534 6.8360612966351555 1.2628363465062815 0.7254794372692925 -0.4298311129665049 0.06970054981993158
Ni 9.399455846181022 5.143834482972 5.758917802474867 -1.5391862795181106 1.540690889088095 0.20858922859975043
Ni 5.646838440329974 8.21919603618963 4.6790661289165945 0.38405107851791276 0.8989738790484388 0.9836521332241251
Ni 5.088533312880372 4.219952658942889 7.3268995470159375 0.44446377527801517 -1.1435570092442953 2.195788177089399
Ni 6.873170326665121 2.7693794818728943 1.9794305231862992 -0.3395280564048733 0.0366994123035626 -0.2695529127673164
Ni 6.799319228583236 0.38545227471545984 6.255292591699428 -0.21425336886406324 0.3730012484616544 0.8105413000366427
Ni 3.6026400454233887 4.582978969774974 12.019621248540593 0.035731906183970714 -0.7991397430679205 -0.27131154732963597
Ni 4.758258358588949 3.666830869433196 0.5680782423299288 0.015689899931431044 -1.1518922685828676 0.3865694740643923
Ni -0.16824014067009566 1.292568523372565 6.107163802236179 0.30959090252580873 0.322965781170818 0.16757627652249849
Ni 5.862346035987311 6.33508480420589 3.6530303468438072 -0.4838556468120764 -1.705365418582766 -0.18539016477546783
Ni 2.490066372282698 4.6559310110106455 8.70151709905995 0.026434540042444797 2.2679009358952493 -1.24062926620896
P 0.22866960440492526 1.671080629678218 10.342072913999303 0.28446582532340686 -1.0932993986403234 0.3375740180022961
Ni 7.502766992399733 4.6004647080288965 7.417156597731343 0.8055780424940965 -0.6023403080142464 0.6185434001366702
P 3.4842764594044464 5.0864324555560545 2.529459740626004 -0.12820240271056632 -0.25415354749311064 -0.11070398881548676
Ni 1.4215740067548597 8.244892548702346 7.677710611003795 -0.12806870534617942 0.06785784018423797 -0.09046812138458613
P 5.853190334635048 6.208730621114982 8.126902346496065 -0.6427590781509253 -0.6452332507230306 2.086022898038098
P 4.724250157273477 0.1981080934682564 6.8063694855864565 -0.1172261062047207 1.3414311654193865 0.6860795953154313
P 9.046897125772718 1.7591606784588616 2.9989674086278812 -1.0412998656445809 0.4450648991971238 -1.1696616767511467
Ni 5.677268762359491 1.9204312937609063 8.410108005268391 -1.321857357052517 -0.33936273447160265 -0.3594623334349551
Ni 8.202802009820397 -0.027494626205144132 8.54221798698496 -0.9180638058003544 2.2516039985074388 -1.7372818076753886
Ni 2.264632455119199 7.217298095627804 2.120415480341926 0.24682538926281358 -0.6459068797512876 -1.1488100301131183
Ni 1.2028921899874188 5.113358290695227 2.222555677311427 0.5352771958171619 -0.9846096120413881 -1.9873017926160998
Ni 8.112079834797816 5.47046733963131 11.081183877652263 0.08900722056834348 0.6474392572354141 0.13365982628071174
Ni 1.2488450036883083 2.899082193013477 12.144291993557212 0.08552646110859465 0.4385494666761092 0.4196102065694451
Ni 8.078264288520819 4.830403083472918 2.908213124432223 -0.12240147975807306 0.9395605422215496 0.2822382215444688
Ni 8.953991526980762 3.3218040436242986 4.5085810983457995 -1.0580400612173972 -1.3976123405966447 0.12848548116862388
Ni 6.302232533121264 5.148907732318495 1.4269435778986268 0.24532746456104845 0.2485115187159849 -0.2874709306983178
Ni 8.245176944235332 -0.025437804318192744 4.004244151602571 -1.4379622051686007 -0.23375441501146837 0.7484614999867626
Ni 2.442829191658645 5.8834371756755415 0.13428514884144052 -1.1615195072599866 1.0569987644370764 0.2545932061336906
Ni 5.063956034400698 6.110485725542446 10.32890081379732 -0.19369148555231158 1.3748915019603611 -0.8199844477274137
Ni 1.8318099760626438 4.386480004580452 4.171935684115486 1.4023629679077525 -0.30515780645511964 0.4514785160329515
Ni 0.6597169048926795 8.724576072355456 2.4315221757100827 -0.12289153202061417 1.7715484421677425 0.2697650287781225
Ni 1.6783831730413459 1.8657539590319578 4.08906374320827 -0.03446409521514065 -0.0034529915456069566 0.9451838019455979
Ni 7.108558087483135 0.8592533978604825 10.6126037060499 0.19298417507264184 0.2870371855950089 0.3709721338467676
Ni 2.8983115728595794 0.3206412849627534 2.5422694658746674 0.6722442320942358 -1.1412299037730151 0.42627861972855613
Ni 6.702184392994291 6.732587192875455 6.324885096026083 -0.6156305973652494 0.42065021779818523 -1.1190523392347116
Ni 4.2259157910861465 3.867916859353301 9.909799960504873 1.7967251985436865 -0.6258990691707931 -0.4224890707791369
Ni 3.6041904597806353 6.893711023386281 8.486897551389486 0.5407212496508688 -0.8128576068746453 -0.1971295646995831
Ni 6.515547530959773 4.222337911800192 9.76541785283748 0.13827315668300705 1.1234550962880974 -1.4391189444808634
Ni 0.4485743219642067 7.156611758508342 12.188413666987648 0.3557661155302905 0.9247162781198656 0.31246128209506835
Ni 2.0456387206704183 6.271811385141198 6.539558770588309 -1.3869445764701533 1.60976228996446 0.8963076450701853
Ni 6.779475759620364 1.8985970560671317 4.1425301034096655 -0.018128334169594588 0.4762431245721411 1.0458463473646828
Ni 8.666504339329576 7.9684417425409135 6.072106089663494 1.141945956003433 0.05220522124864557 -0.76742312869093
P 6.9381134227299235 8.595515544676454 12.329989432927931 -0.911722436963359 0.9763031490582219 -0.030193235753928644
Ni 0.48665671864094134 8.297946076678437 9.90375701413139 2.038402725056973 -0.6184518688641285 0.8944777909502982
P 2.5597616259632052 4.445340705859132 6.155045001131704 1.3763079226919135 -3.349896993707611 0.5527344720616609
Ni 3.556439532387317 9.15165559645558 9.043131178473015 -3.1737520016794956 -1.2415420078312167 -4.281388385767781
P 4.046342947129026 6.764072530591856 12.475365090150886 1.5638881531401647 0.29949855128681324 -0.6598602566075862
P 0.08663330118219471 5.036121968365862 13.040997530897133 0.05324189004327605 -0.04012437882471154 0.21056435004825025
P 7.055036682985033 2.630044018808587 6.252674317986066 0.42004857965844433 0.6481769067323869 0.38299409800830814
Ni 4.544961708849343 6.871730000901288 1.7039053786144895 -0.6211972928197494 -0.6344292181289912 -0.05304520065143767
