# total energy = -340895.1878254485 ev
CRYSTAL
PRIMVEC
9.03006823807046 0.00000000000000 0.00000000000000
0.00000000000000 9.03006823807046 0.00000000000000
0.00000000000000 0.00000000000000 13.21641763970620
PRIMCOORD
 96 1
Ni 6.4449312959037455 2.027701830125282 11.327183993418249 -0.13212487769342407 -0.33234002329686635 0.7410736921631237
Ni 4.613380608748765 0.28022559360215016 5.93147529299925 -0.15455055368679188 -0.005907366623370471 0.776174906741631
Ni 2.8139679345682502 1.573606787010118 4.809559744930707 -0.11845149397138954 0.1846388884317401 -0.43132389546194744
Ni 3.176082702280804 4.231715743230729 4.716331514093123 1.2933042280051725 -0.030011458760425734 0.6807293867471115
Ni 5.167610078914739 4.303288064342166 2.8932988903376406 0.6300056351399989 0.24033875309720548 -0.9497498240497257
Ni 7.063617393384055 6.005076670451051 2.7830471747966405 0.8210586546281988 -0.13175900971357307 -0.5461629894917304
Ni 5.0579218396338135 4.56739047104746 11.386154854258297 0.016075565405623927 -0.02009214276418475 0.37385074094614323
Ni 5.540822800531652 7.804561585177731 12.441790604228705 -0.38589610214645154 0.8675370006953963 0.47245537539493476
Ni 1.8399576807147509 6.432677493260771 0.46446607652375393 0.578677674289984 -0.17826898034965427 -0.4107473568621765
Ni 2.8949857070905574 1.6649459275655274 0.24256388786666355 -0.9215998439780709 -0.43175275546924996 0.7882223248244683
Ni 0.635517241729566 9.077024625437247 4.672743374551753 0.031142744151391528 0.34702333634065397 -0.05017919195755229
Ni 8.533188763850537 2.2958858276888123 1.2044729472309583 0.3310112771831138 0.6075107964715925 0.7866614080952516
Ni 6.85085092479616 0.7358394942004005 5.080879885204558 0.14226993654722594 0.48917628769404137 -1.6948380366888813
Ni 1.0260956876373453 7.48735334697403 2.5559364427611655 -0.6902900338523531 -1.277167213233994 -0.005268704598107055
Ni 7.622027785159239 3.7782528048944957 4.013534845707883 0.050578484278499994 -0.2421056151896411 -1.473079360586708
Ni 7.669869086855981 3.861004350524725 12.613775478493679 -0.16979976653637854 0.07983558137140444 -0.14532209310998845
Ni 7.903946516562094 8.943596336673357 7.046095448912111 -0.10471074734652934 0.15874248028095242 -0.0638883140135287
Ni 6.897166144955201 0.6508873209326668 0.5899045608819651 -0.5568703486069054 -0.6605899356847592 -1.0892044026353436
Ni 1.9822083461788507 6.609657801292948 9.115508970392167 0.06349133568542613 -1.0650229202931336 0.15751812095554807
Ni -0.007135559947294579 4.959123862687028 1.350347379091982 -0.05807633531744192 -1.0971884492820845 1.0565750466360966
Ni 6.200225475843336 2.2246566491716524 7.041138844438472 0.1024494621161784 -1.6229466498652176 0.3213243889126531
Ni 3.3741933700657896 4.274409906013327 0.3993972105806821 0.31061368736336825 -0.34447717288003254 0.009688430932357507
Ni 6.030469222427503 5.564544789878075 4.916678929788695 0.05832213277966085 1.4351486469792056 0.02748972077983653
Ni 5.440787704231818 3.0431962176131413 9.236478473963343 -0.7072269188170078 -0.40531590143395996 0.3686046620558555
P 0.2526576981793513 5.4773143303857115 12.44779018158758 -0.277789955965128 1.252863603491623 -1.0838328539107849
P 3.967866178437006 6.113247858262545 12.648389536187896 0.270599865974592 0.5214217779913084 -0.47532755473640725
P 2.504074051663599 8.510839344881221 1.2611844849897462 0.418914208943685 -0.042914282865022864 -0.21607293857130533
P 6.360102834571316 7.7934184809320195 5.858335352036066 -0.4255011181325833 -0.65965611101658 0.06600895990095729
P 4.784292710903213 0.9670119509439153 12.60090311617418 0.7630481395516858 -0.4804435358067338 -0.1507430070152436
P 3.962664859113237 6.1106381685323905 8.149150796391032 0.48211295308935675 0.9738950538373614 -0.16319717361819636
P 4.761302157086696 1.0877349336513074 3.7765388979367676 -1.1210104914023467 -0.511249465443997 0.4057427045587335
P 0.19970266882106277 5.516315195245703 3.548489038801168 0.04795775882620128 0.08611292973968396 0.1509749205203916
Ni 1.1604540734330884 0.930151212264016 2.360280147532083 0.105911709633166 1.5823481596175653 -0.17924728510252355
Ni 1.8362192324507924 6.501351162457398 4.697154358107208 0.779016232845168 0.14448211370719632 0.1463137675992964
Ni 6.140040070820913 5.547351539891174 9.160946467915323 -1.4067179024423384 1.5913367362694206 0.17604189079134844
Ni 8.692623649233267 2.4543996461079582 10.46774634277315 -0.22958845655923685 1.018244526487014 -1.1880394079273862
Ni 2.333721813741918 5.132600504230278 6.871638141954692 -0.632591393589304 0.567778510878977 0.2481320238893791
Ni 0.582341878705479 -0.36702080380387886 8.918663415171869 0.29183203588049095 1.4323492298571978 0.07127380784432241
Ni 1.406749185509094 1.1643099125845624 11.259779951820445 1.3120910216943726 -0.8196900564154463 0.4904808654380779
Ni 4.003688459265805 6.642346648431909 1.7332674240996087 0.14145181152130476 1.4357852521219403 -0.41039820105287383
Ni 5.445609760688228 7.888748911662958 8.096126235507061 0.2386109717728213 0.4100595867665325 0.2510592248385031
Ni 5.238712836476113 2.814040175114414 4.877241009624414 -0.0819467141771363 0.822016647666094 0.3983415269986559
Ni 0.7691134897632846 7.546021700527021 6.807063220746014 0.6249302774996206 -0.8089569862686584 -0.5726306967649558
Ni 4.936801533922523 4.4921158219451485 6.9551129960533835 0.10746722704574395 0.26619505203867705 0.22183426653511473
Ni 8.220802582103248 7.074200633397001 9.584189379777731 -0.7454237416017032 -0.6615258172354672 -0.5468471600429485
Ni 4.6845646369245735 0.4039853882688882 10.441327072034351 -0.4676281292096205 -0.515808288459273 -0.7728026478352884
Ni 8.294731751033266 7.203068737684322 4.682035314802025 -0.747240740205784 -0.4146081253691634 0.41791816357900285
Ni 7.4912904567399385 6.465050288010266 7.204784450655703 -0.8128447513588388 -0.6003358759897081 -0.5118426189433056
Ni 2.3785831929094194 4.984895677530838 2.61504004560479 -1.1365733788376102 0.7337514474700976 -0.5808222314368126
Ni 2.3466528715051758 5.331912171095232 11.329271745202371 0.2995358322826519 -0.09204472184308664 0.24050021837573415
Ni 1.1398655177765058 3.181753585154635 3.7543213179641994 -1.2040316695905844 -0.1622252966232303 -0.6344017073251654
Ni 3.5865896058545976 2.700658637910882 2.6003959838906328 -0.8404959374172041 -1.057859569775475 -0.28506026437429616
Ni 0.9806563841005366 3.3711682971951955 8.137995953056569 -0.6264526276814179 0.5318499153031679 -0.3276007088396681
Ni 3.5134731430689174 2.5390294459384375 6.99041424194298 0.4046728685333224 0.28595937914979785 -0.18324895006274894
Ni 4.1503096777727935 6.7846334341690895 5.956507545251711 -0.11196074404072331 0.43174864170419197 -0.20289217821497318
Ni 0.9595982648938914 7.415492063677941 11.296653332595922 -0.22820751705131018 -0.8559130433032228 -0.0519257423350138
P 0.26884319254727185 5.758212664074009 8.065068218697741 0.547591751518457 -0.9163316536005961 -0.6375124850400052
P 8.768593613592405 1.5060709064155644 8.226440053724478 0.16807301365325894 1.5174370607664769 -0.3017418387950352
P 1.9734130596834507 3.340384794461296 10.520850368257902 -1.1512227533196688 -0.48436369679674646 -1.6790486350651084
P 4.130940181332719 5.926785978546414 3.7074164343470994 -0.611486750400205 1.0915554193660235 1.7413153543148139
P 7.004073123208833 4.049434785123808 10.413902754697052 0.4060286112302685 -0.1980145384076977 0.8534154736923495
P 6.261133286327393 7.880459308990703 10.259865141119558 0.21406233589917972 -1.1054321773481155 -0.07245857218104294
P 2.526197718926155 8.473942485928239 5.670596620666498 -0.24316028170640056 -0.3690733741621579 0.05261582642350294
P 6.930532247214444 3.887092217758 1.596133195317535 -0.3160052906925848 1.0510787994082158 -0.4752123693147816
Ni 5.366894655574881 2.809850223436934 0.30872087703632217 0.07388270622207921 0.7650142621391213 0.3152573567829667
Ni 1.4321236773490051 1.0723115770454112 6.7980494065984685 -0.10976373638940451 0.2948803357885115 0.4727425676180503
Ni 7.136499074394704 0.7373150073557889 9.325874343826955 -1.2125754453955375 -0.29957517016101953 -0.12326177087583932
Ni 2.4172318851068644 1.679366946593406 8.982829274287898 0.92488931336262 -0.7634854841994205 1.3324037651097957
Ni 6.20011711502409 2.039513159423006 2.6003300643922582 2.0305382347072323 -0.009014801904100603 -0.20381854668398447
Ni 4.178510580981349 6.7767501845690035 10.37821863391279 0.3902091276995086 0.7943235526261998 -0.18679784375627184
Ni 8.143080784499647 7.045457926092219 0.37848899050732626 -0.4099901669811778 0.4863105361104721 0.7952265240564435
Ni 7.443115042517189 3.9054503465517865 8.170151123160746 2.1266388717872475 -0.10200388993832754 -0.3652573428501774
Ni 2.963858037789134 8.315040374573465 12.299053218084829 1.2281013089452786 0.0005227052726894223 -0.16545768751759893
Ni 0.20816023076314846 4.867125527147877 10.098638690191974 -0.21106442961312039 0.00834811485437917 0.6947408705348551
Ni 8.595387874097266 2.3947199249086797 5.908677079636892 -0.2524432496702233 -0.0806454788672095 0.21653830824349807
Ni 3.7192774290203103 2.5074603272650107 11.343505841817052 0.7409448798947433 0.40922192135658547 -0.30316237329164564
Ni 1.1888626682118641 3.4517706865770625 12.587501591854034 -0.7224043978883945 -0.5045715392031891 -0.21878210997235223
Ni 2.9704770778313607 8.421947352827098 7.894060397819627 1.077952483870608 0.2184368108177915 -0.3715331485565601
Ni 5.376258836371318 8.028073835007438 3.740417721848216 0.4585392795344748 -1.2720530319358803 -0.013832277897401985
Ni 2.9222655433355293 8.74106996550413 3.3243780954451303 1.273668456052116 -0.6501242602667447 1.2502372216123694
Ni 3.35996198247159 4.24994745106873 8.971185001253177 -0.2861432130258298 -0.5947725229693176 1.0287839925657574
Ni 7.143705068874508 6.197976988843998 11.572705228643478 0.22566135359068876 -1.2075129432709655 -0.5788059723377321
Ni 0.7440406022036059 -0.3290773599383548 0.1242745085581526 -0.81072744790552 1.2274721600017118 -0.014160093550465935
Ni 4.607989657991319 0.4172785517697896 1.6124424016207606 -0.06290769526781424 -1.0026919234643958 -0.342998531451977
Ni 5.919670284749315 5.734544855137209 0.5523313498155287 0.20736075550928806 -0.9462220134021252 -0.3143235321147877
Ni 8.010727073859941 8.632582725303172 11.475920956921 -0.8988628073918713 0.37868544333062526 0.12849396580905614
Ni 0.02085765169104153 4.88540238532723 5.7568861470450825 -0.06004194368424498 0.20095845152737002 0.6116330461700821
Ni 8.05723192545266 8.741530498985922 2.6213312941688 -0.9017100470326793 0.06174864196270657 0.08198759471740072
P 8.417874792037134 1.6244460713726445 3.68490898918305 -0.22519598391849602 0.12234362993694414 -0.2622568933265354
P 1.6473282643699168 3.1791438954244797 1.4919749698454219 0.675369665097095 -0.5618996835006967 0.43622313253577777
P 4.680419835588445 1.2132348224737575 8.329726877608495 -0.33538652343267406 -0.855562087721707 -0.6357870177084664
P 8.61743930081366 1.4229852482593288 12.406436080936313 -0.8443842167280168 0.6575678610289837 0.771915874354961
P 6.252211578876207 7.729675229011046 1.6501095253972096 0.32746624014433284 0.1237551655724901 -0.8494310351233049
P 1.6782562481961427 3.210884585395045 5.875120442937143 -0.26014421785890685 -0.176101026164058 1.2368340608325858
P 6.887278220199079 4.008510515722215 6.03753705686277 0.438239134524542 -0.16034479177106578 0.541637590817551
P 2.415344600838344 8.61413429582668 10.036825163860394 0.7688516336073404 -0.11983937545785167 1.1053457882818962
