# total energy = -340875.5131199317 ev
CRYSTAL
PRIMVEC
9.20712244190305 0.00000000000000 0.00000000000000
0.00000000000000 9.20712244190305 0.00000000000000
0.00000000000000 0.00000000000000 13.47555436392250
PRIMCOORD
 96 1
Ni 5.207189406814685 8.289770847471278 1.469711787895899 0.11590635895203263 -0.2909437197382667 -0.05187509160273646
Ni 7.240407475062484 7.0562650251122685 0.7943527798829889 0.44724056669220397 -0.45842666521601044 -1.5127280853265819
Ni 3.872718279147972 8.567549733221178 3.573056825358239 -0.2263486094657005 -0.28091538896798723 0.8334842819860614
Ni 1.7596192161117696 8.17525265784724 2.268501480110438 -0.2714619568645712 -0.5706614888537269 1.4462748387993543
Ni 7.145574113338124 -0.057480986464209446 8.069161747445172 0.7715592623464905 0.1785597721171957 -0.7895724110944595
Ni 3.7816782518925858 0.4797104170775555 9.717370177775813 1.0013950590298433 1.016324940866798 0.5115268874750997
Ni 2.1734517510073856 2.5671759303684385 10.883989938039406 1.3033055621922587 1.2418343422606548 -1.210367124890309
Ni 5.563762846898281 1.7161339765560262 8.353185824385132 -1.0303258831315805 -0.06257062364336967 1.4714927328258787
Ni 5.139581506315463 4.302423893229297 12.116059449288802 -0.0641125142091928 -0.01592926963574676 0.1565909811555884
Ni 5.274815721558902 1.0955739202238008 2.885075773113491 1.6007837406149337 0.29347059992517843 -0.8738495731769853
Ni 2.0838019992491237 5.768593701100404 2.498017550440636 -2.337628482298374 -2.0007316928687606 -0.3563142747242767
Ni 1.7979024314564194 7.079899708563379 9.304978557551058 -0.82945844865612 -1.8062817318838698 0.1884592906190948
Ni 5.576026734064966 5.379555947090584 0.8426947765561691 -0.24501764663011352 1.2629760093352764 0.4710826634171242
Ni 7.566892038824216 5.503511437274571 10.175848970374108 -0.6707997863382253 -1.8604767298690348 0.04694320151875786
Ni 1.011052535696652 8.892975477895696 4.473088957267656 -0.09085764351352095 0.146590932520083 1.0484896985248007
Ni 0.4895206060986533 8.910515046253455 8.471097759361754 -0.5176800515606892 0.6486574459132313 -0.06299665543719474
Ni 8.074618808949447 7.738181345767906 9.851897286011443 0.33000906117084455 -0.3738165452740982 0.3177922073896785
Ni 8.237630912767875 8.62206510552894 2.1422626235470683 0.5026601811130892 -0.29356778762467506 2.6288473100748986
Ni 3.4030813747949433 1.533538323185393 1.4835639036934039 0.7292322194435055 0.5752835610067706 -0.10326475892862216
Ni 6.40113222380189 2.1970772273359986 11.8355119818039 -0.10327195801747376 -1.0091253377945653 -0.07684307440198378
Ni 4.940910217064176 8.25999501331433 7.916793997946117 1.7576266898803279 0.2807261557753165 -0.29585941187232917
Ni 0.9883846001077804 1.2316828121045025 6.541950558840068 0.1866885718719172 0.031048127555056204 0.1440044027398294
Ni 1.7161155623110311 6.663065651733575 11.786919551398789 -0.3342058728610115 -0.2713812242253068 0.18689297457323945
Ni 6.842503262087562 6.336240424439435 3.025598559519499 -0.0700936714932922 1.403501966608202 0.26010205176706175
P 2.0448650782071502 1.1998537896306076 12.481314285175303 1.4157134210727296 -1.0945271003998378 1.2971333719432758
P 8.97481758977607 6.0966434756867125 8.517210711678288 0.5649297285762722 -0.46598545139987485 -0.09717304420858748
P 5.893884224046531 0.9109287613852214 0.32137000721436443 -0.7846603185048229 -0.5807767229108578 -0.5501741675336524
P 4.66767044270555 3.3945832007297407 2.665680171832557 -0.7708758631262208 -0.13675620581784836 1.4931941290587123
P 9.100586883092067 6.354774362026924 1.9586311688954647 0.1713048903269953 0.6269820178223267 -0.970675261348483
P 7.870469281812141 3.025175031884614 10.412911198303267 0.19715810394467337 1.57477548947663 -0.6238064483078225
P 9.121928993041296 3.0691298346877303 0.36490036167034556 0.8199037150881493 -0.9155742066092811 0.9039481923345787
P 3.6453575961944416 6.585458816202056 1.6006803432862402 1.8904555356193118 1.864927052330904 -2.4130193976348635
Ni 3.9426647887615616 1.9979271677148405 4.534981996832673 -1.1771656984376757 -0.6809281330214789 0.4040426911484913
Ni 7.93235035211791 5.067093830892561 6.606579034499096 0.49115295180443796 0.6300156624423279 -0.14413887143516468
Ni 3.5778325597976974 3.38319399020032 8.57527727113334 -0.5332390823412108 -1.3123231923098369 1.9718489483961397
Ni 7.7077794272811255 4.160965663177542 12.674418948164595 -1.2457601596776222 -1.0011338349486565 -1.1133401193412826
Ni 6.731446950522587 6.505089843921285 7.8973218545761315 0.015508380048244258 0.6413696540025663 0.8855475783402038
Ni 2.800208200780436 8.489003771194914 7.924447878878297 -1.616946723528041 0.973946218790271 -2.0253502627483893
Ni 1.203030246892249 0.9191203382712567 1.0167047881978737 -1.458265178392011 0.7208131421418748 -0.43975479983812005
Ni 1.572622558187326 0.0881103208766785 10.567786047258394 -0.587005477429389 -0.06174735641112592 0.7976821846857876
Ni 7.928216354116528 4.5983960530342785 1.4814214062882332 -0.5533939600225307 -0.551525025134592 1.3828503517961215
Ni 4.560057594954643 -0.07767588895024954 12.102287435457027 -1.0431207209034037 0.4008776631569483 -0.49415188653176184
Ni 0.9939364949737793 7.229985012395302 6.602307850372501 0.3361830511920404 -1.4240718203397538 -0.027358851628927074
Ni 7.389894315932069 1.725644934095955 1.7090509372186913 1.5876351190481173 0.8561099898053772 1.5061951693040705
Ni 8.105112798661203 0.8748939253544638 10.30737087382655 -1.256886351497771 -1.0931906409766012 -0.5239062349760589
Ni 6.568536125051631 8.254470739815822 12.184811795114465 1.4130302178136116 -0.7706375218631696 -0.5474811940825216
Ni 5.184898963248211 6.9324476417657435 10.338216575617711 1.4813320875138036 -0.5041205677086995 -0.10224017431884971
Ni 3.2551689518724327 4.266534529734 4.566515470674397 -1.8038731224423772 -0.5385257846614467 0.7479130836824603
Ni 7.503823249716267 3.2114074986417642 8.030797509422545 -0.347795181509672 -0.01930307120398611 0.7220362159156984
Ni 2.9336654413818546 8.493588918198675 13.784009791678606 -0.16425466834843325 0.11151465764224021 -0.6347896867922035
Ni 1.4759938075759504 3.326901643250539 2.1038707641569476 -0.5831490797977763 -0.751499515482138 -0.06909942590082294
Ni 8.605575149135896 6.219871603193396 12.223796593193425 -0.26134775124870474 2.58312743944028 -0.14596229779714862
Ni 9.265771867819907 6.7095524132235065 3.98187792347846 0.09454640521901782 0.03513798135371368 1.1980664531460852
Ni 0.4027830671863536 4.381218447562994 11.186044322966243 0.887267389244788 -0.7388085502780308 -0.17008927275233932
Ni 4.487560712409243 6.718897642558479 5.485857700597844 1.1354516065283413 0.6511123352116271 2.0830229348695095
Ni 2.8977760778865576 5.430710719686753 7.2014438533652685 -1.0234175860475212 0.06452749025942435 -0.7957919096416101
P 2.2098198848725534 1.3930008053833887 8.39258862582548 0.33809903726783064 0.7226987892003618 -0.07153143238108325
P 6.051666682286372 8.880232820359142 9.99456256982262 0.3640710358515601 1.4508863694294367 -0.422501412074311
P 1.0781080088460229 5.120605626848094 5.284222638614608 0.42446033557289475 0.1680555301517622 0.36519666481557106
P 6.0834404620252815 2.2049216957038777 6.412315194787366 1.081351482249828 0.7192208579540904 -0.025962999722664963
P 3.5375421917485905 8.75798985495969 5.832314354481176 -0.42560704758282825 -0.45268359208464615 -0.024083009091132715
P 4.636458297438988 2.811348819002424 10.416805811119714 0.09749751742754176 -0.2691070834791494 0.5518006473934819
P 3.2764834404541703 7.75658638364043 10.802300664392492 -0.741435960598549 0.0474057429774732 0.48795475658211446
P 6.446882415492022 8.616356689580483 3.741204662105778 0.6852856386592262 -0.1575237773825029 -0.9997107293488847
Ni 5.1276122470687 4.158801989390627 6.688227796807022 0.4718123424942971 0.49496641201325725 -0.8393381696636769
Ni 6.253238215124376 2.785927953786797 4.350852436853954 0.27851037907092036 0.7879055649149979 -0.3948363420588748
Ni 2.55359542468461 6.675532095595204 4.437702302660724 -1.99514777102308 0.9652034396006344 1.740307738985906
Ni 7.902353547021021 4.663554858949161 4.3309484794388355 1.991610447293783 -0.7833094609038832 -0.7231168505743869
Ni 0.07153934180565863 1.8900565205340045 11.981263493076247 -0.32211937401012264 0.840661773571107 0.982250110670276
Ni 8.120589971579518 0.33760584702647495 13.55330876468298 -0.6788092869062633 0.6009130886494167 -0.9365518373022128
Ni 8.235329132143498 1.1316566332915454 4.080424517706067 -0.3935482193750706 -1.1600714619595507 -0.4314017998877344
Ni 0.8942307240237358 5.119104865880999 0.31356512947322457 0.44886473255918824 -0.3742191800291555 -0.09725609084069703
Ni 5.535994165445788 4.438477542375014 9.038903765919994 2.071664058213264 0.08216577216647784 0.39453860831279797
Ni 0.4919190615092548 7.740805375679696 0.32709775812006586 0.37705330704384094 -0.23705879679435304 -0.3976717546251409
Ni 1.5950971442037498 4.50129773917553 9.10919185977824 -0.9868958369724035 1.0936889207692584 -0.19520509398336058
Ni 0.6019064261522686 3.6905277391672295 6.939249863866905 2.6066813155008206 1.0825617005078454 0.864025387997712
Ni 3.945123090468397 6.578608717063908 12.727311104776044 1.0788855372078388 -0.6832670655673007 0.030281681702676887
Ni 8.301316579083156 2.672275233677524 5.806293184878712 -1.8150085702339065 -0.5684606245476661 -0.6493680988270106
Ni 5.618075662511097 0.26269025340097907 5.67880031823118 0.1558571883133574 -0.6256069918516709 -0.3744132983178326
Ni 5.741994324205095 3.0781988503477784 0.9002788827923507 -0.33558964058241564 -0.3360737793076857 -1.236172001768555
Ni 4.455418647770434 5.66722328240281 3.385329121907493 1.6968422116031034 0.184660742808611 -1.4835334660404966
Ni 1.2999075898110573 2.4081413034689354 4.445922421626501 -0.5130417814577293 0.9174454554900651 0.46044061032224576
Ni 3.763024621712629 5.063401774771059 10.335319094167744 -2.6501149612044235 0.3692960316959253 0.7087654669487212
Ni 0.35630182996992027 2.3586161915548245 8.993961959585143 0.3604367815330825 -0.4751923147101236 0.22574619999501125
Ni 3.4590883009473012 4.143877243822161 0.8104155257921462 -0.14602194739049043 0.1744830309446608 1.0327303788080149
Ni 7.234321567091629 7.329744184655831 5.464525718483361 0.26024834753693893 0.7364626757536736 0.16405797895659488
Ni 4.012270634842743 2.1281158798296427 12.680159589041795 0.02237656792298727 0.652351864045683 -0.4328297905835126
Ni 3.0350818956919356 2.9779701148398763 6.591432397278441 -1.6950848625923645 -1.1278144016980578 -2.0929329948943693
P 2.6793555108781097 4.6483907281957615 12.420513210338491 -0.6366722485268971 0.2554128738215085 -1.9468197733416535
P 4.614757109712355 6.184958194682835 8.107837186208217 -0.11860550305075057 -0.6223103233782702 0.4125736114376379
P 8.846866208428162 8.540701764018436 11.867988264989371 0.948634736608676 -0.8569391705748919 -1.383906560974778
P 8.760853270056417 8.75965634413174 6.56902318183175 -0.9958939267059558 0.6024724627167366 -1.5043694289492415
P 6.148000804977827 5.445322423090303 5.040868263170651 -0.8683217013802207 -0.3115451980387022 0.377745190904543
P 6.446689065919573 6.050690727301635 12.263051159961561 -0.6034435683807542 0.01419197522966588 0.21988665589044065
P 8.580715918392618 3.059315042105384 3.087155539113357 0.5033654347102299 -0.6417152102674432 0.4294829855984668
P 2.2157676860059454 0.9944613009561375 3.2088801435161973 0.412194116611032 -0.1581603825252373 -0.6677625421737984
