# total energy = -340887.71997217275 ev
CRYSTAL
PRIMVEC
9.07618697325972 0.00000000000000 0.00000000000000

0.00000000000000 9.07618697325972 0.00000000000000

0.00000000000000 0.00000000000000 13.28391707040843

PRIMCOORD
 96 1
Ni 6.678975503513343 2.0442205494120733 11.210350871051991 -0.9491522996750427 0.5025352254994506 1.3954197038207
Ni 4.790792763111178 0.7127593280603949 5.948670998126457 0.24864907273511372 -1.03911494217812 -0.7906787567847608
Ni 2.847145443203454 1.5721680571711898 4.358745380850109 -0.6029342328445035 1.8083530125906018 2.3208823731882866
Ni 3.840497819011871 4.786064069620359 5.016924150030678 -2.224428980754543 1.5504058023830136 -1.3695878303592608
Ni 3.67487555640061 3.345900077958713 3.0178267725167927 0.835735025693451 0.16616216978379125 -1.0200252725365209
Ni 5.391763417239958 4.598468357985542 1.8817595227755772 -1.1399474375161658 0.8989687368421163 2.3287905722917697
Ni 5.220595604296854 3.933519660830306 13.016644620760172 0.7201220296121211 -0.8578285151583807 -1.452148266860996
Ni 6.059017465924307 7.951874442694558 12.172332313690221 -0.9545786128969367 -0.03854777836621104 1.0556633334551047
Ni 1.7689216416126021 6.791257014405709 0.4952339817704438 0.5860189451464036 2.0008581911442964 -1.79371777917593
Ni 0.6659098653715083 0.2809016381101859 13.246204083555837 0.5183909615847847 -0.6336753706821022 0.7863958131386908
Ni 7.964281590491007 8.984227194568328 6.891829336291348 0.07882410938775457 -0.16143262551860585 -0.09272092197450484
Ni 8.92988806226596 2.416834335538918 1.27437018911377 -0.5517713368174433 1.0693125488074227 -0.4415797688620008
Ni 7.0255406325986325 1.5121472317301408 4.684865490823269 -0.2809174458505162 -1.204778317948622 -0.6900434650591859
Ni 0.8650559327384103 7.76227289370567 2.6029705962844383 -0.024512897539699718 -0.2114680928094423 -0.38974607202016104
Ni 7.85574854488023 4.124664161630017 3.4196123316740437 -1.2471809512845489 -2.622812159624412 0.145041328644776
Ni 8.048254473748315 4.022030637648862 12.325004672515107 -0.9069427561865284 0.43435702586131647 -0.41810893943357025
Ni 8.51816498582829 7.300648940468531 9.100585728716117 0.7801413475885468 0.4525540084853174 -1.2813416563266578
Ni 7.230934747180659 0.7814370207788781 0.23099531559844358 -0.800794247952208 -0.2813046539866058 0.3268568886951081
Ni 2.1327769071662415 6.768648232283579 9.20572791081793 -0.4998337674078876 -0.07709864205621561 -0.42838820987239123
Ni 0.33546949032804096 4.929331683348917 1.320911969059204 -0.20015446756883593 -0.6042850904454432 0.015562373214631263
Ni 6.956561610467683 2.2395400962881316 6.9338856645608455 -1.8806346928741482 0.07999447554677191 0.4541424360183598
Ni 3.0515230248277616 4.814890039921398 0.44912695118817725 0.7857239838826469 -0.010917418243452165 -0.8244468543741413
Ni 6.403495071971423 5.83687778610128 4.743195422603398 -1.0770680243831259 0.8303017704930216 -1.1396630735065274
Ni 5.521534740717368 3.1003982924823887 8.8475933660076 0.06156249409382946 -0.09136132262281685 0.6044591541294623
P 0.6506246586385172 5.661471393771973 12.228616472892938 -0.08981017608561308 -1.0341115754262578 0.5662559035868635
P 4.35268521070842 6.06972736672885 12.402037903098556 1.032250868068435 0.7347446646213024 -0.07258584178752661
P 2.5457071164912026 8.852332043304253 1.2955086289220572 0.6247958088042852 -1.9746506795109928 -1.2484199658979724
P 6.59844249517546 8.055397433013717 5.500525182766221 -0.810267991770598 -0.30150349753198397 0.1748355291880731
P 5.203795581933119 1.6971108490994344 12.893622350027046 -0.1580660230392181 -0.052820743345457416 -0.815060528063235
P 4.097163314648863 6.405745966377802 8.144649026701469 0.5905942232219119 0.024286640461506557 0.1659413120222368
P 4.9359119190127245 1.5392124217294159 3.6699880296351477 0.3867643636840178 -0.8782723848350293 -0.42818586405359804
P 0.16345849960125772 5.523259216270643 3.7322225371153728 2.843051570868581 2.119754228852272 -0.10434693624920738
Ni 0.744275480224541 0.09114942441506478 4.7492928051122885 0.7963326126364285 1.1019010242664056 -0.0024559177396602863
Ni 2.1015638996519868 6.543159439412352 4.67818360186369 -0.6267637311639335 0.6739185344728652 0.7406600016644728
Ni 6.376756624708557 6.02823103920481 9.056934714369199 0.4858377102391116 -1.2731148975414912 0.037180722815355324
Ni 8.870747626975794 2.499845142961243 10.059153617377579 0.5015816033369297 0.27173860756472556 -0.2476951934622766
Ni 2.5296059605358994 5.465997551714831 7.019753655689332 -0.7926713617347574 0.10139325293752216 -0.8411492547304869
Ni 0.8576615630897149 0.19007804881281867 9.25724344130649 0.41750575863193257 0.3824420821595801 -0.35177987718903286
Ni 2.0984961484045836 1.2492373193528734 11.403167205519665 -0.988439784420756 -0.10753381861762125 -1.3431422345732222
Ni 4.179130360552101 7.175606310481939 1.2324463731762605 1.0170461353035387 -0.45254449540362063 0.354209569676448
Ni 5.684270775823676 7.868673035342661 7.8447109937205655 1.232089347058749 1.5446704425611333 -0.6377539116268499
Ni 5.415933303547158 3.3579895592058744 4.78130723994946 1.5159285945417507 -1.3094890652951512 -0.18082542822292086
Ni 1.0278691154352586 7.876614699074842 6.777627304203862 0.16107189974507743 -1.1782345060218222 0.9305629667086296
Ni 4.9972578677736585 4.788106211722919 6.954768155892278 2.1540969679982 1.6129005784831256 1.0716964756585674
Ni 0.7068561759559252 7.615184205198542 11.356128958138632 2.3828649855386703 -0.32518824274343355 -0.2174029702366385
Ni 4.753099357991462 0.4977852979705767 10.50308898953169 0.27748553735083176 0.7447244015418335 0.18828702670728864
Ni 8.521178279952958 7.34770897069866 4.557433100767325 -0.9077143442452302 -0.2638584334857004 0.8722560034376204
Ni 7.624460068437729 6.379924214014308 6.817359220951289 0.18259511852883392 0.32196613626171006 0.4724180943990961
Ni 2.3010947973528824 5.90723638867485 2.4530083869343287 0.7902804929050777 -1.5853419521385665 1.438862091275051
Ni 2.6240073827969534 5.347734833508742 11.123991858200178 -0.4575087813874314 -0.09819531482551476 1.1373997313936477
Ni 1.4411260674966295 3.61998277668377 3.7448556819711714 -1.7423473951237543 -0.0515444477361951 -0.22057031222102655
Ni 1.4255604065815535 1.0972474897995983 2.3635807152164006 0.7410531233378335 1.24456819625205 0.5705301054821851
Ni 1.3229722635360102 3.258351176975142 7.767996337305115 -0.1973959309870923 1.9747296123780442 1.235240748203537
Ni 3.984909032317864 2.843968777710582 7.002696777230029 -0.7397742566254097 -1.3786849075645224 -0.390511746541592
Ni 4.25582414173717 7.020158453634994 5.927350126957007 0.7522947576899237 0.8108197505090101 -0.37331492304733127
Ni 8.544231795244091 7.0021603745710905 0.2246392617565614 0.14752398585731366 1.9590070594364652 0.1751543459800725
P 0.5727981693005605 5.780732492561537 7.960240871984072 -0.6374111835754506 0.07183353700253435 -0.47250268369310233
P 8.85359363331428 1.6809643122085185 7.866031864890014 0.32659797860676654 -0.39795611863477914 0.9939900248150236
P 1.8952167854220985 3.353378856147648 10.165371327653405 0.34411284756207833 -0.5993825109375032 0.22479566315628383
P 4.366662538877059 6.101439564534842 3.2500963847872337 0.10077156019312322 0.4413941352137559 0.8309784848450722
P 6.977173631422866 3.9265128443717408 10.213220078544479 1.0306742676099345 1.619108249955734 -0.2947204131718795
P 6.786156197242869 7.9885513148565535 10.128522007936082 -2.901441066551068 0.20185345253781364 -1.6189727528191344
P 2.788531426766392 8.644115234527131 5.721808070524884 -0.7793695024195287 0.09664596806052389 0.04292636704988091
P 7.246890684142003 4.001581988061884 1.158202254895552 1.1380725890909562 -0.10984061237392696 -0.023221689532101943
Ni 3.0393609340836205 1.8292601336029386 0.14816330906243178 -1.1585611959626112 1.1612130317631615 0.10076898908996193
Ni 1.9492382511751793 1.2484749196345841 7.057732053084693 -0.030305078741444585 -1.6759157458630813 -1.4689987627594314
Ni 7.033981486622552 0.9924810618446568 9.147305401929152 -0.01610641864355936 -1.2165210603068468 -0.8784014542137258
Ni 3.1702486285770983 1.770682421914366 9.135854884255414 -0.4471374654554364 0.45518501835026126 0.16423101419934943
Ni 6.520686800097059 2.2455757607245896 2.2565388871498495 -0.1619761567269017 -0.1965667502175776 -0.01317330415716441
Ni 4.4771015837835595 7.25318048181789 10.146495581294758 -0.030984878417288572 -0.5453438360245446 0.8426376663505553
Ni 7.767319253745776 6.4476870270708435 11.208145357581225 -0.8368621973193587 -1.7700677438571581 0.925045122214194
Ni 7.953335708821279 4.187553062201775 8.137687591178517 -0.048064716717710766 -0.052467216660780615 0.04547073073828943
Ni 3.5772430115239486 8.516404205526527 12.561511048934328 -0.33775553788548285 -0.06029725422816067 -0.40510815629852814
Ni 0.318161201485446 5.035214482319926 10.063855989925742 -0.10840362281708427 -0.6772226591454336 0.04385762061489866
Ni 9.018517029517108 2.374412236928384 5.809906988448079 1.0418251420204316 0.43324965172975066 -1.3118673357193407
Ni 3.834471230762535 2.9807378414594354 11.23895084429368 -0.10440967116634277 -0.6758784864127134 0.41710852319351394
Ni 1.2336444298764295 3.351608999658762 12.501653594861484 1.0832219597996635 0.44222562997611586 0.03205805687680931
Ni 3.387977281458593 8.63937746484919 8.086013227415313 -0.20018326392424235 -0.32060833668223493 -0.13794071304425276
Ni 5.730395958780187 8.219975934105891 3.3598746832712165 -0.16076131048319411 -0.5552639233517341 0.2868101571858673
Ni 3.2898001653545816 8.722760395943537 3.5437636800852075 0.49889171520959236 -2.809611031821948 -1.512846098961685
Ni 3.421250583449654 4.402822068373074 8.988270635931398 -0.05848616916135088 -0.2819302033857467 -0.4854543587577639
Ni 5.026927923477089 4.845939676067448 10.60431207403401 0.8484730420854096 0.6154074256108498 0.925788942358754
Ni 7.897707757947517 9.136906814342913 2.7231765261534533 0.1896448262867637 -0.2800386427899887 -0.6985759280102292
Ni 4.493765463340457 0.8412917519955857 1.4969246506882945 1.7894255795584797 -1.4296248889474992 1.6536443360593907
Ni 6.620198115708076 5.862645081342039 0.22594714032091273 -1.7632376083092018 0.18805845563625032 -0.7463596231524113
Ni 8.1351226606977 0.022628749733800625 11.221589005947061 0.6047759140389326 1.0686098663134433 0.5553428562187855
Ni 0.34923171286187776 4.8653536403224615 5.958979731460185 -0.255913724717327 -0.2826742806406229 -0.9955787094583821
Ni 7.62875310494667 6.411001078721726 2.447481896595442 -0.22580636380898533 -0.2658394684714712 0.2576579611019434
P 8.889453648635252 1.7659083474879345 3.532671671802808 -1.0983655003093213 1.256162843068185 1.067717436406161
P 2.089701323082888 3.320695506319549 1.5403369613138929 -1.410149810942023 -0.8994654739728768 0.008531948730411113
P 5.067462175166145 1.057766075816752 8.099762743287178 0.20316060138501138 0.33555364513815755 0.3344604120739788
P 8.719284216275621 1.8681606716099453 12.199338508473199 0.13193975826581147 -0.11374791784813314 0.77210587887858
P 6.627186779792396 7.918610216890619 1.2244738504078623 -0.3863033648871992 0.481961258002841 -0.49587838230456543
P 2.315680230058729 3.2912342029199353 5.705389248020294 -0.8345242932148015 0.14513311702763393 0.8695108365923154
P 6.9577778195420965 4.23867922426278 6.025797713437269 1.3506701675191513 -0.1135363160579593 0.5486960403262292
P 2.590171357204298 8.420795650378182 10.52100901338634 0.5136601317680186 0.9985506476025126 -0.3418417921397145
