# total energy = -340869.7244702697 ev
CRYSTAL
PRIMVEC
9.32787233714223 0.00000000000000 0.00000000000000

0.00000000000000 9.32787233714223 0.00000000000000

0.00000000000000 0.00000000000000 13.65228404119145

PRIMCOORD
 96 1
Ni 3.0321181599632325 6.560087354035015 5.23154182635347 -0.21667714781420747 -0.46497732185033464 -0.5693695095151807
Ni 1.975811248406731 7.217506463725684 9.786175819483349 -2.0166961866178172 -1.1632177208980161 -0.4826796242261041
Ni 5.094902489411916 1.4710800798975001 9.166812563078285 -0.10594024887825625 -1.5972230198468684 1.2678089119475457
Ni 6.226242805505254 3.704685734219766 10.78544092653666 -0.7333192450286855 -1.1188489649746538 0.5845935255537867
Ni 0.65311056548933 -0.08753928288871883 6.767123210208177 -0.48175556974993805 0.5234038414183437 -0.4299164735914596
Ni 5.223813684178088 3.0177625645402846 5.079714847782518 0.5343865656820926 0.39934708544503483 0.4170753559627333
Ni 0.8320891146626965 6.620317425279962 0.9295290011783919 -0.6869190604975911 -0.7036993652797235 -0.23291443560867628
Ni 8.666404863366024 3.9602041393015135 10.378247587201956 0.707397382956601 -0.22815738053966514 -0.22175970454343744
Ni 1.891795102874248 8.467161511686903 2.682250192448715 1.1687983003095872 -0.5436587350126378 0.8283647013713088
Ni 1.257518444284511 1.8204275521393725 8.603792453543415 0.6827790701872886 -0.02536881778209179 -1.7054392092434951
Ni 4.611410886060614 0.9289058993107812 3.9786985116504923 -0.18515182351241663 0.8534668957555753 0.6781315441129482
Ni 4.2279700406732745 9.35296424602699 12.730167973392103 1.3654830641622675 -0.231620142277285 0.4494316608062518
Ni 9.118937258654451 8.834278580602405 2.0624914342594174 -1.3206587087587254 0.203867654754365 -1.7853832911683059
Ni 5.336755561618667 6.631156412857263 3.9293867148971375 0.8546825133302313 -0.7327181211095769 -0.6143535304250387
Ni 3.233227086096276 0.35977789901376317 10.1734364285651 -0.20468372289775716 0.418514402402105 -0.5481571371036237
Ni 8.37996456171048 6.633954774538149 2.6337713746890374 -1.1550405844038625 -0.8934213246613257 0.49559196141239814
Ni 0.7601973375062681 4.612651493072473 2.319263505374202 -1.9943664127723653 -1.4944619400275423 0.3603925585587084
Ni 5.790920334554279 8.578750847648388 7.604499362873295 -1.4109671646369957 0.9545264195027625 0.2032521326575532
Ni 7.669180694765306 6.7111988848028865 7.0626675151988705 0.15713399814325196 0.11736931665080431 -0.3931406995240068
Ni 2.126670926623323 0.30138075466979647 12.208882629965975 -2.4717068841737433 0.7569926773862253 0.12733876915869036
Ni 4.347842527210183 2.1475840162518143 11.670258637565075 1.1039779614000924 -2.7721521156445417 0.5943148666066087
Ni 4.136706138387296 7.520102640152212 9.079943021418524 -0.6589912237390715 0.6481514528110902 0.642832354591022
Ni 2.6908579529791217 2.457866359428511 5.5652986928838954 -0.5736126010622509 -0.25863060942785776 1.0474648568047122
Ni 7.007190927662523 4.9017595661971285 4.565323734750867 -0.09222007107868634 -1.5233344000875184 0.23932059624533622
P 3.802012753480999 5.948477425060459 0.4018577963964806 0.28423416892857495 -0.20405046018913245 0.9735862643476911
P 1.1698084613332582 5.1310759780735085 10.693479299404915 -0.29988344543005774 0.06045049197657331 -0.7878813965452818
P 4.15782444120572 0.6309979114869648 6.36939113171655 -0.27439867089539194 0.5158779653549438 0.6277371508207963
P 3.809484379168966 3.697633862783932 10.613722260350741 0.34605583022106207 2.9676989092380377 -1.60759125045507
P 3.293149337556326 7.762347482994287 11.234259895874551 1.89194728967349 0.19427821129371703 1.9816245397256647
P 0.6517253764572912 8.611948745055972 -0.1964711080405881 -0.3835728533299136 -2.1166365091588966 0.658760595785504
P 5.7023988267155685 3.7217650683454435 3.0744946836841236 -1.3483345774074391 0.018537139572239042 -0.5149382271494938
P 0.8227052751594571 3.332830106191297 7.010461279680253 0.46415456883872325 -0.41276310174062464 -1.1282139511293217
Ni 5.450238455650886 8.437200385956878 5.348131834638698 -0.1213460419103652 0.16100967904857433 0.528534991997322
Ni 2.6858675413148743 9.105934204710598 7.896658583017343 0.7790920803884259 -0.0320112627992739 -0.738924764140921
Ni 7.961674785523833 2.9718507772292067 5.80875989026993 -1.1624175935942238 -0.4302903119911106 1.038177260855199
Ni 7.945089828628446 7.453287091084912 -0.09246719780875999 -0.38828080032854423 -0.09014724771005765 1.6268285014181276
Ni 8.576167027029703 4.584677204135878 7.571337844167562 0.5255491698961207 -0.36025397609831505 0.23837340184071848
Ni -0.4287705734687932 6.318607396719049 9.437250899855291 2.4874834302817095 -0.04576769315341795 -0.15545918154399035
Ni 2.48698797665427 6.203865239930432 7.617715092304895 -0.508698416887369 0.19749646112069857 -0.2713601411793843
Ni 6.721851314934795 0.4894558448804981 13.338622283177848 -0.6864328648897919 -0.6603382246852691 -0.22475606816760002
Ni 9.459395268623373 5.42223618309748 5.166897805950537 -0.16576956233106288 -0.26792437602495794 0.6935998149518764
Ni 2.3829915287202574 9.266784034127955 5.083346188457082 -0.09151841702597141 0.7733184111294424 0.5514334938620503
Ni 6.271119198994404 1.4029679565847226 2.0499044034187897 0.6777139969595555 0.12741513092258056 1.071535781710987
Ni 6.94857457832022 5.321989539815856 9.121159157829075 -1.5331472724128823 -0.3801699982959517 0.9372084970496053
Ni 4.592298075780159 8.993925114496982 1.985424553567803 -0.6576820180093447 -0.9288313287295036 -1.219750365877422
Ni 4.995355436550512 5.614166482917217 11.145547166654314 -1.413941159663655 1.3411838252952708 -0.14723447964135286
Ni 2.501893916541125 5.647980019894596 12.311151555955654 0.7976287057400328 0.9480158720777543 -0.30300502177817495
Ni 4.382654146520411 4.811997451346559 8.752260465310075 -0.4641252582626845 -0.7521757156135562 0.4470035109807334
Ni 6.8717968616689635 3.173398113358923 0.6192391957038796 -0.5890983554026757 -0.716580849228082 -2.9655893190942026
Ni 9.086802738685604 6.446343279579248 11.848530134020404 0.5479465637547144 -0.4397355165644104 -0.3208675038808925
Ni 7.208486411240959 7.833882935430016 9.170539048049998 0.4188491600337044 0.8191737789006602 1.2097163786801877
Ni 5.653474136661402 5.368619573291695 1.5358276396826254 0.266332863168122 -0.1437642617045653 0.49059013732243256
Ni 6.7049865218713185 5.1195280722037175 12.812067624706609 1.6002175836988182 0.255297945510199 0.48176713971416385
Ni 6.932176178870225 0.9630655003493629 10.445867198858897 0.43732176491659525 0.5832295553267245 0.696092242356427
Ni 1.9168777514072608 2.8612128842392233 11.203951773296097 -0.7395533988638554 0.02122059994167313 0.23939104447195547
Ni 0.24020950111284425 1.8602482388583874 2.212229902229201 -0.2185021168380882 0.7081144636282837 -0.49808181771378734
P 3.8518515750175877 4.506882749407233 5.858400028127176 -0.5090555431164717 0.3442295756456007 0.7948496003329989
P 8.162429252510632 5.003125554151108 0.952163083240629 0.7724118401547729 1.4698788513715395 -1.006967410911298
P 6.609748945998481 8.23201517964201 1.4277828951835971 -0.08137618638564695 0.16389677078838227 -0.9771870943250718
P 7.383160147361895 1.3503214454949777 4.374068772883452 -0.9984783996036805 0.9161118242803062 0.21624597381405986
P 7.781908031143684 2.9014066858490235 12.022556515805828 -0.18293476125643976 -0.8254842944997203 1.1082711894588075
P 0.46286208103980664 7.342481296394076 7.632910196232109 0.9119042139568617 -1.0524862212787034 0.037577444033141734
P 7.395911348754468 6.89161859024191 4.9041055260729385 0.2507337231782843 1.8352246401704653 -0.5017307273202843
P 5.031370351383522 1.7258149437085992 0.17088568719224273 -0.830698234600492 1.4262703706529696 0.2968631705464952
Ni -0.021427988177774988 0.5646953953944938 4.258857424119673 1.22179799243507 0.9226552818257787 0.2977188336785711
Ni 0.2376601936215567 8.912987166813473 9.214813793777758 -0.9961669778616844 -0.23881306048129844 -0.297350651705875
Ni 8.901028834563817 1.048844613740804 13.486395368460421 0.5622892056296317 1.747192124810565 -0.10955470570239197
Ni 4.526331363089394 4.118740656396004 13.149292594146882 0.03108232322710131 -0.9949554740520866 -0.07676182754208714
Ni 0.35778546549697193 3.215326899210872 4.5020723656777895 1.6369077400310001 -0.4183310827467053 -1.067409675357755
Ni 6.202624632918572 1.6389258135170732 6.822960786401359 -1.1850147621684493 0.5611077837270207 -0.9065069542006904
Ni 3.221334048952509 3.930625456334543 3.766637730685686 -0.1214771681715908 0.9569021188237907 -0.7695694856099715
Ni 5.352417059159363 7.3232658795186545 13.211601848120727 0.47375121138822285 -0.4609280914816255 0.7517980205591633
Ni 7.777533259049231 3.6934269923903327 2.5441165303695685 1.277501456644961 -0.30963666816207963 2.543154755702085
Ni 3.8288210583838915 2.2638652719649186 2.008428019371917 0.9255346602561029 0.41255432816392823 0.6817395731791808
Ni 6.165788865325836 4.34544526403689 7.111324495318899 -0.7909561788158637 0.05294364207656688 -1.0566760909903352
Ni 0.43590079903169204 7.702042788771183 4.696454030329982 -0.9578914793202535 0.4325189442113132 0.7422468865356185
Ni 7.08589951387359 2.6675569280496068 8.965892059965087 1.0140986226394406 1.8219132677735397 -1.9410628162532182
Ni 3.415950775985896 6.236372874790064 2.6535809770280325 -1.184108448304096 0.013917638522356677 -0.993787164775598
Ni 2.7038703347952446 7.807932794775929 0.42180545124506663 1.1274446770634647 0.0711514233338452 -0.8667042203814557
Ni 6.945571003449402 8.736643741556275 3.4469015889637276 0.5522670455069392 -0.5356024403670646 0.87789777510443
Ni 2.080572581866852 3.9993532192171157 8.926818535814869 -0.3315769198785967 0.772863840090527 -0.1784427869233572
Ni 2.5975232630492875 4.142713288128932 1.2646859813364886 1.1914659171104318 0.33422412769345666 -1.5346948194056602
Ni 4.092016302343538 2.4981720955055464 7.643886303531772 -1.4070981685998927 1.5580797739885037 -1.5230639200349512
Ni 0.6157477731133604 4.317601565312069 12.814402391135696 -1.0997199574546868 -0.9252585237765806 0.9647758651449124
Ni 8.075306925512365 8.721103506355085 11.572699354284328 1.0698748490687962 -0.5277225233983557 -0.16422972864776875
Ni 7.685635061448918 9.195015384885485 6.170217739079453 0.4438485102915195 -0.5919093424889097 -1.136854657523455
Ni 2.4989369810316555 0.7850747728493492 0.9914399550063251 -0.4050688184201604 -0.7866027869431743 -0.1835086314820388
Ni 5.613858663132319 8.296237580218357 10.872514748599125 -1.1870824433307556 0.7680913584025482 0.5649135306263561
P 0.8045401767015958 1.1404443194284892 10.477923364700679 0.22369240278977603 -0.38313448024091434 2.1123417384382845
P 6.9241448808460815 6.717084772205018 11.339149953971994 1.1683856382522007 0.27715797880808396 -0.18631216236910494
P 1.3714490761856706 2.4207507556676866 0.3799363637756426 -0.48970567783495017 1.7047095301663222 -0.6975531431726696
P 1.9343954955296105 1.9583308157734596 3.550740395856383 0.7519175768561631 -0.3066855559535557 0.06090686278770156
P 7.4871659231681775 0.7459312896571086 8.167697634768516 0.9965744977127483 -1.6259013616181677 1.7222056300685566
P 3.8006415562573643 8.247825923139018 3.900771601135619 0.2588584091679477 -1.5966149539492245 -0.9986653188035058
P 1.2479760309526882 6.2943082894566835 3.372701163420568 1.0855058707378338 0.5994349614419935 0.23165176684616878
P 5.4578779830397055 6.450559477845117 8.000770696567498 2.0668057016796983 -0.41799015446751886 -1.391672578073442
