# total energy = -340862.9159890978 ev
CRYSTAL
PRIMVEC
9.24721646906549 0.00000000000000 0.00000000000000

0.00000000000000 9.24721646906549 0.00000000000000

0.00000000000000 0.00000000000000 13.53423602544472

PRIMCOORD
 96 1
Ni 8.30172575171627 7.577724169985781 12.146124770568166 -1.2804937065040656 0.8465724826285872 -1.2411560852467076
Ni 0.38768493515799296 1.0993183645962947 5.895486234183271 -0.5518078464823336 -1.7472564023895971 2.1355713983901867
Ni 5.91776555329921 0.5892807315514825 12.200220988070445 -0.7309772271590701 -0.66460651304332 -1.4487220147882662
Ni 5.380030656893231 7.872608662281532 10.877425138281405 -0.36408749091179227 2.17102948208748 -0.8027714262832368
Ni 6.6338792592127005 1.8637025415118178 9.2364399607523 -0.8986764024126782 -0.35660249538865685 -0.9596526849857344
Ni 3.421229739177409 8.983079170178296 4.87794193129542 1.4100199702323781 0.16439607902230396 -1.4243739249612049
Ni 8.804173269320762 2.841799142819674 6.865647798869127 0.9933045687122247 0.3170648423053507 -1.4649186791527868
Ni 8.016412128670922 8.638962496347139 5.725564004317782 -0.9747900548478051 -0.741748092522329 0.8907262943276659
Ni -0.10184607020595562 0.5643585579120997 0.847901338965707 0.1338140924703889 -0.4411773912172595 0.8523870324278352
Ni 6.4581081648052985 -0.0616955801592648 3.583784711524254 -1.0955629978635197 -0.14820070020936413 0.4917473908553273
Ni 0.7115936664066334 2.1566636127408216 12.441956177850624 -0.34454890665823246 -0.5979398649537058 0.4934260641093308
Ni 9.185047629403469 8.552741448143507 7.8929229478557215 -1.22900839414058 1.2677423203756684 1.2126932019203243
Ni 0.13998344118422834 8.859009264156406 3.5708996398203783 -1.685923764918387 0.1525944584016856 0.6653205083912089
Ni 5.284377447689203 4.553967544808444 3.630558982869557 -0.9290889532662644 1.108372490923362 -0.6736033172252915
Ni 6.495929280973558 6.138783278858517 11.560457851290169 1.7103222483674092 -1.2750146856673654 -0.5034106861258685
Ni 4.076737187055014 2.1834620466419503 11.887051974258922 0.0948384825381399 0.13273705735612623 -0.15548437835497095
Ni 7.2145767242538215 4.639744726612056 1.2254901629666082 -1.0521861735397813 1.6718366906977014 0.2040250062678357
Ni 7.590503823419652 3.803269248560164 8.232104382151672 -0.7732063110316103 2.621514009638279 1.366755503116788
Ni 4.15983267602518 4.693563527614323 10.346301077070704 0.4303463620400266 0.4598114613786791 -0.8618713177691867
Ni 2.5251467024896725 0.5239084580453962 8.541280447806358 1.703923543929917 -1.349878267745475 1.2229567886298616
Ni 3.538678638065688 3.275586076671275 8.594591576613603 -0.007579869229786946 -0.08373620197739128 0.41416898094921567
Ni 7.757027701159998 6.7983779965029605 4.393348014910013 1.097202847459788 -1.5028781891156955 -1.5883653123459225
Ni 6.228472033312294 2.811209350085053 2.510343758049049 0.21508434940579085 -1.3453752376687993 0.5964100585727407
Ni 1.89130548326298 3.532908374865445 5.0310277537752 2.3226590054727354 -2.260528811800894 -1.4761798538889028
P 2.185607400908707 4.452747511170847 2.9961009742911724 0.28421462854454926 0.4742296936865381 0.6156681354714042
P 1.9999417846675551 0.7896207559215859 0.3822706897994316 1.2447018936164371 -0.05050469361777108 -0.15788141783223777
P 5.279531906155666 7.0146981359954035 9.018443300878118 -1.9659981460423175 -1.886650302940609 -1.2416096278443585
P 7.955916837235041 0.8798504725503857 12.667165666725108 -0.14674211338596663 0.6660440168207948 -0.6294327933556643
P 8.714780425800331 5.380511512159918 6.996997113851325 -1.0708348989892202 -0.7927302399971509 0.270151979803896
P 2.914815165622749 3.753343525774728 12.961765344747514 -0.8716949887278278 0.1529919509504204 -1.5834668466030406
P 7.617736876504133 0.9386387277895281 7.415407775828946 0.6274576719071645 0.7743342539884664 -0.0857948842786329
P 7.698760988940878 4.6347419823951785 12.648514955429324 0.2928602200346892 -0.16949611925303068 -0.4945208398354064
Ni 3.6194715700857567 7.892934044515721 0.4961150236308925 1.0221595452707042 0.17263209377885108 2.5524058419867073
Ni 6.659632757630451 8.422522143038023 8.341447170909609 0.4205229481917016 4.400352557709531 1.1818538479419645
Ni 6.3899746724024284 6.7325840499168566 7.109533891246064 0.34277098882220325 -3.1802826037091614 -2.7160663283945676
Ni 3.6217186437358513 -0.36932458646555305 12.019214119586154 -1.5023716817929222 1.4873003892820966 -0.09604124459698943
Ni 4.43474318032009 5.447618563512744 5.549808630178714 -0.4558234232652085 0.9186546453068178 0.6216485214245552
Ni 8.966878046577614 5.171237751767771 10.620328472173911 0.2654774571463621 0.15046712764603762 0.3975766238081733
Ni 4.347985793549769 1.3113200539052223 1.2236342465815297 -1.5535793150149888 -0.28799440730195563 -0.0670217174361878
Ni 4.373730044750854 8.043608192888733 6.988592318622638 -0.4252355231760225 0.5236642941685821 0.49471495812408356
Ni 0.6573032573543471 4.392335444684971 12.93569836568475 0.3068387937019683 -1.204320661585913 0.4184354695350535
Ni 6.403013247902978 9.314998765225608 0.9840009491497718 0.8828574331025504 -1.593880585737197 1.083285208937431
Ni 1.1931498721169127 6.6591241607137635 8.152401696976648 -0.995964117822259 0.10071165348946526 2.390615061797734
Ni 5.150736672416909 5.680509715272552 0.6549026799075793 -1.5189820366560938 -0.24693388981621991 -0.09882626354129433
Ni 3.8901006130638205 6.285629079531368 12.098172403819481 1.803629124752371 2.096210122983744 1.183615824938394
Ni 9.309265490892033 4.6845197497139415 4.8112584024659455 -2.2310477716226416 0.7001522713584135 -0.38811933505001545
Ni 1.6680684257035792 4.679711197047073 6.8297408565509485 -0.10544171197528293 1.0776979446576407 1.4212425784210747
Ni 0.7319255216924896 9.12294332226752 12.093300045357607 1.3349296168554428 -0.5761736769212077 -0.6527030767375147
Ni 2.156867051507497 5.299136005489824 11.424993524891132 -2.248573953431863 1.7378055413893427 -0.27039340639074083
Ni 0.3170482212033516 5.098896775781393 2.10422172230028 0.13487647229663222 -0.4243235528847144 1.341991665908547
Ni 4.751663789933436 1.4051423142091737 7.7686921402638225 1.6387003131550486 -1.305853782535409 0.296466963549341
Ni 2.037171078969123 3.218835907985552 10.78364633989579 0.30736535562939965 -2.1337094054807832 -0.8724115551788783
Ni 1.5382375036981117 2.456079241203431 8.018412301636005 -2.121787714342533 0.8514748050262109 0.5570855499415052
Ni 0.6336322321300168 6.807791663070025 5.933084492429854 -1.7695028724926234 0.24221283019146672 -1.3022113006868155
Ni 5.988451277502187 6.942838015275711 2.2538296665915802 1.5348696544206277 1.3901517705535413 1.008193055788283
Ni 6.798359502069627 3.760916996225047 5.833756439322339 0.18578611466230585 1.8124642065454977 -0.5839006132518202
P 9.140392820118254 7.50843477549953 10.04017011986448 0.3882885136380281 0.08626591037778047 0.19724089346646675
P 7.912741582616556 0.9761916746744428 2.629918592049085 0.24689943703385864 1.7656508457363849 -1.3402677412389046
P 4.164641228692049 3.545752758815986 1.337264969707982 1.4953024336509668 0.18636512709422742 0.847491909119063
P 8.096964633057647 6.986817777744229 2.078439557510861 1.678312271119716 -0.16523785819730896 0.42108293446022965
P 4.441438165187038 0.6821292599403925 10.138807405886968 0.16851035830099365 0.24944534338416394 -0.27353143779909017
P 4.056356321520822 3.5778313534340036 6.462665193178823 -1.2591787470763731 -2.037108688835898 -1.1134853866698953
P 4.530331659007448 8.78860095645344 2.5961098431926612 -0.22431898063018144 -0.4402096279873515 -0.19989915702492023
P 1.6796459409707334 4.632874044628433 9.099121567411517 0.30364368380343837 -0.4979807733595488 0.8986535195945426
Ni 9.159978425019078 2.7795191385670512 9.75038824172561 1.4143687341193771 -0.7098098490528356 -0.9549609359370199
Ni 7.638348922455 6.425132590170577 9.026564206555127 -0.07518702685579953 -1.3364537668094532 0.01978798126020463
Ni 1.7282955478561157 2.802711157968028 1.4951001626679619 0.27473522829920427 -0.09444201843066961 -0.7113573960456135
Ni 2.923729482489791 1.5636026190158465 6.475685274246039 0.23425835123108044 1.2256099099819924 -1.6009979135082686
Ni 5.20253033296909 2.3865401718671686 4.865760572779908 -0.5852355300131599 -1.0821855481153493 0.89507737220751
Ni 2.2738535895624237 0.1607554639834364 2.6780873436677797 1.2552297897309543 1.5598769750982426 -0.7247590141635002
Ni 3.0328466391610527 7.66018160100592 9.999526753169436 -0.007723336786186698 0.03128209794273322 -0.24371795398208349
Ni 5.324935739990911 4.485195994455548 7.745806203734526 1.6411228065536123 1.64973600214392 0.47233736175983165
Ni 5.332786626941242 4.390005146084873 12.293309019371032 0.34518294069780553 -2.844324266933418 0.6286025841448852
Ni 1.1942965269836276 7.54857694305122 1.9154194501656625 -1.1972789242477833 -1.2045119516611125 -3.508298288599061
Ni 3.4182891242772846 2.4687016919539624 3.3312219557486182 -0.09161817582862931 0.40413910751703946 -0.4638334380538786
Ni 2.569089476091523 5.554849287983927 0.8125510790908849 -0.13713390087224123 -0.20289860597287634 0.05416645874007446
Ni 5.681499167455926 7.486546613648608 4.928519582855884 -1.2647639544736347 -0.44747505130051324 -0.000695740515443963
Ni 7.527262108633656 2.860515509353796 11.130204278927051 -1.5125211115220984 0.9570666694261131 3.0484803994624787
Ni 6.337561448333554 2.2006526224260075 0.2465853549220509 0.8069193870133394 2.4161687418971227 -1.2974994970334428
Ni 1.8135641327430396 7.373934009077199 3.9391127108425508 0.45143326461731287 -0.9629778927042254 1.932752239504994
Ni 7.9483896028680565 0.4670833869046699 10.474362081806099 1.6334151534967096 -1.3588989831868468 0.26929605956150393
Ni 0.15915846966503586 2.0740119901706744 3.7112631416096225 0.11974090220677443 1.9846211604601436 -0.8801739727331164
Ni 7.556779224234899 1.6113090098011889 5.096953010837977 -1.6315829853839772 0.16446138504260063 -0.008386938512114589
Ni 1.870970853812124 8.67866079749881 6.605641033676511 0.4960581024155392 -0.48074666886944956 0.15161538231786792
Ni 9.026106469330108 6.216284201745114 0.20751863866873907 -0.08599543032521319 1.4198156161665612 0.30156083313248067
Ni 8.546046463276559 2.9616985541247236 1.5908680373586617 0.7125179920126181 -1.8701134816278502 -0.09793897584033455
Ni 3.856847621929087 6.6950680918986105 2.8976125684570246 -1.551569997894444 -0.6243612923700279 0.050602138427583813
Ni 3.358542857391435 6.060616556371892 8.224078722806333 1.7156292624026195 -0.6742509781116195 -0.21415052473761184
P 5.581749441268393 0.2729806101764958 5.762715621999346 -0.21162467299196455 0.6343376868564494 0.02580821931235555
P 6.143166459558701 4.054969239020763 9.713358687304051 -0.6574570464827323 -0.3260811868713481 1.7322694420624618
P 1.1335515606977362 0.862661746209662 10.034161278474226 -1.2552022789271284 1.2700329161820578 0.8437486400265469
P 5.89093937774808 7.574792802302324 13.100707549335032 -0.5554469858968176 0.18151422675982934 0.436699300841248
P 1.8384668872274217 1.3200124375722553 4.631022751851688 3.5842785007801177 -0.7010323599705217 -2.6126079653979004
P 7.378557617410727 4.5696693187091055 3.632209611044627 0.8603176001288216 -0.29692667679457896 0.08521612895702743
P 2.7816737400504756 6.872688629639423 5.773664326533142 1.2920855251067231 -0.5841312412053876 0.7764728975980241
P 1.8666708980619426 7.362569179793387 12.937768817496503 -0.6544277727381052 -1.5196569512359313 -0.3826297726903539
