# total energy = -340857.5779234894 ev
CRYSTAL
PRIMVEC
9.40051838828575 0.00000000000000 0.00000000000000

0.00000000000000 9.40051838828575 0.00000000000000

0.00000000000000 0.00000000000000 13.75860888021278

PRIMCOORD
 96 1
Ni 2.0456655765402156 7.833254443476712 10.39359651387968 1.368558874874114 -1.134495927483291 -2.8269605788439893
Ni 0.7998148934029127 3.909807145750911 13.77278012661539 0.7617024241570689 1.002692437685028 -2.598040866217003
Ni 8.65833792992477 4.164175768968389 8.301449134820484 0.6352902805777059 0.4617264190132048 1.5011182690017955
Ni 2.2427474415668027 2.9933506219521058 6.152161645655032 0.35858738702916954 -0.3786952135226381 0.5165677923331169
Ni 0.9242542536838306 5.945752586424803 8.95945439032759 -1.1554972123253067 0.8581923262557026 1.0992198778898166
Ni 3.191024719628188 0.851361695152819 1.3200875157774872 -1.5807031678149743 0.6780243291111226 -0.4830660610312455
Ni 7.059779802198984 6.3125138057909975 11.901911546547884 -1.6312325440230937 1.4402615427257388 0.491190747020909
Ni 3.6399088663911052 3.1037785097874178 0.5518527233700581 -0.06329747450706517 0.3751290934379346 0.785240616488325
Ni 3.192049376116998 3.312319606555832 12.044052082685948 2.280028829507035 -2.8795810332531824 -1.1907015281405817
Ni 4.801634311745297 7.013914673676938 9.215117464907536 0.03337934679139412 0.21972313372938287 -1.3413594316411865
Ni 3.012038852225077 2.9857644037276145 9.05209179738242 -0.8805406120439158 2.3759032095088566 1.38181908231813
Ni 2.103008737840582 1.3744967753332888 8.047052310048269 0.5049042399522594 -2.166171639774547 -2.907699131645637
Ni 4.3407927057735165 7.859002462952402 11.458238107048706 0.186736137280401 1.3538079418171847 0.41009352532826143
Ni 9.178412201364356 5.753117166528555 2.5101066409483743 -1.0802942446299073 -1.999502962667982 -0.8742660918891136
Ni 4.918839973235948 5.924770629699816 2.2403691104505743 -0.016413151250700767 0.26719341139620434 -0.45378325290672816
Ni 5.9824616101752826 4.321455839741573 4.135810645213024 -1.777958202348828 1.3278811946490938 1.4289121791511907
Ni 9.293493345731418 9.124754043216406 4.58498714809339 -1.6650260955337712 0.36734584994808994 -2.132821346448875
Ni 8.82636279305309 8.16734886193819 11.52553171691242 -1.3202352480680617 -4.642661290048914 -0.1261977135757117
Ni 7.5578944630160025 1.6320333731996552 1.3804285023464906 -0.023735910164359122 -0.6027984785975876 0.008879047657184709
Ni 3.8321494645210215 9.377881798025417 9.479709151717499 0.05678615575110865 0.706223674363474 0.19616360124188797
Ni 7.308197897366768 7.136450429013048 7.836752376316035 -1.1138329998173009 0.19892265204426388 1.2840744818767886
Ni 0.5224206407937767 1.8698570843042401 3.789615879665343 -0.1737150424303847 0.06664247971989812 2.4005240933813305
Ni 4.650464577831987 5.909579392214342 12.599074660808546 -0.5497766749849177 -1.520647854394291 1.2501971124030533
Ni 5.545224705519113 2.6417712395531385 2.223102238536392 -0.8719731820898788 0.7654351517266237 -0.35481146492650506
P 8.760888183469966 6.527409652893682 13.513457430282292 -2.5644329483545705 -0.19318934910491245 -1.4248408372952945
P 1.2874949789669132 1.2793541301659104 -0.020980076621337305 1.4542223757812052 0.21428782164642451 2.695756927413254
P 5.587470634516464 0.6744965846659973 0.712219924335217 -0.39625584811422077 0.6613306705055255 0.8415919986948603
P -0.13495383993902604 7.859162271762583 2.7143949432623153 -0.376029750875333 -1.8252703571712305 2.2558332060974373
P 8.538659932135431 3.634550570990907 1.3253048034039958 -0.37179848640280483 0.06787558079605086 -0.04506063978406433
P 5.937498931404848 4.068957919655043 13.957695840928054 -0.4077764471593106 0.9011744862441835 0.6221504007616381
P 2.194757795921168 4.949983890184818 12.117976818120367 -0.40423680943716833 0.40415787657011687 0.7972268423159238
P 3.4735572955105667 4.259788440048065 2.495329966317547 0.9579868672475372 -1.7481177219486281 2.6681772180227727
Ni 5.225184061835347 8.031558375875274 0.35801121698285426 -0.18208629721321545 0.1986017783697354 -0.9226809928573916
Ni 6.792570071057524 8.335552334913183 3.6749652790339455 0.09850847519055939 0.2432847230994068 -0.6178895686027552
Ni 1.3599729746432778 -0.334470439191317 11.886557680096754 -0.45752703621987656 4.332258433144771 1.5119238442577316
Ni 7.775196842789653 3.1750344380918074 12.906084306099757 2.1325362111082886 -0.7982457704987413 1.9139829293172907
Ni 8.66190072633999 5.869984409362351 6.633533983475992 0.5430745803743937 -1.107976541036524 -0.2637861854868683
Ni 0.382817304530298 8.496498607802295 6.581650643172881 -0.5999774642090249 -0.517168144921277 2.517915521519322
Ni 9.053404109729556 1.9181193449790075 7.894524201248417 -0.22916988096457952 -1.182914427995995 -0.24784097501152155
Ni 7.638334697646697 1.3973306341527296 5.6244362924150595 2.493348373702919 -0.5027074894112569 1.614329083399536
Ni 4.804764684321203 2.212458971778314 7.91880856003321 0.10516557549576082 -0.4765377729944245 -0.48540705045959626
Ni 1.9963222562671628 -0.1053976705218979 3.4871466846869295 0.7844939681302877 0.25946981749970155 -0.031385199179500785
Ni 3.3963132370834996 5.4995475873619855 10.235152658947646 -2.5555436162847407 -0.5070436548927655 0.6468741287605633
Ni 4.48808942616949 0.6547113139137217 3.052635930322088 1.7949958745574055 -1.5116176258712226 1.962824376300026
Ni 3.7811140509636956 4.941852441902061 7.835981533819866 0.10256798997191367 0.4221106043937956 -0.5741656453522433
Ni 8.914896873893557 0.22511139028057087 13.362622354818537 -0.43614214278619723 0.14730004277196568 0.9864965446514559
Ni 1.2621417812575546 4.001057976364462 10.365515285775345 -0.16491081387519343 -0.18719122253994858 -0.5382712454484794
Ni 4.016456025251347 5.789506572658673 4.3668584627659195 -0.39643479689424627 0.3458701965728172 1.004805884483605
Ni 1.2565390723829615 6.67548661630407 12.115927505142746 -2.1401338209498886 0.48793958707346297 0.8797355996441172
Ni 1.1068922224254973 2.1069099529126563 11.910731112766246 -0.7097656260784615 0.5327968525974696 -1.0613282450503656
Ni 6.8889911867063525 8.52618544442304 6.030370411364002 -0.4967605277992026 -1.0979978325572575 -1.472227039888742
Ni 1.3292144789424913 4.332764663191465 4.336713820906594 0.6325469135046138 0.6352681690905189 -1.1852986119574553
Ni 8.983050631176779 7.99104214223518 9.17867071561612 0.6920113874188341 0.6902437539954499 0.0901341350839351
Ni 2.002141177061413 6.370298791448924 3.0129836043087965 0.2968266608816049 1.354326533324816 1.9037810490836244
Ni 6.497233989324145 6.099695473220671 0.5129101364843373 1.422422457661789 -0.3478574022061751 -0.04393475370973724
Ni 3.2106718027622483 7.834382505666228 1.5410466971488166 0.14309011845567615 0.2313614892992596 0.06496432068652683
P 3.925844429878522 9.412456904134064 7.294979828661121 -0.5569125146987506 -0.11766216530087478 0.23599873096095486
P 8.894366142044376 2.6997254345394928 10.388148913556147 -0.8540957875888258 -0.44045542544957045 -0.5843844948667742
P 5.383432385987866 5.378591119091196 10.627782224423079 0.7554502725997698 1.1302996300137567 -0.7526130602612909
P 1.5561523899182523 4.267600270710459 7.877779998148711 -1.022373461053723 -3.373542401040693 0.3904706088910114
P 2.629907785526735 8.022975702716712 13.048375250529757 3.153130211664086 -0.8559744926687775 1.9605954869695073
P 4.3067628297231355 2.092874979171435 10.380567395590779 1.7522548840454535 -0.6286439789057819 0.9561595842308114
P 7.977345587150813 9.386163654600109 7.576232994010225 2.6602114262084764 0.31123409455618656 0.7928091728642024
P 6.568207902081156 1.5537176556925485 3.9956103760409265 -2.6103075993994977 -0.812988990246187 -2.722220520921421
Ni 0.9641077507875851 7.144487872113345 0.8180801003548163 0.807756281092338 1.1253944794026554 0.6235321116005133
Ni 6.257407967833171 3.6769093062072105 11.391371280713352 -0.3392382930785964 1.5604732139213446 -1.965406020984273
Ni 6.486075574166188 8.478694026244442 10.034483556158401 0.909863272267433 -0.8217502813785849 0.006815223149620521
Ni 8.217256213306001 0.7296597657851251 11.317817865749651 -1.4780392756951448 3.655862640776007 -1.5923978305440831
Ni 1.0627097866694772 2.8569585027214477 1.9500623059787852 1.4329603810786353 -0.5907554313901245 -0.16846176445124536
Ni 6.619168111492514 2.1192810349243416 9.752239576186174 0.2300358285093006 -0.5774723411279732 -0.6247235608054531
Ni 9.584110367305325 0.18069300151657725 1.861044098448651 1.5530962047309833 3.3804848937967975 -0.6943099536450237
Ni 2.5171015665751946 5.358925234920644 1.1428341638871071 -0.2738461408260316 0.10959301513949513 -3.1357377272192513
Ni 3.077945885647515 2.471828670702643 3.9335171328708753 -0.0846078059490672 0.5210301989798446 -0.971241161154282
Ni 7.7401705118052 8.207959100760746 1.2047281160703436 -0.9091649606488278 -0.6132407569768342 -0.5560406536167586
Ni 6.300528145027397 5.057112196115798 8.55719399390917 -0.36919241623852544 -0.4747279734791954 0.16467092995024546
Ni 7.698986841369641 3.2486310954394413 3.4002200924665216 2.4850851052528617 -1.1377720271314018 -1.5795600553494669
Ni 5.189800511157547 0.9044981245381174 5.640850537324333 -0.5869620257859633 0.07493737273883869 -0.13507496146068348
Ni 5.540486844323148 2.3493681195125 12.909702565572628 -1.39009340651178 -3.772710537705703 0.6890916426688777
Ni 3.5548905793746277 0.7223978654401197 12.824343979795648 0.26823110863209937 -0.015175679299173865 -1.2595263602237794
Ni 8.826137180615186 4.976079728835607 11.670216973339667 1.38079166949488 -0.7967169925590407 -0.26005628613079085
Ni 0.9085826497159878 0.8592769315159188 9.777349300472961 -1.0562377179013358 -0.7259082972765949 1.3137843502363955
Ni 2.0368948930167337 7.788874596837528 8.14802703673544 1.6803789238407576 1.3067662670473494 -0.7559449528480013
Ni 0.12546401676972774 6.776156766200074 4.713520434070424 0.9525788088580885 0.333169204066381 -0.4550101833352938
Ni 6.048707062254575 9.560139045778122 8.106613053602857 -1.9358866713689173 0.14830637254929296 -0.2845339595571809
Ni 5.2503398486615405 6.5841041784350764 6.63047975509788 -0.1511404995639784 -0.18917688551140968 0.3666706782579362
Ni 6.966291648242896 3.1035810989042525 7.033635080853316 1.1067123296121197 -0.4758422895892967 0.6977812000230756
Ni 2.6302556047018357 8.389295097725347 5.705295790159523 0.36290889722265884 -0.1620113808402113 0.836564720683598
Ni 9.242053709889516 3.3651317180616447 5.801041948598293 -0.8757403624417951 -0.24424734412299223 1.0290716990095052
P 1.4284087474738791 0.9061150136764229 5.771502700114008 0.043521834542034725 0.6536703257467904 -0.5740473746068242
P 6.284218245870653 6.467208734046543 4.787293821161081 -0.11042348146059047 0.32267190407948304 -0.7781659690297308
P 6.156455802389788 9.43022388361893 11.80192857453566 -0.6044820369475977 0.5135218064179414 1.308760671769559
P 3.7344498783907416 8.029631269634852 3.9190431549275684 0.34870843735256074 -0.5616070919609425 -1.5956996412238067
P 1.9262413927435185 6.055569440574127 6.891659993836381 0.19980788286269457 2.4284154204749595 -1.8835330974678657
P 5.20145715378254 3.932424792650695 6.551092378510733 -1.2924161689732643 1.2054254646143174 -0.8163473651954585
P 7.8381991160740885 6.003763184520632 9.930578687933961 1.3766089988721002 0.6092969418377377 -1.9690886120421829
P 8.458501713052117 4.89790501910219 4.478413472738922 -0.005488791028713127 0.7314564807883338 1.2126685193299762
