# total energy = -340888.9529831061 ev
CRYSTAL
PRIMVEC
9.08682092510635 0.00000000000000 0.00000000000000
0.00000000000000 9.08682092510635 0.00000000000000
0.00000000000000 0.00000000000000 13.29948093382831
PRIMCOORD
 96 1
Ni 6.2170574969834655 1.6882768094467948 11.440958177944772 1.9223554696517022 0.08456178320248016 0.34932678766284997
Ni 4.36428196808709 0.09911177334035588 5.949629630717267 0.48523427232715793 -0.32934905898934247 0.4960149078824296
Ni 2.5744690214735484 1.2779250626852858 4.813201817639948 0.22575468463544346 1.141537664821421 0.1944011100248265
Ni 3.5948735787618777 4.5561047580987255 4.977064459623834 0.2549035382852578 -0.4696528729491331 0.048851474285064256
Ni 5.449584600518152 4.672606889351173 2.5753777035673977 -2.300792801527263 -0.3263321265398896 0.3672890285682255
Ni 7.347076375252863 6.056938625226239 2.4567328999376525 1.0624657010889185 0.8452504213830541 -0.04679304909413877
Ni 4.8514446122417 4.787891386597863 11.425943115026003 1.4290661882305518 -0.30545554020119653 -0.16458222689118107
Ni 5.786078666691571 7.997638233523495 12.599462422492165 -0.783090917135174 0.3411434805211092 -0.5313135831837237
Ni 1.8236704414303748 6.659076814715631 0.6224472342869277 0.44624195022436053 0.4770244828228558 -0.7257481175496469
Ni 2.460047772216016 1.7303124431082741 0.07190583145050097 1.4120575694876971 -0.8212648571017339 0.33733953339398676
Ni 0.23482253537468928 0.3021667827140656 5.10149484214512 0.2801695119408981 0.15578108365978333 -0.3766483582959384
Ni 8.802494311329777 2.3116054653647566 1.2146153638426014 -0.6903759086979401 0.3997512628619889 1.1688327530919482
Ni 6.91639741005194 0.7166303159502437 4.894515234808074 -0.46463613646083207 1.1848211581004044 0.02933423018774303
Ni 0.5668049949521456 7.745687949361836 2.836765559955778 1.5493174544148414 -1.1831455701701947 -0.3726063270160808
Ni 7.560916532398473 4.004616508520507 3.771346910844207 2.2124401838237833 -0.05839489499912524 0.4032307367701572
Ni 7.4977086059503 3.643924238187875 12.586868088671412 0.33327333374441315 -0.25795800884086545 -0.3380260179380501
Ni 7.807723675908943 8.800567905290816 7.065694786753512 0.12831861657345645 -0.2953901855453945 -1.0292110528008467
Ni 6.754488434569831 0.8764375097492789 0.6393223694518074 -0.5042306109240026 -0.48715051551326427 0.42054865922331447
Ni 1.8485047230552825 6.57990334387852 9.29734804072673 0.39190759844785406 -0.17620926960714814 -0.22639051844722946
Ni 0.2671034667586938 5.012117780076173 1.358169869711044 -0.4788998454686978 -0.7136811590827837 0.438446879659974
Ni 6.513433248713428 1.9477600681664666 6.982280496584406 1.1220160498487257 -0.13500528456501265 -0.9392903192792985
Ni 3.436826502178629 4.174431018219108 0.028490818370558148 -0.4947296134121028 -0.1410941710715699 0.9703060509345224
Ni 6.16074646762761 5.7892772276619215 4.675818171870838 -0.4193068163964134 -0.7484080210410078 1.020337661570617
Ni 5.461306599528812 2.763574852024574 8.828301791477198 -0.47776496053330625 -1.0069828375302659 3.1322675092824634
P 0.2552033660576404 5.472774167553193 12.28989078939532 -0.5290643821382308 1.3025424587739889 1.7627267301110545
P 3.9025987698440208 6.258111753983587 12.811602435440182 0.2811758417182254 0.4434294204762299 -0.1879682099152892
P 2.453423479751853 8.586309754382036 1.6168444013671897 -0.4466204166097018 -0.38810776508578965 -1.3675815985625093
P 6.453651053759067 7.855783871852645 5.534539106836332 -0.4065122357349064 -1.023914837398914 3.292719001834723
P 4.657095686009162 0.9487277137254783 12.861489082392522 0.31009483874542076 0.984669004524414 -1.1734908206892498
P 4.025643412172186 6.10567124591939 8.13210046636088 -0.4074915689290401 0.03545422704255184 0.10851572291491633
P 4.73422462213511 1.1755256775293825 4.160902559205876 0.10206405375230164 0.6435229529001433 -1.7498686432014638
P 0.4525382216505673 5.705333175832102 3.6179904512294097 -1.1671499660728868 -1.216247494930486 -1.4845459664654108
Ni 1.4945094397543213 1.0874289485306705 2.777942024610429 -0.3432376440459766 0.8481064027746104 -0.7345106942336254
Ni 1.8886048638568622 6.226289707056977 5.073871815174187 0.7886858947244482 0.9294627916659154 -1.6091503674120735
Ni 5.908632620689057 5.50267889526178 9.255627719751816 -0.4499751920145476 0.4498165549494963 0.545898165866118
Ni 8.691753224552336 2.5930606571137096 10.249736834608328 -0.42125262726887447 -1.3910521708806236 0.5722116069496661
Ni 2.1819910514980596 5.217416325539597 7.1827966481879 1.0756390052460831 0.8632761685365131 0.39414471530848894
Ni 0.2687045646080567 8.935779800855626 8.91940353216027 2.7552980202016806 -0.3971235954311548 0.77244989248156
Ni 1.104003309922486 1.109346360634321 11.460202247328317 0.5013651164507494 -0.5758476610403567 -0.41813927845087345
Ni 4.349234192612942 7.014262471559535 1.5007529944211613 0.07265963244825552 0.5568544077673055 0.7975533724174072
Ni 5.606195959393119 7.8264607006841205 8.034442584370682 -0.8797325143203236 -0.28592826880154626 -0.5134279611525545
Ni 5.415381806505657 3.1720819741355686 4.729322282238792 0.679469031977449 0.03172278502457762 0.8819192375589973
Ni 0.6412460494444868 7.169828846026573 6.891937505449698 -0.4593381212866864 1.438729936572561 1.012403751435521
Ni 5.23407246831986 4.271078445720944 7.244187210448374 -0.1635761542241699 2.463049208498745 -1.4641512048591427
Ni 7.928923693586594 7.078006520443079 9.065138875053952 0.54220349062335 -0.026279759632135385 0.9897258502220311
Ni 4.506554323521111 0.40399642419712545 10.468340303289896 -0.19579567637950795 -1.7459736790224318 -0.9094629515052208
Ni 8.308698287890065 7.107547775314127 4.822258652069347 0.42955137694255696 0.22940076602846296 -0.1089047308232189
Ni 7.125903153609887 6.186516691809182 7.117842234755349 0.057202417352920844 -0.9423730719696803 -1.6632497203596388
Ni 2.695814428286215 5.023294569830523 2.3414665763328397 0.12360012805186453 0.7312464216600568 0.6056295202884796
Ni 2.5451095030212705 5.190555682845406 11.381416783745282 -2.108779989228955 0.029049866178104806 -0.24402134415511523
Ni 1.3995703345889223 3.5546189620043434 3.8966150982560217 -0.6768079402055183 -0.00573073183619013 0.2923868799426964
Ni 3.640062339289015 2.687799852218462 2.5841555725939847 0.4701807204281451 0.0972468348693164 1.0341506561943092
Ni 1.22234097900451 3.4190254199601164 8.373087501060244 -1.1543124479885862 -0.6255221454473485 -0.3076265797105863
Ni 4.047996991680884 2.4156313914686507 6.649022247347185 -1.0812095573553249 -0.7022644326054099 0.1844195733320824
Ni 4.114757865116009 6.900286476527987 5.93386944848154 0.2688612860169305 -0.7745047181280598 0.5559547787711715
Ni 0.7805488317958074 7.542733803700544 11.540797805642303 1.7139359338605966 -0.9195478465450486 0.08064316487436433
P 0.18120665710919162 5.51892613109981 8.262568132713701 0.072210717836295 0.5194505131975506 -1.7798261087955025
P 8.64437454017902 1.6740650214989883 8.117830522759066 0.46012744995720106 0.5944470213090989 -0.1996533595627013
P 1.8413170476929328 3.1699829184987762 10.582423522808517 0.054260561115777525 -0.18980089224865376 0.39080176697818503
P 4.147779372406501 6.235376527995472 3.7650561047084867 -0.11441460489785456 -0.012471907214765618 -1.0531925033171088
P 6.803112013411719 3.712166263435975 10.43453369467032 -1.1681393265693494 0.6930660539355935 0.34704364805562815
P 6.1042537018529845 7.7050880334086385 10.164979512304512 0.06432822976442469 -0.4699804314918809 1.4948979991236964
P 2.059755136233421 8.329107287717926 5.673412082557262 0.9774673445696521 0.8162008123152653 0.8362312486035791
P 6.928282971839492 3.8377006947012875 1.3745815770080603 1.9479693135650646 0.6344122488481267 0.2414191306455778
Ni 5.2342814652014455 2.791307829528862 0.6517531404956689 -0.6387545849772225 0.05455880908248669 -0.5109689580891006
Ni 1.720862149332239 1.2284564094961175 7.1185073900480464 -0.6486481899418507 0.08918539801742059 -0.2161595847478406
Ni 7.171309997839549 0.5059178425716641 9.200766947017746 -2.425894968045951 0.8826298904727766 0.4313912583647732
Ni 2.804774498159712 1.7624888760514859 9.276281155062922 0.28382202109182086 -1.5603598282719322 -0.6707357658695094
Ni 6.396167824502146 2.1559027885836395 2.8825831284918593 0.30982204470000835 -0.9504892733189114 -1.3071629882651359
Ni 3.9100408761926486 7.059969180880166 10.6602121621346 1.086763911514651 -0.04503107209770955 -0.2848424919365352
Ni 8.145789762104723 7.200133393856456 -0.055968456206474074 0.40327110308978936 -0.19596305519530768 1.1532526392655043
Ni 7.757709813463466 3.8943388496109286 8.400896807860414 -0.38010186406217766 -0.09109444211467538 -0.8536869821861813
Ni 3.087292847958469 8.572188834643613 12.723652912940675 0.037287423596548686 -1.1254225044271136 -0.3403729209036719
Ni 0.2945656569990143 4.872298866295546 10.227593160663307 -0.18167774892088712 -0.17767197019560368 1.1583297966780954
Ni 8.860786267650225 2.6245101443818424 6.205484521836198 0.17013940926398438 -0.2847710152686515 -1.0657885948145647
Ni 4.030032346685479 2.565709326088839 11.126997610334636 -0.9130817792047308 0.9397361485674653 1.2078867816706165
Ni 0.9181414744465032 3.4632237170049582 12.806096730633548 0.4426220940835861 0.30954256578637657 -1.9350826874103835
Ni 2.9710633213341753 8.483510549104839 8.140958299411725 0.8369156762651134 -0.3612194253353779 -0.48897265632366754
Ni 5.757936782245052 7.93407592105872 3.615357090521434 -1.0810588907100738 0.6849981893257944 -2.113599522104786
Ni 3.1596966371963995 8.283100713306325 3.5815504819018558 0.4883975005464879 -0.4479273083465834 1.0028796139951697
Ni 3.4005882602759097 4.181936732314305 9.185711902086846 0.7883637354983392 0.7311700598961666 0.23308618529985017
Ni 7.220306136339915 5.899654841601825 11.414811759376345 0.37971594147766863 -0.09028480172918645 -1.307458665128684
Ni 0.502361260856337 9.119624362083263 0.6784647593264697 0.42663934550208465 -0.8552980354270431 -0.202907861944257
Ni 4.4967769041912895 0.6274922372719802 1.7545869765633704 -0.24436047266208882 -1.1286523242183208 0.5722946535817757
Ni 6.116829862031862 5.739554143486475 0.16263501247509496 -0.6194584557517718 -0.9329252962932192 1.1815841392203457
Ni 7.9269336798010634 8.508090399743468 11.18367938198478 -1.2232792049662868 1.0638867498061613 0.2549449330461545
Ni 0.018143655367893557 5.015243646479016 5.955933158402301 -0.4211400129504102 -0.647779157073336 -0.20075096350225427
Ni 7.969659911853868 0.11885925260389386 2.7857757729415056 -0.6434584182107951 0.47632462854235386 -0.46550851176345637
P 8.77065409076129 2.017928499453527 3.7241336066119732 -1.002426842728467 -0.37810514534712303 0.5432355314322903
P 1.872766534961065 3.153126865657867 1.4879596592218538 -0.6983064763989264 1.104629221830846 0.7788041168343619
P 4.922430857413225 0.7655728422070733 7.986950314735637 -0.703854402800349 1.2244400580436074 0.976207504020622
P 8.32062928378231 1.103821573503716 12.603439724016944 0.48110919441519073 1.1715025866146276 -1.9181792267868254
P 6.667136824888075 7.878646313333899 1.474007754352888 -0.6865673335851272 -0.08132347877084059 -0.194302122553117
P 2.151504767249408 3.3832596927461993 6.102613530673586 -1.2197498516567895 -1.663724346003212 -0.03279262104998868
P 7.071018755141376 4.070505047145537 6.10273256802788 -0.39585784134485374 0.09770449123202528 -0.7471484376022939
P 2.2849083854474572 8.518058642312997 10.24049372034969 -0.22382661437479515 1.3708517846733488 0.5115325439020545
