# total energy = -381180.967103994 ev
CRYSTAL
PRIMVEC
9.05308903087590 0.00000000000000 0.00000000000000

0.00000000000000 9.05308903087590 0.00000000000000

0.00000000000000 0.00000000000000 13.25011089695841

PRIMCOORD
 96 1
Ni 0.36457876041588216 4.149139356257668 6.502823012778752 1.5230479791953513 -0.485422477078564 -0.5901993017763384
Ni 6.605740339904832 8.938938666486182 12.75516606257377 0.7681561502022125 0.5559221257610233 1.043957357872086
Ni 5.8066603803588475 2.028742941274079 11.887840296408685 -1.549021006220345 -0.16601098891790766 1.33647125031095
Ni 8.648162498758433 7.452068371289016 9.743535578509306 -0.6229201890481272 0.9514734916090517 0.21331543043082615
Ni 0.6684746648188405 8.842478002482347 8.06085058803881 0.7514750900021058 0.30928751235277696 -0.3144250906896585
Ni 2.4877888754813466 2.4347106142843047 10.055296806693264 1.1310311088631424 -0.5234539779299888 0.7047550602377475
Ni 4.599258944645341 2.690813450887259 1.8758842483125076 -1.1404539448389392 -3.6037456083657933 0.09892627945426834
Ni 8.164410684488615 0.32734431039416734 11.157878861267813 1.2699372711444579 -0.38051375478861565 0.77861231253853
Ni 4.475367420769932 6.053357057421682 7.968563398094645 -1.209019609723479 -0.37268731676566136 0.21550781009645462
Ni 2.8512794545914324 3.3141276862066413 5.515345553831641 -1.9866867847399206 -0.42607987345418874 1.2926838208123543
Ni 0.2642325105846946 1.871762376860518 9.635865379623299 0.1446968008211637 -1.3238725877103328 -0.2486603855890234
Ni 1.352332338579522 1.0898561272737335 12.262566664359236 -0.4869972777648516 0.41987785840853487 -0.5343482562449895
Ni 6.179194995446394 1.9764794580930245 7.558790711749758 -0.8676015353847446 0.39607175712787274 -0.6045190608331202
Ni 7.848937689787384 5.924332432045553 2.6161942695653253 -2.4679456173590983 0.1824051140052149 1.9923151866702915
Ni 1.7479704369648417 8.363198414211393 10.340506229954006 -0.8850071324557017 1.289203832683554 -0.2377044007981519
Ni 1.974904220595449 6.251945619184996 0.3040226476498897 1.0639011479838645 -0.39835129719066875 -0.8998611667493986
Ni 3.3753537275635566 1.555954417863825 4.034141587081215 0.9730694726122725 -0.6589408301171104 -0.22114546799820622
Ni 7.610243943459359 5.355544952173856 10.344719537605567 0.8138225418910758 -1.3327053555106145 -0.6970623195791801
Ni 6.699494130277776 0.19510583839942194 5.965836318871042 -0.9557286673409797 -0.7054142910883012 1.6137382438930723
Ni 4.72140322233091 0.6837653322522029 0.3884073961478853 -0.8773370175049535 0.37691035370807346 1.8755086845014926
Ni 5.089411292885192 8.798778741558225 7.872845087394266 1.9744305930803867 -0.6560416541924444 -0.6447403702470121
Ni 1.0999050561375774 2.9658010312829863 0.6565825270210519 0.4143592425831509 0.9565012838409462 -1.0133838559606032
Ni 5.186686734905013 5.789504776577782 10.876459966399224 0.09153461497588752 0.38404413653937725 -2.7630426971441064
Ni 0.99138567749713 5.89812373919796 10.479035693541078 -0.8228949365059893 -0.520075034155427 1.359239397245401
P 7.726920155348746 3.3769108588829995 8.405247296998686 0.5093404213467421 0.4031240359889638 0.22232817545239777
Ni 8.338284313100313 7.239773432678982 0.8115107561432314 -0.4804404504829404 -0.4666745070470995 -0.47337120234098473
P 2.817375636037293 0.7039310881478896 8.704461849045344 -0.20513006640655643 -0.7754799375571354 0.9748566464196823
Ni -0.0710794234969223 8.182290535395003 5.518101314143491 -0.33153706777959674 1.4787985224586726 0.6162630887429258
P 0.4067960306598129 6.996019009562769 3.788524943544017 -2.1579212268402963 -0.9718032043053392 -0.19752371481420822
P 5.3235694415908865 2.3054053431471138 5.1622696483836865 0.13571028105183722 -0.032495144414227906 0.054926219724234435
P 2.6464442613722152 4.603921285514601 7.3343338532877524 -0.08123169038798268 0.6021816709491952 0.19086250074394873
Ni 5.1854464617029 1.5698056441356096 9.685777775573778 -1.2110140144456885 -0.16966324095851426 -0.09479528800503029
Ni 8.704173960813028 2.2384577495001543 2.406418805642504 0.6063489149530074 -1.853666648925737 -0.7789198164766198
Ni 7.111328205003111 3.8790585501359973 6.352395074231542 0.8696836147247538 0.2263532374513908 -0.31098958264554827
Ni 6.5867469590432615 2.9809106369350187 3.2068449595326816 -0.9276987577869572 -1.8455846432485503 0.34227965100808144
Ni 0.7552566713016521 4.056607732908706 8.943824618655386 0.12911848676693247 0.8718484835865565 0.5059712477641931
Ni 1.9852609544875548 0.7360405844490441 5.855806884974297 -0.7556294784901115 -1.279508202662345 -0.9274221070868028
Ni 5.723145633720145 4.1099485336886765 9.007001600706138 -0.004884067565178686 0.06401815472317363 0.20612405488870952
Ni 2.0170825625563937 3.3068852149534207 2.915740164671818 -0.34598795309760416 0.19571185841645003 0.2778539764338441
Ni 3.5259790234524164 2.655615040596606 12.815599958637362 -0.056489707556612395 -0.2810264606245547 -0.9303788757222815
Ni 1.6204757836409558 5.1837806933146595 4.491231148741206 -0.7000260301931944 -0.45046087340171453 0.017418966807395804
Ni 1.6589514121736912 2.256093167001747 7.684322655364022 0.7092375214891333 0.6640400990168887 -0.5143761839984368
Ni 1.4914239989976277 7.673470717499977 2.0502956304147575 -0.851143132718405 -0.619460769744617 -0.562647874520631
Ni 3.8496993822932533 6.189922905990226 5.495668664745546 -0.5635328482287456 -1.8986054184199561 0.27010184329225095
Ni 0.3534090591256024 0.3765415123083896 0.9951915961406975 -0.20507195947511134 0.4265655548413557 -0.9578976499678407
Ni 8.004361122881502 8.735343746469079 2.6822465127036055 0.48519930532416433 0.4285085375003394 0.6897886687359024
Ni 7.3089209269691064 0.5161030280490478 9.154011092821827 -1.0675842532624065 0.13265118251053928 -1.0313175576208884
Ni 6.010870910432476 7.871715261878763 1.8271369849248915 -0.32382375829573906 -0.8088047769615103 0.06288198423620138
Ni 2.2376158122169674 4.361008799681576 11.584174340468016 -0.022016099259774987 -0.8197839016808333 1.8493538804829959
Ni 5.484053551473194 4.595854983156327 2.022165872067248 0.5237715091704076 3.6347088895165274 -0.6370972518794576
Ni 6.564548784652139 6.79616301533014 8.726708910117425 -2.3326469699233825 -0.056097357214200165 2.2507498780372592
Ni 6.622678669548303 4.263235437763095 12.29341325473561 0.0957594516905125 0.6127453053976544 -0.4093368496678951
Ni 2.8253876198611683 5.841750153580703 2.642787718698245 2.079842994479631 -0.33721509200098054 -0.4614284281568118
Ni 2.9544846699498293 7.840011343967789 7.198652491521007 1.324272908472545 2.155191229503643 -0.8074618897803707
Ni 4.125275413478305 4.073944398471103 3.816562360383048 -0.576458298041162 -0.25251035546273287 0.43768814711707854
Ni 4.4807540087645155 8.365380208676426 5.381890346666354 -0.02410589190926816 1.3386816276987072 -0.6243170693956538
P 7.734171679691033 8.106425649017517 7.686004719312582 0.4300424576463626 0.04929267558754092 -2.4276278915766576
Ni 4.633687842365339 7.417911066241014 13.137008158530609 -0.4891783445765704 0.318629101468677 -0.4949437863054379
P 3.2318803720372524 4.089244118993531 1.0430579939621405 -1.8705991630150172 1.4893516153841706 1.3509221356289571
Ni 8.10495904858874 1.9906747017493374 12.793260556056802 -0.1443011080446418 0.04810328326513006 0.9983243905243194
P 2.6438007593647894 8.524406771219022 0.3891397910533672 0.5043882195477893 0.10487401239727098 -1.2873881196310537
P 0.3558036011836985 3.253734529043846 11.477762520962255 0.41794901681693825 -0.7803141257209851 0.09858252296160441
P 0.6742595887323506 2.3116881869592834 5.2860253759230975 0.24249565153920818 0.780165773068579 -0.5473973761194637
Ni 7.944266717657902 1.3341537357339377 4.574958642972971 1.2336394651546883 0.8452141688284799 -0.8899775890870995
Ni 4.896381327808724 4.071156047038612 6.480563277381978 -1.2040576377325134 -0.09020458331055432 0.3230755672758049
Ni 1.7698608063277015 6.627685027802092 8.597758520071642 0.30009967520592185 -0.7338476067283297 0.7828865144338517
Ni 2.2794139244371174 7.594355772147606 4.351588155198949 1.238663657842157 0.9808568298671753 1.2730956142677816
Ni 6.047716982933236 6.764821220981827 6.41755830402349 0.7098270754440162 -0.12509548165046844 -0.19755019717676947
Ni 7.781691344201229 3.8509396554953677 1.0005075700405617 -0.3618904832604735 0.5659162608592576 1.1413731142190988
Ni 2.545583796082049 1.2997610503702055 1.657681263777658 0.5826191754362353 0.19163151769948933 -1.0818335640925691
Ni 3.1773445635004998 4.759543886568184 9.549354965812485 -0.00333214969702652 0.6530843713363333 -1.5406242975162177
Ni 6.939844591904975 6.859643275864621 11.946405634888947 0.7452903013476326 -0.20983569941234184 0.24992459701342762
Ni 8.424614570438706 5.794791780592632 7.890454250937565 0.2942761265456093 -0.11971056318947126 -0.5274103914745756
Ni 3.8855043495513635 7.960489853265117 9.54218672988961 0.6584271237054854 -0.7241905432545399 1.283691644616073
Ni 6.73979848280195 7.528956256731021 4.280527743189066 -0.6529175067411659 -0.0460541140455852 -0.5786031122983067
Ni 0.6876156110321964 5.184224294678919 1.9481106981941587 0.8687094237369426 -1.3789911259510315 -0.6175856642090913
Ni 0.4647068308005665 7.684289158934475 12.227957610166811 0.6158414278244748 0.15239802612016334 -0.6263392420320051
Ni 3.7121286408383245 8.455395073264894 2.574655981001384 0.8071728977850423 -0.4132194725517529 0.1262085122089891
Ni 4.493048103716858 5.1249808798275724 12.856516299982433 -1.134363515670485 -1.0941555759930317 1.7205254141526563
Ni 1.2551836398066314 0.4570660236284185 3.291936754286773 -0.893013804810262 1.5395274649076132 2.1635074626788224
Ni 3.8495092674228566 1.4172973057209126 7.0045651256415695 1.0956221332362293 1.096425602974131 -1.1807657570841084
Ni 8.157611814599655 5.936889066580824 5.331765203122813 0.5654105248674327 -0.664428849814875 -0.035215371558868384
Ni 8.47669699183843 3.8286147378573143 3.9370580705496026 1.836140210006199 1.4057961619590176 1.7063342102539385
Ni 7.442662211748896 2.741583174372337 10.581604476738098 -0.06674609517729796 1.0895242478686074 -1.3743302301402522
Ni 8.487696495054259 1.7241427065417452 7.081018462808381 0.1297671760945249 -0.2730820089664975 -0.15200233334364144
Ni 3.0238494383775514 6.594949057737534 11.400144051232582 0.12898787472633913 0.8777041710363852 0.13280364892800353
Ni 1.3464568837753466 6.496750200632926 6.421560674699801 -0.5805687206651099 -1.2614698571033953 -0.7564684294516392
Ni 3.4750553974532075 0.6112174977086902 11.60382407028691 1.3093098594048096 -1.5003993885579 -0.7328888423594861
P 6.52162808938774 5.848159740639804 0.7058231837627936 0.5352823380234846 1.010264593605331 -1.338878574200862
Ni 5.777826291681962 0.6517753367267266 3.640162919921789 -0.3144610861339165 0.2214905100424508 -0.5256887807977785
P 4.8700730509814 6.432590958418456 3.608191030574446 -0.4060653780054749 1.1054787143153346 -0.7193848943357805
Ni 6.18066159587517 4.900346580819863 4.34978659047471 0.8887200625309145 1.387319957531701 1.1420932802145751
P 4.433596467816981 3.622122829338923 10.869450159535013 0.668695595511029 -0.8300539161482737 0.7160676570370893
P 6.559460948596751 1.6841552121348997 1.367676419238377 0.687494473385087 -0.5458302887426599 -0.46305979311264767
P 5.792528508326001 8.560591968217926 10.72576586703346 -0.06573308053175131 0.054367261896970887 -0.25566355637973387
Ni 0.0426418601211508 5.103850969946301 12.586240852445833 -0.5994043653143741 0.23879634831075 0.13610545960772688
