# total energy = -381159.9902328049 ev
CRYSTAL
PRIMVEC
9.41039788968404 0.00000000000000 0.00000000000000
0.00000000000000 9.41039788968404 0.00000000000000
0.00000000000000 0.00000000000000 13.77306852915733
PRIMCOORD
 96 1
Ni 2.3529476808358374 0.028374232002688467 7.524227687549485 -0.4498836607420058 0.22838543739007117 0.26888262617316916
Ni 3.994196372506337 8.042662510188949 3.0474425804060186 1.4253383457570032 -1.2087529863256539 -2.0015912126555784
Ni 7.851556147920907 5.8496069015067595 8.754947767148717 -1.0208498253203453 -0.9647285568467451 0.27758940991854775
Ni 3.334395728225195 0.9394616747021742 2.6857624032321894 -0.9944759633125067 0.7625094934393964 1.2206348253649042
Ni 4.214390274944287 3.3787469339258682 12.393433918962554 -1.509819396320219 -0.26466833098150544 -0.5606534697984216
Ni 4.633482349181396 7.67050009070025 10.613086370524828 0.556915342912228 -2.8426913593156846 1.2364946752152963
Ni 9.55889406463614 4.692033845440592 13.358926636569292 -0.17151109280053042 -0.172725939044238 -1.5422659468846986
Ni 5.7048091077201555 8.600369746736883 1.017947217011813 0.5748968670913132 -0.5913974358494976 -0.04755049608545359
Ni 8.288386822358689 1.56438456093358 2.4302032841289094 0.29062207473278984 0.5520911820507073 -0.5659293734853802
Ni 3.386331714701328 5.368641460521947 13.728471083338718 -1.137574052187983 -0.9671919307855731 0.049691710798172486
Ni 5.858255057254461 1.9607693448342314 7.279341841840157 0.10357380552860872 -0.4805846893702885 -1.1280188043993797
Ni 6.560873012364812 8.074639042540081 3.265677237983608 0.03890310482310074 4.193887831651952 0.020460581847197023
Ni 0.419975710607848 5.545001729148368 5.026977199861025 0.33511681471105514 0.46235608217740365 -0.8437319278559986
Ni 3.404672580373005 3.6450706072835515 10.007649595399807 1.1425583927764515 -0.6817966516693613 -1.1110868045307316
Ni 4.73790012521676 9.282821218966575 9.320263310467073 0.31117110252873503 2.4192036720687042 -2.7412096604294143
Ni 1.2471506344800678 3.219551231223069 1.7908843710609048 -1.3108316953659747 0.1893828308746287 -0.5242456205933488
Ni 5.234571520437607 7.318315946132522 5.555601601438043 -0.48251070274840774 0.5379837961150477 -2.0639821161879746
Ni 6.858665056582469 9.211226911100944 5.207446048247453 -1.46031871848693 0.6438991052926395 1.6315963551204158
Ni 4.01250900698406 7.416645194671951 7.495386699806767 -0.4660389303456297 0.6710512402273991 1.090275267102019
Ni 3.58307490536205 0.9837159533036081 11.316325411902154 -1.1158011792872655 -0.38813321900708636 0.45928078568618963
Ni 0.45193718632220564 9.424607685398158 13.106328028671916 -1.0128274692365007 -0.3652910243015902 -1.2751360417365782
Ni 0.2270973703993366 2.9622427191344807 4.383884717201259 -0.11255903974635453 0.7732505340059844 0.5952021543075685
Ni 7.610179439619978 6.686530056651063 5.068406476987529 0.02417171215019708 1.0408190693534203 0.4608411881947741
Ni 1.9075911858241517 2.0941240946717543 9.4480499278172 -1.4206224283385727 -1.1775984150997205 0.3548508028048727
P 4.490886588523152 4.509952054839631 2.080766034732839 -0.2062328125524319 0.5601433629312225 0.3551253966224981
Ni 7.447285450509294 2.4030298189090358 5.316101326495212 0.2863231902471198 -2.344561976193414 0.21420914588968912
P 5.202227982565081 1.7314003043614508 10.282863271733392 0.9590081094232001 2.0526718333814777 -0.779328107658632
Ni 0.32193912544573333 5.8561283073099775 1.3971542604316645 0.03460730566122427 0.7438378851718221 2.324157958615765
P 7.131877141264763 8.118293878789906 12.939563542870232 -0.21473339382427534 -2.8557692755455655 -1.187594607080484
P 7.29329369789189 2.1078632757290388 13.138089062909206 0.21733997820918696 0.8023505366957343 -0.31233812625364277
P 1.9574474743457235 3.673951118697803 13.474605835872637 0.5754537680360476 -0.7752994461152132 -0.8932374907852939
Ni 4.2724994824982145 7.755683013255416 13.014557827527641 0.050140625410133 0.8000902799066479 -1.4034425741251764
Ni 0.5654821073626801 7.91101104238661 5.202529115300583 0.30210616411298935 0.4683454669916193 -1.2645333265200673
Ni 5.183633036147824 1.5436816853678084 13.501794357729286 0.7829153107892581 -1.4305620560497878 -0.4570642376508451
Ni 2.4424405656678774 1.7008353317079843 5.5495140149819076 1.259015996246264 -0.5814395533058373 -2.1302754400985697
Ni 5.883089097535403 6.000427350003406 12.3129025561311 0.08167032058729805 0.5896128331452491 0.17821395874200274
Ni 8.82271863031327 0.4269412871959318 6.23521960283462 0.5651058491428204 1.0429183750846103 0.0641564800732508
Ni 8.525688828332354 0.5046024786421334 10.690889658980595 0.7499378274219729 0.11491982666904725 0.40354261158362115
Ni 5.005870618221721 6.446743705609504 1.009353641572421 -1.1597256485843574 -0.058928141794775936 1.6433403830302213
Ni -0.004313726436068053 2.561124505047655 12.168133934578247 0.24965334562991198 -1.0093012012507971 -0.21651413987378193
Ni 2.88935918674498 6.02799981609782 9.238974410597868 2.202354003232375 0.7663792608074478 0.5715215228611771
Ni 8.67263219285941 7.36460569381799 11.00561853749065 -0.2662343899170447 -0.3152010496237346 0.3223456310883158
Ni 8.730393215687913 7.805454608195128 7.261064966874775 -1.196908942502874 -0.6537011789847258 0.7475531292398803
Ni 4.23961014154259 0.21517910135204124 6.294994450831794 1.6627673814065813 -0.8340794923678991 -0.4378946067009297
Ni 0.397282535868367 0.05886298043248098 8.796418450026353 0.1592369034188677 -0.5449957086565066 0.003143173614672006
Ni 6.3535525343695785 5.8329034450843755 6.86298254717773 -0.12481960228126245 -0.17739171995102354 0.9039559056440626
Ni 9.006419009367557 3.4407049942554324 9.233671651333635 2.4717711617527756 0.9672109569489666 -1.0167717985962295
Ni 3.670375167463715 2.0238001905340215 7.73900496490759 -1.0708495542772396 1.0744560406815753 0.3674648920244575
Ni 2.67641129075505 6.6505258739625885 5.226507750404738 0.7491757524449678 -0.5170097649665419 -0.10068542823722015
Ni 6.30946481981247 0.15478410812769317 11.507178634464413 -0.48329051833722575 0.14091933605660248 0.10344884991497022
Ni 5.606611604752507 4.078193584915463 10.735225808044493 0.14147289456722734 0.9077601098815011 -0.563919542144203
Ni 7.456347663768311 4.094577087806376 12.389729045276079 -0.08083059829482209 0.8155256406251117 -0.7814497819873251
Ni 4.514073809156816 5.027156938462529 4.509647157944935 -0.6227885485662694 1.1333993519850027 -0.9725711928196153
Ni 1.4628934186713771 4.3658223993099226 11.061261279732856 -0.8672022430637969 0.018409098634807004 0.20813594311241573
Ni 5.724467429109654 4.131334102333605 0.22673130591774182 -0.9467061521273954 -1.7417303303650453 0.8442152952503204
Ni 3.7886921013220998 5.103117670992941 7.034925574990255 0.6570371853364942 -0.5729561984251745 -0.14908207437305293
P 3.090694651622109 8.650103700084657 4.707290923692767 -0.9815962791363612 1.7023528570086874 1.7112784416330915
Ni 2.4929085300584375 8.258649964727853 9.656285096496523 -0.974937636169263 0.6281755239097957 0.7579403860114753
P 2.224975678645415 7.022227183950049 11.93277988098736 -0.009860694844163662 0.6301784132724373 0.04531980698272195
Ni 5.780035829207782 1.2456355604045726 2.0840577919477967 0.2903827050284741 -0.057288035088191656 -0.4378917784874523
P 4.435553448374635 3.220445219031591 5.558576228240924 -0.48942774158321517 -1.3729873429591128 1.001760927009694
P 9.419808382426092 4.696569657269093 6.8482731540882495 0.08725578509487553 -1.228004121245782 1.8718235223404214
P 5.5502997832136085 6.340321514803454 8.797685089595058 -0.2640566655394355 0.9694426744929627 0.8620140139946381
Ni 7.800448276467405 1.1888249877724983 8.336246224427963 0.06063021208754719 -0.17214538395041964 0.06555901684773224
Ni 1.5502595535589332 0.5971942075304502 1.1545494951937665 0.5141172739100952 0.8692123315152901 0.7038477179321297
Ni 7.041810222155672 5.809678582858774 0.7162611501081949 3.904043001404818 0.9772328599613427 -0.9925918589159165
Ni 1.787128681225314 4.499911160190232 8.300229808222108 -1.6269966515648755 -2.365828598881674 -1.5683749852669246
Ni 7.265081324734535 8.1148496731276 9.40441673548274 0.1290593513942229 0.538848458108188 1.410959194217196
Ni 6.286362292760666 8.39127070352259 7.554018184448831 -1.051145648090409 0.49534487839859853 -2.4215965977809133
Ni 7.635088763084796 0.30048812324019863 0.3510247835360456 0.45605816498383395 1.3966718310602462 0.9567036296597395
Ni 6.687386402867646 3.125136708245166 3.1978866129832872 -0.9317657287674792 0.13776099293327887 -1.1371503343870029
Ni 2.5169991488986083 5.916401906400326 2.88048612248545 1.0040309539907935 -1.5498933815229696 -0.28928175865481154
Ni 9.243975096086801 8.39303044794568 1.438266407146093 -3.0544078206905074 -0.20641767486972837 -1.0160382628643148
Ni 1.5115922282408625 7.262700494044471 7.130909752351963 1.0448862974442585 -0.8235333414209365 2.0081315848772574
Ni 2.1007490148528007 4.140509240368436 5.6045921333450455 0.6434445342537242 -0.6094265254370665 0.5733416067890513
Ni 8.180317811905361 3.505919052287613 1.067977597896097 -0.9413991380921851 0.25335342018931856 0.238196509943222
Ni 2.9467720248480584 3.5708319775842914 3.2845046212310804 0.5870108767460277 -1.0641708567054833 0.8632851673975778
Ni 6.663182859251662 4.434395969422549 5.085719727199305 -0.27067982728290807 0.7668109490282278 0.7944477369088898
Ni 1.5497137504758356 7.8285947768388695 2.4052873733855034 1.3686231524531463 0.6370028923934384 4.186597211527809
Ni 8.596925541074578 9.26825392288666 3.804300187419095 1.328215438060061 -0.6808255460053436 -0.2537586260475372
Ni 3.5507407778875084 5.461183314300946 11.401896983894078 0.9903966510368105 0.8525022178494609 0.24510686390981015
Ni 2.2450951095361513 7.570872207238966 0.38228706668015916 0.2782532687547917 0.2780627500105405 -0.8192802225715374
Ni 0.9335547678873403 2.165116137066382 7.057526527829488 -1.4248405801849784 0.8140225737170238 1.5573392962780535
Ni 6.454620208722482 6.140322326440115 2.8921794830209175 -1.923592684492913 -4.174293968680424 0.07864593193867746
Ni 0.5657437164266477 6.339756890924387 9.261520783128793 0.4825826936369238 0.6818987244648643 0.2906321020351188
Ni 3.571688323800876 2.68761907475452 0.8377907938384682 -0.7268351799662385 0.21434258614375987 1.1996811059313726
Ni 8.218542848518164 4.884834079345833 3.457522316493428 1.4153773778895495 -1.4889260978109777 -1.3781074377944975
Ni 7.516545979674785 3.5846558522234364 7.408437445549922 0.8055387046157289 0.6272283295051778 -0.4916993112262112
P 3.7313827775968504 -0.04009488269231055 0.8374134368792922 -0.5039896985577902 0.1691852728808312 -0.7308954660785412
Ni 7.343959280640125 2.6471637738194054 10.240042196744987 -1.7026981561632484 -1.8347338165769758 1.3383594684725983
P 8.902255314077772 6.8762907320073285 3.3282761464159125 0.8952118409028453 1.8366001803617533 -0.8169603161891092
Ni 4.998191733466417 1.3588802897493433 4.215330373702932 0.4811392763221778 0.6892088849730325 1.8834670201166208
P 0.9987725900787147 1.4580847053013273 3.214648413873175 0.8126377775543554 -0.9331988616695799 -0.7234294967187992
P 1.2949460458430468 0.7955211681719532 11.332838778285252 0.14475542197324104 0.5945807186734857 -1.4226867670667693
P 8.701380958701879 4.984349038031303 10.79513804785224 0.25374217098730495 0.4477815267973385 -0.10325627428818993
Ni 0.2644895867905155 6.972719080153902 13.036746604935155 -0.15357687691961291 0.3985893813434038 0.11033580684279062
