# total energy = -340871.1321310757 ev
CRYSTAL
PRIMVEC
9.21815523336106 0.00000000000000 0.00000000000000
0.00000000000000 9.21815523336106 0.00000000000000
0.00000000000000 0.00000000000000 13.49170196943587
PRIMCOORD
 96 1
Ni 6.84127240194837 4.859793044770313 1.5341278107251568 1.0768517946072615 3.419545864354001 0.1331900857331448
Ni 4.352444212646388 8.504918982085096 2.473338922929333 0.21288862730605274 0.38485429114549846 -0.579897405629698
Ni 0.9277428051791139 2.1797157871868693 8.975975014925705 -2.677371997148163 2.1074962374205253 0.1819657124749511
Ni 4.016580723812579 1.2528763612284421 10.980208466678688 0.48649539842776857 0.19550488461196652 -0.5416597023047381
Ni 6.320096336854753 -0.0333789403888355 10.0641625787764 -1.148725697929428 1.0401582958409699 0.5345066361997246
Ni 0.7710627411374132 7.3162009818360225 9.637042117789221 -0.2900662022293198 -0.21835042175157232 0.22017590499608533
Ni 8.912582682652857 3.950892149051231 2.911455721389542 1.6185536630038448 1.9445404903891736 0.16933516819513417
Ni 6.122182542281901 1.1192684181199688 0.5843029144934455 -0.6587094308325945 -1.1020308649760504 -1.2700054053782321
Ni 0.877510311431287 6.1084290545547155 3.48635058657041 0.03059689895025053 -0.7289388565728028 -1.0643665176560573
Ni 7.794134680355756 2.7041827337272712 10.260587641266183 1.8495078895623567 0.4757389312422129 0.4701917761717386
Ni 0.025335178062600244 8.820013966998427 7.696786351171471 3.008030261867232 -0.7316485421944818 0.43438633643735514
Ni 7.177652107479713 7.537740908476422 8.54484834363944 -0.8346029689715367 2.663095432624491 0.37095362190400627
Ni 0.5172491309302231 7.042827367869907 12.577653020803124 0.225141990752109 -0.2856210219737726 -1.845131614871532
Ni 5.486129825676088 3.7106578034358093 13.625269639489684 0.36250754801918217 -0.5515659056748564 -1.1769016461430117
Ni 1.913532334364993 0.25103525819581346 9.247819336925373 1.0935637080453038 -0.7900411232007619 0.61362822222324
Ni 6.410932039310314 1.280954862312229 5.881504803395918 -1.3192667135072054 -0.2691739321613429 0.08976158223586476
Ni 1.3778376746532013 5.014151055488635 0.765276505047363 -2.97327408933297 0.5906168489297312 0.44327643983813336
Ni 5.110877159189285 5.375032617842273 5.550378524577527 0.31057666347784574 2.4786100390514796 0.08973021477729708
Ni 1.7635068566438394 2.4667599254823536 0.22659424119858662 -1.5634209836957589 1.3239548630114941 0.1747432265845829
Ni 6.528638664503642 8.823710447278993 4.039820615172506 -1.3724672087895848 -0.10254099338872018 -1.7543778439257267
Ni 0.8350763770783661 0.2626621174922615 0.5398962949035152 -0.544032830522605 0.006871016088220425 0.06000569112967085
Ni 5.137112029210447 6.297530292648218 0.4523643793121796 0.24007187258906396 -0.29087841371797 1.28406574012604
Ni 2.9442972433236227 7.717153865335827 10.898272893177952 -0.9341717671058104 0.3701907755960528 -0.6520764988971093
Ni 2.249395823198802 8.292800010174714 3.5910863454226356 -1.3016364020199518 0.24986109076534388 -0.3584395485973956
P 7.758497291915204 7.340260367203286 10.820722396159669 -0.17414441665831945 -0.3423449570283782 0.4496468621408515
P 7.528743988890809 0.5873578111642159 7.757026996142761 -2.301026514804624 0.25911063438806986 0.9384243717345774
P 8.301852238692206 3.800912762106643 5.065001165642442 -0.5230348881146992 1.3597919273147614 -0.7167590266771592
P 4.948692934610116 4.603473018133482 2.4041944617410933 -1.4866283029157366 -0.9070741395580701 -0.3704813102532781
P 4.453631903518591 2.5756355578857053 7.141279110245174 -0.33803681657132745 -0.4968019225600992 -0.033451080569594005
P 5.01513739810714 8.338254734023746 13.578588900984002 0.22655969703524206 1.8644999920958145 -0.25679072800564157
P 1.7543716647285297 5.553099724025961 11.080950920649265 -1.2518691007888374 1.7018376079351658 0.08129725351859547
P 2.6922083499755187 1.0650564467234644 1.5482675391599636 0.7250958286776287 -0.541453499831203 -0.05266519160419962
Ni 8.486731561652295 2.2540786460978706 6.496874744925666 0.34274450645964194 -1.0963978350599892 1.7990893279004887
Ni 1.031815778664326 2.876359438665871 4.5429530630562045 0.5289219430230956 -1.0441905569288146 0.7425608182316115
Ni 6.222448417622791 3.5077385505279284 6.328404660238476 0.7065931418877508 0.6908366503844425 1.55710044079437
Ni 6.740517964375884 7.987835777950509 1.6313360239486827 0.34144044293623776 0.8581607016868188 -0.6131122018187699
Ni 4.605298212885481 7.212358462233639 8.276376944668845 0.22803371047760726 -1.200563765646642 0.13258150561486845
Ni 0.7192567082776354 4.0640634418305 6.461985870696541 0.5772867074797284 2.14018550012343 2.2884278522040074
Ni 3.1899518642631635 2.558738679196742 8.91203788967385 1.093270345174601 0.6863914701288952 -0.11725567389107548
Ni 7.910827308464641 8.7369952602484 5.791555887481481 1.2632066372888437 -0.6954438101391507 0.23813891723240926
Ni 9.175217145679179 7.4704207202246495 1.218002236047817 0.07593573209636599 -1.4066209718531584 1.5198376997881697
Ni 0.42514040122591945 3.4618874460004316 11.977002629677377 1.039037037752333 -0.2751707731747261 0.06752153989074179
Ni 3.852875503606744 2.013014666504268 13.216430624119498 1.9586902995269944 1.0909676651833533 0.10121738948129021
Ni 3.399591152394314 5.749778285786855 3.4538482927518523 -0.46314129708286045 -0.2461473893591825 0.45328934398944515
Ni 0.7976654155555685 1.3110429212542778 2.7280494596484903 -0.1573016340693678 0.5876659938315234 -0.6089961227678673
Ni 3.1056794883905496 1.396071185862568 3.6459574149240286 -1.068237056355057 0.5828202357034479 -2.8013613902186467
Ni 8.853595706804152 8.54083291518504 3.4169756714993413 -0.46590137632650086 -0.6066883005702971 0.03883368503774602
Ni 7.232684494699086 2.813924872730057 2.2246469198141163 -1.6309044712597136 -4.181962283858959 -1.5215294856682957
Ni 2.153785116291041 3.665461187935544 2.7665813488573643 1.1186939274540282 0.3192536224265534 -1.0623913962075575
Ni 5.230888323210895 3.530369121821657 10.457755687074204 0.3527712945680247 -0.12998983362829228 1.7704359258298543
Ni 6.358582135287062 2.1761944518572545 8.768985946447078 -1.5588626749011154 -0.15173982371087416 -2.448472853346467
Ni 2.9429882652691584 9.264706997459022 12.87128629651643 0.09495649617324292 -2.1424097614682585 0.1964381950595133
Ni 8.017241693399386 1.6872819303595863 4.2317536705782 0.2583817266418453 -0.6363387764468782 -1.0279327003090555
Ni 5.0165385577147354 4.646116204612011 8.415530530013697 0.6394138158277762 -1.5136467404861094 -1.8199515160614783
Ni 5.263686519815003 7.3578670438513605 11.481249315121836 0.45870511568837774 1.1327627468422685 0.3648071426866363
Ni 5.267677981065588 0.1701422580609924 7.554881146465651 -0.43668130311911896 0.6520055364498577 1.3388178961662554
P 6.5285280466398845 5.828556641092844 7.456310489886845 -1.2269119166228677 -0.2122355671030861 -1.388769545494034
P 7.879513234865946 6.342109291742503 2.760159060050708 1.2866797807101193 0.7795348243527995 0.9206457075949176
P 8.39438408172538 3.7211757186480883 8.228224988575192 0.6679602600069012 -0.11199493971276842 1.045515189277509
P 4.90108116241781 5.385716459850188 12.04884524492577 0.028179547758009533 -2.7682761776289038 -0.9855629770935931
P 0.899113980223133 0.6194821606149348 4.878140861105561 0.007117841991703871 -0.5412853496844549 0.29083007697853785
P 3.913153021199286 7.581084674758748 4.617656071898261 1.700136308973343 -0.06629178124869874 0.2860079729995461
P 2.365369435193262 4.676084427534989 5.136074986737719 -0.527679328865246 0.09280473993756275 -1.0278311417341846
P 6.360434984505001 1.6329777774099508 11.730643741671914 -0.37019180403731733 0.2662696140303543 -0.1454701886520785
Ni 3.7045369483078927 5.430184841080716 10.014687817395313 0.4879773822899338 1.0515197436003763 0.9867593113945394
Ni 7.364605515385256 3.650380285843267 12.299251824929229 -1.051625673050621 -0.01825843198955565 -0.8068193711003654
Ni 2.895173693659965 6.49585890421016 12.903653083451887 -0.059996178047974094 0.5857186402971654 0.008762576683978457
Ni 0.7630687568498689 7.363121392379843 5.395966126742855 0.06684379709742681 0.8663818040450305 1.5425649661823562
Ni 6.363550721000839 3.985709121668914 4.0614344239351965 0.20179046051036215 0.03754350547141276 -0.9992690138257757
Ni 3.290743174456902 5.392270568277822 6.98141601717385 -1.8156078943808023 0.41006472897285506 0.3881440176403638
Ni 7.26717883188081 5.834714368842014 12.534573815578286 -0.13581569628144996 1.9328656251544067 0.3521413742935097
Ni 5.722888926738461 6.5287308460567735 3.1951453729665795 0.06304807750042045 -0.31069004912725845 1.0418318268886508
Ni 8.63481200860238 6.174790554653922 7.67981388360894 2.3311331043820176 -2.011845800504051 -0.9817438604578189
Ni 3.4147089271078435 4.466159376589132 0.39052161894746834 0.9083728037648355 -1.0463937352277204 1.0552588989278344
Ni 6.5501169663832295 5.701069553112288 9.95865710395553 -0.6112136992444764 -0.4684881632170706 0.30449651872203687
Ni 5.635722050097526 7.717246046888958 5.901675049036573 -0.2029942510104762 -0.39989755863186616 0.6069924620742773
Ni 2.818192878640035 8.727823195711837 7.146635780297632 0.3734745885536471 -0.5111965007188745 -0.06903103455673273
Ni 4.133430060561786 3.4366481367530874 4.870356128943625 -0.6678265626425143 -1.1255181494647133 -0.20176037860337512
Ni 7.793258955601009 6.226366133630871 5.115257626594084 -0.2538879525365499 -0.5226754478927514 -0.42682163671621975
Ni 4.71837732411162 2.3719143254655823 1.9311214965179722 -0.9983781265803904 0.49541146997047586 2.14963867511653
Ni 8.263882656957433 1.779426610869611 13.233362531798651 1.084726569369648 -0.4884710340969007 -0.2175225265336383
Ni 2.8147637248635515 3.8432333131492125 11.53489252633552 0.9444852332166765 -1.9065925503904908 0.7570754669080187
Ni 1.6366466032245757 5.151261897616098 8.891409501714133 -0.7401766342701511 -0.41624051876626383 -1.001274988512211
Ni 8.686147915541188 0.08326944057454538 10.316105825270558 -0.2232756269673316 0.3063168597602273 -0.9500087341380673
Ni 7.745167839332422 8.557766666495256 12.880136647432566 -0.3605612229260887 -0.3185023460828257 -0.9939496584953913
Ni 3.759726044167588 1.0808102741535999 5.578197995497015 1.6497902524206234 -0.8522759607712675 3.769632155890695
Ni 1.7152498135796155 1.7302293159634483 6.7524757554480725 0.26459145499698306 -0.6386838796402872 -0.34448154375540674
Ni 8.851632239722456 5.193315122154586 10.680840576545082 -0.1327383429077069 0.8364230528994111 -0.7984725417975668
P 5.366708623594518 1.4317731013903117 4.032237760611927 -0.5098392153600316 0.7801799141359661 -1.8492674914167764
P 1.6056736013724664 6.9775812645635895 7.411342484638346 -0.22546774952264395 -1.1808423759583146 0.9731692314149304
P 2.5462941695240198 6.768679428857488 1.6365700925354765 -1.22008255240586 -0.06630000877881485 0.1432623823674823
P 8.5020429176274 3.8452889617840396 0.6678820850865119 1.7280677452762885 -0.11411532848988089 -1.1639707970139566
P 1.8152944531929909 1.8763370776765227 11.019671389574187 0.2122481655085764 0.9027405451797227 -0.21919734313289993
P 4.0499412278907885 8.9196345714674 9.46394359731931 0.3832995450638689 -0.2615547250531883 -0.5604416108979315
P 0.8421752784850057 9.217178188664535 11.877352527111405 0.803379749291197 -0.6864755452022693 0.8925803168172692
P 7.977889388367644 0.7019514653083008 1.6499271995841986 1.0699581528112219 -0.7902272710696391 0.9619810760085948
