# total energy = -340860.23486273823 ev
CRYSTAL
PRIMVEC
9.41345117240585 0.00000000000000 0.00000000000000
0.00000000000000 9.41345117240585 0.00000000000000
0.00000000000000 0.00000000000000 13.77753731704580
PRIMCOORD
 96 1
Ni 6.299556942286829 5.11522238923317 5.2786841476636255 1.7414809333584005 -0.6015666630730155 -0.10806423719979454
Ni 7.340430496965615 2.675406417921307 1.5013654739045854 1.7609878930430767 1.9062984161888394 0.3571434554937914
Ni 0.8985346397032774 7.049112418441524 5.3736668129984215 -0.3861210736730641 -0.7724108117135084 0.4139553222765129
Ni 1.957320109585982 3.2077935717329376 10.729105418828004 1.2113174046187203 -0.6645478918912426 -0.32566363971795526
Ni 0.3235638560787588 8.987925682699094 7.159304397101404 -0.6769717194768922 0.5603379954405318 -0.18440954602975337
Ni 2.64755201541532 6.012013657748847 3.950984613438732 1.1718890234197687 0.35947621739202607 0.9180635486900383
Ni 6.313658292389556 7.9152346625014705 2.465683194240624 -0.2553329125131925 -1.4862670629215757 0.6291268320794713
Ni 8.754067311135646 7.054609874022294 1.5013795940815908 -0.5797626798240466 0.8114707538294478 0.7744679513528533
Ni 4.958008338455038 7.332692639966655 13.421760103633975 0.5519022059683528 -0.3839528623771516 -1.6200886115911324
Ni 0.7346596307591308 5.63560739259021 2.9004613297944544 -1.2371986432608564 -0.4194256013624648 -2.0739397416213183
Ni 7.205168614705213 0.5268586338414497 2.2632497472752626 0.6138449662197364 0.549959223309369 0.36459502667583016
Ni 5.055654069173053 2.7577364633141306 1.224370902934772 -1.0371063963885236 -0.7498897477928569 0.4267936116917618
Ni 4.805340984672645 2.1269975699342143 11.083257343680996 0.2862092903770748 -0.37644626958746136 -0.31087593988581946
Ni 4.362635781747983 3.693490006913377 8.960359331804018 -2.886902249504944 -2.7744679082619124 2.0690564453870883
Ni 4.859185926319906 5.694008444684548 8.577412600656478 -1.0970483241597944 2.9829643200375404 0.0771238388671962
Ni 3.5436561019834008 8.118800547662666 1.1013154430229717 -1.656199498381077 -0.6850876637158072 1.4439099381116036
Ni 3.4894911029906837 1.2860845485545767 8.870282015960896 -0.022391737431638855 -0.6716114836062433 0.4596947332951567
Ni 7.28371445266059 8.51366659089303 8.019518759102292 -0.030856837479856535 0.8624660139303921 -0.45021481882917946
Ni 8.425208388679861 5.431759103888908 9.66589280278154 -0.8860198899909322 1.132633934573888 1.3719835842849468
Ni 6.478836122998734 1.2375582069126827 13.20202190907593 0.6154650183216626 0.5077851610444803 -0.7355049398260946
Ni 4.9105739571682285 7.015129859115192 4.234277724698087 0.3141574388505686 -0.8996045706539023 0.003128004106020419
Ni 5.9253345978383605 3.7758012254035265 7.451526166953842 1.438156066346962 0.33259199140667234 -0.8422247471828528
Ni 7.958884836350833 3.8012834381726064 13.274147773219516 -1.2173638679231165 -0.5024133552096057 0.32938145488917464
Ni 0.28763930174161817 4.81736196202991 4.9229074611098795 -6.736290282569042e-05 -1.1543846959874182 1.622853061710147
P 8.994430377572915 8.402361942285124 9.153093158511801 0.015596311776360236 -0.2596243407996948 0.6413976790270245
P 1.6041368288755609 4.0085488097092155 12.87134713185725 -0.4153043801052396 1.166702337012507 -0.08854159378583461
P 6.8745305499467495 5.529743718855053 8.160173607633624 1.4819663786636927 1.461459774069909 -0.17888373111551775
P 8.550275503142366 4.778493821459709 1.561642626850374 -0.03096739491579183 0.04701853484138354 -0.40256893481644224
P 6.137476137167502 3.1382940605123553 3.1798695096870575 -0.8633093357672937 0.19088332667955513 1.3814388161605757
P 2.4393264718423424 4.994654904509722 8.826055738889714 -0.07270899762895221 -0.732348396474984 0.5751115542052805
P 2.8994183193863217 1.0388025953846614 11.125733660148644 -0.7234773192375992 0.7535312012001861 -0.8000398862846867
P 5.822257305698936 9.07755115287804 0.7819010362935332 -0.4433096070689139 -0.16137091904273498 -1.6816639612007684
Ni 9.401289157806534 5.794035778590807 13.421953079386382 1.2780213337041733 0.054266988873680734 -0.7827790423217099
Ni 3.9852128638449567 4.511773091279026 11.573944790760278 -0.7608107655807349 1.1377568576227501 -0.8644416495995242
Ni 2.852398129958337 5.493661959880585 1.4643320149999541 -0.02581593262183941 -0.0818667528688203 0.3083616581043979
Ni 3.4389314558600117 2.984186448675411 13.17288257046245 -1.7854969339280347 -1.6827625935815855 1.1675240615828537
Ni 9.198410454592935 2.6268235955713917 9.388992366325096 0.45695033778080013 1.0133280630220032 0.9769302411192595
Ni 4.1315732052316045 4.837742084174371 5.707620295317755 -0.5728641529320004 -0.09239670586586668 0.3311004944628104
Ni 6.771792142055452 3.3569779485206657 9.83160908280719 -0.04706867135302861 0.20143539116378859 -0.014712623619826273
Ni 5.652184480394551 2.3309494066002237 5.836330415447651 1.8700229787965732 2.7505993291744306 -1.2785460958593917
Ni 4.059419100734006 0.4577403674000129 13.320909092735734 -0.8060516396964053 1.7176393508541128 2.3908755145479725
Ni 1.2046958482954466 1.657614645920682 13.285996484417316 -0.3083961108867592 0.20658016858952166 0.09658297603307237
Ni 6.017859411029084 5.456676509577772 11.489446827524558 1.2036341770418497 0.40338268896698914 -0.10103561248778728
Ni 5.219288093762974 0.48406037733807994 6.971089968380482 1.0896566596814137 0.34079741003560016 -0.3818463575571101
Ni 6.944547800990863 6.140996767967516 13.662536420584937 1.7449308395802143 0.35987062461696734 0.6181225105491677
Ni 4.329312164015237 4.315681486479357 3.089213266586716 0.19511459115208332 0.12885649135479743 0.7003474180883552
Ni 8.906075723324454 8.370986908979123 12.725484762046326 0.8801477474808712 0.9688528634277638 1.072133820306302
Ni 0.8798414080383942 2.6181632203414122 6.168120686649757 -1.484398385143953 0.7926417940484026 1.0013174117143724
Ni -0.002999125595947125 4.540521771662021 7.888563530828535 -0.6392976019648862 -0.7289367996902736 -1.2718396303734933
Ni 1.895963233771847 2.702423023258307 8.285618201494737 -0.9169975693193692 1.8217155499404367 0.3999937178900982
Ni 1.1243143873293684 7.002506420872364 8.137344105451291 -1.9111945679388764 -1.424660088743056 0.5551353681936697
Ni 7.761616550134048 1.9023267268756143 7.870445461040339 -1.1079955671999175 -0.5427866168203297 -1.3194605746855663
Ni 3.920580106965569 8.725233909690617 5.5970282449760544 -0.6905733694207268 1.5316508903730137 -2.687281285842075
Ni 1.222590819286958 9.199417693885987 4.996713626317109 1.074829364860594 -0.9944445958539391 0.9311378653754931
Ni 4.091038883774767 1.7141612481016437 4.231825520624816 -0.20236767317007084 0.5689249657785944 -0.8040520927678734
Ni 1.7279425408589149 8.774663942660858 11.744910011251404 0.969135684775505 -1.1233720496559878 1.4622506454023203
P 8.476756448200913 1.3320504314328245 0.3475333272179935 1.456305483562479 -1.0789688409502645 -0.19995572129446854
P 7.311870085609359 7.1228009155070415 4.513452450997535 -1.5727679721282979 0.37716617847262146 -1.5916563243923685
P 3.133351998560465 6.783041216403089 5.9779360225640135 0.5038182059769323 -0.5430298431793874 -0.6068654495781096
P 0.6233766330892998 7.887399086898157 3.200012412857828 0.31978918321504923 -0.0740660258774789 0.69830956172272
P 1.627162130845701 7.734138685681538 13.764517986988743 -2.315166296640116 1.3410028196327164 0.7799156047309859
P 2.170064109800687 3.899249226236077 3.494011442322679 -0.6407703298556706 -0.28268842170800995 -0.044735395234161666
P 2.15725240253112 0.8388693610943895 6.859670475666264 -0.01274290148796515 -0.29320629052019825 0.2523689447888621
P 5.615584981596553 1.7741908272772708 8.708616344045529 0.6294322791350321 -0.008215960151889076 0.6241736018392541
Ni 1.2992351400722733 6.178001045173001 10.302415320662867 1.0776596352205374 -0.16662111169808078 1.094921507624779
Ni 2.422504634303242 0.17553356842493922 2.8862423115500153 -0.8339846186612476 -1.4816182512956548 1.3934952331044774
Ni 6.708213691725802 0.2593481150935972 10.164364232771332 0.46494184062670896 1.2502729599463114 0.14445768822716412
Ni 2.627557844775672 6.172607137556939 12.988773347869564 0.7840720501015206 -1.4812737234720423 -1.6345464388876754
Ni 6.414419875500095 7.275901288050934 9.771800719737984 0.5585143119682316 -1.2379144383809584 1.052669283823787
Ni 4.498914316752774 0.5343592718667186 2.2803756392925463 2.0455897297237158 0.09320300381724593 -0.35656418595155365
Ni 6.7467429480478724 5.554990595340708 2.8682212003105896 1.017882772272221 -0.9377525424785335 -0.07734418240811841
Ni 0.10518119851323039 1.033305139803892 11.056887442450844 -0.2564721683239583 -0.46186937234897235 0.79551165939703
Ni 8.999833698640316 0.6326121701959656 3.8158272204881696 -1.038812580446353 0.38790696192889323 -0.3662932403138595
Ni 0.7529396119103227 2.9981277701054103 2.0070570210698055 -0.270979617911514 -0.10135622905199965 -0.06784986976443799
Ni 0.4720488134321523 9.352875777580683 1.6300068758397224 -0.5898768854399131 0.42134955785805495 -1.997461506757921
Ni 7.3934376414438905 9.122217979471792 5.7264133095668095 0.7832415837804253 -0.6153009819399725 -0.42545972337168664
Ni 1.446546240043951 -0.15564671113053277 9.51552515516076 0.9005293964610167 0.29515775781961423 -1.35866167036506
Ni 3.4063891545882314 2.5657397098460275 6.374108652839944 -0.3928285676002267 0.21539005357166777 0.4230089478383489
Ni 8.111335680752477 3.3010338072252674 4.094077545866329 -0.3982679934482431 -0.7085345818848378 -0.66023589477945
Ni 5.534516338682878 7.401382594372262 6.786622093291657 -0.2817160304924116 -0.9476227504043938 -0.06289586819327232
Ni 2.8466559246428074 8.191745382072567 7.550310925283626 0.8346980997885044 1.506697819972102 0.8757550177298143
Ni 9.388157393191511 4.2065325182276085 11.485340680051387 -0.19020198434181437 0.4366990437309317 -0.6894816790184448
Ni 1.8452906252251322 5.205911579413191 6.741031807121754 0.9941252648413074 -0.9441710444103674 -0.400970994201703
Ni 4.905264770614197 8.846592124326369 8.805458166019369 -0.2098138450354709 -1.9865307187780306 2.200586884029623
Ni 4.538036620509072 8.968449251882978 11.491706055845423 0.9094022734706144 -1.312314193448772 -2.9690171138288286
Ni 1.7266811383797658 1.752539889202323 4.385389976319619 0.8625925122059273 3.295317615799835 -1.638388952562217
Ni 7.945489495098376 6.640173265462444 6.3517479405341915 1.3070280053491685 -0.4072935939856211 2.2447638356571535
Ni 5.022509307015708 4.9608794411128025 0.2373281697262415 -1.1435505814863918 0.4571413707456837 -0.2680770995527383
P 8.00805129268364 2.4828072035676403 11.412154861287263 -0.3137391203662274 -0.19707454309193156 -0.24087997031265612
P 4.889412518562801 6.223684524511142 2.0004845493463583 -1.3471495559604025 0.8169153218837867 0.06772799947459303
P 7.849726454647747 6.862839043386277 11.800709185396212 -0.9174241153338264 -1.6428446743407255 -1.111557573519563
P 2.603581784220502 1.2130926468879917 1.1204322799980169 0.3235954443350169 0.8527009641238282 -0.6564813128330241
P 8.24115658814013 3.4317113386845834 6.234721796203697 -0.4893837757191571 0.31602611662819124 0.4926771017584483
P 5.8978849737398615 0.6832367701408623 4.665735735965382 -0.3060795469384406 -1.889947485634642 -1.5758347839790796
P 5.488230398459174 3.250775390537378 12.872490866194688 1.6405412230185294 -0.03709356241818773 -1.0888624459148926
P 3.579342496001717 7.095436012470575 10.943360277982288 -0.07969879868322402 -0.8828702886183568 0.38737654334671995
