# total energy = -381167.48087098874 ev
CRYSTAL
PRIMVEC
9.25165493657902 0.00000000000000 0.00000000000000

0.00000000000000 9.25165493657902 0.00000000000000

0.00000000000000 0.00000000000000 13.54073217129354

PRIMCOORD
 96 1
Ni 3.3777144337539267 5.656360023167739 8.112726202093373 1.5628280873067666 4.633688654236658 0.4839901155074116
Ni 7.04601409551764 4.895161614910195 2.5181561315134835 1.3453065892143927 0.21607422412288593 -0.15214631512067345
Ni 6.668740861316898 0.5988133618686825 7.070496749816799 0.520473040924794 1.8704999184329913 -0.4186146754253952
Ni 7.761268785659467 6.597475363804739 3.9060274099687207 0.6078859204228241 0.205987015090213 0.44330163664911393
Ni 6.734686657275183 5.160045745673613 5.398270307745477 -1.1959625194292047 -0.5782544707096363 -0.12217856511398958
Ni 8.047080159753081 2.5651230826585207 8.263800175230468 -1.3347887204022044 -1.901190662648629 1.7875247629913409
Ni 9.653916830324183 2.8380931597838277 12.166360990117038 -0.5049248087775496 -0.4833882202573546 1.318931955875606
Ni 4.690931333515815 3.926994435414885 4.46152267337558 0.405831664728114 1.0800911274801657 -1.136430682612159
Ni 0.7878348478119075 7.0064262643019415 8.485123814174303 -0.48923927972149295 0.08780754383328748 -1.3025041493368856
Ni 4.333086574555309 6.3272622798325715 5.706619638283253 -0.40935716138286915 -0.3068192533179426 0.018798877874057946
Ni 4.361424393441424 6.474983453242493 0.6044272660476229 -0.7692020749682237 -1.319289339215025 1.7000653465260915
Ni 3.0736772995539963 8.172375321742846 7.722983587450351 0.6907551464142297 -1.2962278294098708 0.4577221829498181
Ni 1.4920791434854461 5.014026876760929 7.353524300958135 -2.3601737145887416 0.39287227635396854 0.055592135443007486
Ni 1.4359401016960425 0.7573478694980277 11.8673280760397 1.2170926165396005 0.6041400802271467 0.9793853875279712
Ni 2.1551267451602976 4.652166899584108 12.225953674671766 1.1754222333840079 -0.2931206727849274 1.027737553579114
Ni 5.426687690863528 2.5131565372183298 8.213293540929758 0.7265752414366327 -0.6696260777450984 1.4835558346379998
Ni 0.8921685353484342 7.769567520083509 12.135786121081834 -0.7997930603812032 -0.033551610703200285 1.2528857149788102
Ni 7.505469779984577 3.163973451146709 10.760142754876606 0.5513093095793602 0.02086193105067375 -0.38590175857340636
Ni 5.110725173528044 9.379420230144287 8.562427866824224 0.9671459080389859 -1.8178761215896886 1.750314986710263
Ni 2.213190131163972 6.0913820871063615 1.2556901097410398 -1.6173179908245308 0.7738393166299189 1.1348255429085683
Ni 3.221065413388372 3.670464549004768 8.667896732414073 0.4760106968463609 -3.4394405463953994 0.3362511854258145
Ni 3.197890017923234 8.994292340953564 10.330535684537084 0.018916377288528713 -0.2641489681429257 -0.048476093223516516
Ni 7.5024907471144076 7.826974038590967 12.86963941302149 -0.6550304393191106 0.7443724175190536 -1.5990251060526137
Ni 5.09056581755258 4.231882721863436 1.6696803866493632 -1.2767046717752786 -0.14289574305668296 -0.8952570923184839
P 2.6447335728691046 6.662440484346136 12.797643959939592 -0.3677600546673731 0.6664083421387491 -1.1524936496122926
Ni 3.9887954899885862 0.1783460013814595 3.6158760845726325 -0.48415492322005005 -2.028003898321152 0.7963205284515704
P 5.409599884306998 0.6364352164231668 13.132005243327578 -0.9124042935217318 -1.5661949468964704 2.48098959502725
Ni 8.82578269903659 4.672511288657097 9.153860258432593 -0.28892000444001853 0.8609349219978463 -0.26912688097349136
P 7.98517733697574 4.741445369140427 0.2782481462322373 0.2699987420554834 -0.4214714281478999 0.3041093105859472
P 7.155720219040835 8.533337888396666 3.3269987120530113 -0.48363067528546383 -0.34399689080950435 -1.0849217160995897
P 1.6284947946365274 1.8966170046066513 0.6529531210393174 -0.17128046484696308 -0.3188687282833089 -1.9291922900678775
Ni 9.204748986079695 5.110373610642744 11.954313060352185 -1.3424745190822365 0.7298407995617817 -0.09616517176936343
Ni 4.631036119846633 1.7929799666823103 2.1519062440978565 1.5695918883931614 0.00608451563118307 -2.8059847479232705
Ni 8.912618731705566 6.9448750044099 0.7532401347329494 1.5403736149579923 -1.3230637186557925 1.192117948872134
Ni 5.515771875667445 7.298380737233421 3.817741642980628 -0.18482452207998493 0.39243081794117574 0.5298938200180616
Ni 5.332145029682593 0.4392991039879368 11.126270520447866 -0.05083019527798988 0.6401054425781622 -1.1769605244054053
Ni 0.19069233481388526 5.317305375261003 2.9937337497678658 0.9907946578061774 0.11769944629671343 0.12572128815992542
Ni 1.1554021708819202 0.38675062945602595 7.833516808919488 -0.5198120103020274 -0.1715100643592659 -1.2536557603756153
Ni 0.6578009881944998 4.301843736038036 0.7907602210837944 -0.4407719282487248 -0.5826721401613578 -0.04016654491655663
Ni 4.686916115299501 8.471083502734027 1.6833293530883724 0.17069733864998343 0.6361654840938077 0.39115297967001667
Ni 5.007976294471828 4.442515148432216 7.090224978675027 0.8269464808675435 1.0074762322269164 -0.3399839129953693
Ni 1.1853867843360166 2.4692851897949026 5.0928315478317865 0.792126802085197 1.7410703281835433 -0.4985456447240833
Ni 4.560353476591682 3.1555266902446446 10.738897254618664 0.3653833269050804 -3.222777796758895 -0.21153057061626152
Ni 8.589911757965256 1.3609739422333627 5.5957209764465015 -1.122146661889319 -1.5232523818966734 0.9860404309506439
Ni 3.208464659446848 2.1955934835892448 3.6558626621135 -2.5709658643770816 1.3040049022521285 1.7126691513330308
Ni 0.9054677892331191 8.855647040977296 9.925966367789298 -0.6105562681661356 -1.2182650395811472 0.9895031926882635
Ni 3.39965010746564 8.647938137349426 13.342035387163913 -0.9458800566816743 1.261535420234008 -0.7575241244096631
Ni 7.964832947902751 2.467388600545261 0.5862255602439852 0.7722076945637669 0.8639346280561185 0.009934742615208696
Ni 2.8299424518378054 3.8340153039080445 1.035623770694894 1.6535654031923395 -1.0851970812481633 -0.5948794808608271
Ni 8.40139078655084 3.329078484069204 4.142461776822021 -1.1368358884703778 0.49706571774444724 -0.921513969132484
Ni 3.325414828738188 1.168391494328249 7.922072724229968 -0.9382099417309261 2.1842747771331608 -0.6311482333848742
Ni 8.666543215305671 6.794813162316273 10.465293439134332 0.6527190175771146 0.9850765243754777 -0.7816832381543699
Ni 8.380889119344953 6.285296773313663 6.674755362151982 0.9662316237548326 -0.20822670305400912 0.262321942236516
Ni 6.019293192310212 2.50069455809995 12.455063506359497 0.6215554474901167 1.3631392465204395 0.8022510350033926
Ni 1.850673286490933 0.25622920762663726 5.203595135507344 1.340400410162027 0.7573490322843796 0.6684063464053843
Ni 0.7971947470502628 2.4600427865734766 2.4675412528507197 0.14361230950773332 0.14087434175127997 0.9159063931377195
P 6.980364352515397 1.1844338638837575 9.825168662746494 0.307493910787464 -0.1780974877687965 -1.112655177459116
Ni 5.850672530534721 4.769228088733963 9.555017564861997 0.6846348924491047 -1.0799283766500565 -1.3372047860428646
P 6.25317502758314 2.972806506437669 2.9926235511827093 0.7138963604173835 -1.1302908882630083 1.080183687193972
Ni 8.251125408049933 8.749484301271723 8.417216667382244 -1.0401451832148472 -0.055161475663492096 1.6124969152868036
P 7.089681906533787 4.7537500701259106 7.68274073906941 -0.3293035504633877 0.2608774964805055 0.4588624672018484
P 1.0306158499103513 7.5729328473425745 2.430818659150212 -0.43647870019000956 -0.6089241318793512 -0.39501760483174553
P 8.984938917873622 8.54951903277532 6.485753304683997 -0.6440256035681746 0.3946198551726946 -0.9987421947880283
Ni 6.729200425933535 7.916872369023999 6.109280338630056 2.2628895987235866 -2.531082140808267 -0.5577447807920588
Ni 5.096801432939209 7.399353298553387 12.314049782734894 0.3196598567260366 1.5640611883829192 -2.8998791213805863
Ni 6.092797590302435 1.0259715191624474 4.351612088279618 0.5975120333876678 -0.466509442224145 -1.064586089866031
Ni 3.7614730780229566 5.106145604364274 10.515989732360007 -1.0658860396243772 1.971644031474185 0.5625655992194699
Ni 3.6479737760004767 2.075590268188724 13.173250045931624 -0.11796092748821621 -0.3330504191003296 -0.23270566203197987
Ni 4.8354421826836615 8.673148896887351 5.622708053720676 -2.9394525127978346 1.1724922042214065 1.382087505488168
Ni 2.218139766522794 0.06563956618187895 1.8561909734591597 0.27888473169120354 0.47674808923301765 0.3802214203591774
Ni 9.372296455889535 8.349683287447185 4.209150480666873 -0.6273262885356229 0.39100462701761046 0.02427764160044206
Ni 1.2526555669416124 2.736001148223829 7.5930737000082855 -0.5470093966524257 -0.5875528652924269 0.46800428160211655
Ni 8.486487508103071 3.649361524231922 6.474257198334704 1.2101884332205997 1.521702006690418 -1.8915210007693488
Ni 6.758093344112228 8.058385682011924 10.241708695738726 -0.3515289375204914 1.1228367459778081 -0.4260055685728276
Ni 2.615109773955184 7.543762379517593 4.014935115676091 -0.06746574695214187 -0.3329028377788718 -0.39563955468646056
Ni 1.438253015415118 3.6327918103484644 10.231106299250483 1.3638457856691608 3.2758029428056745 0.13400923920033048
Ni 6.181520960566177 5.503652207779489 13.262646011504874 0.6452569048721145 -0.9215399372744129 0.20082269728045413
Ni 8.18913006872383 1.0194861090941594 3.2025722804561303 1.1473696981221657 1.7044459920922905 -0.7094545225959459
Ni 6.72621214140849 0.6263111304920289 1.2520597603675787 0.0463868147946556 -1.1127104561770835 0.2578654491270591
Ni 5.793117985549244 6.736536988250443 8.177072386923545 -0.43128635735579274 0.5854985538665594 -0.18585990532303476
Ni 0.4268722811580873 1.8512006308188822 9.905627529709236 -1.9805068811814532 -2.0569064402881154 -0.9446271581111795
Ni 5.8505152524018245 2.557777268686737 5.903149767324084 0.23666927466541823 0.5671714734225973 0.7702989075768283
Ni 3.0285107204478865 3.659205285020308 6.209413774852742 -0.10169021535265067 -0.875100671975267 -0.9459409918265967
Ni -0.006975747776732122 0.1623998490366644 0.3924357713775139 0.38093747258959554 0.5402383964771793 0.2417644298001385
Ni 2.3845677860926004 4.3033980140572545 3.2108460354120076 -0.36477217568364273 0.5097924212824962 1.6732027178072926
Ni 1.4353017375095773 7.363577149146725 6.180775277183147 0.8154695905761955 -1.4155969500995234 -0.23367728191662981
Ni 6.702435388376393 6.0191451658321915 11.144808061323513 0.09367145881323222 -1.002962403516963 0.45714034230441913
Ni 6.547627447331222 7.076997887698377 1.3775390302893824 0.5496627751148726 0.6052376841666995 1.4834254797077226
P 0.916525367141276 4.816467038532365 5.327979934657281 -0.2670180621606047 -0.364166937999476 -1.37318943166759
Ni 4.0034963695870305 5.9733124675749885 2.9431318234219286 -0.20634568398121234 -0.7241542906999657 -0.19545012011463114
P 4.51279071887261 4.4328749240511085 12.596685988874961 -1.3226343444278577 -1.936087217415498 0.322601970073496
Ni 1.79273017200065 6.562800161328358 10.384508913919944 1.3991573164862612 -0.8643097520073502 0.7419625225259803
P 4.135943060796178 7.101200216854784 9.979316035633497 1.2020663183340976 0.5464216424697558 -1.5185112676672623
P 3.7870168971364273 1.4060387531358325 5.721487047669472 0.09390491498027699 0.8258383354050294 -0.34861382075622543
P 2.711835825686927 1.8492022733656008 10.078610346758902 0.12040424682238618 0.3028818659367493 0.03549690735502919
Ni 8.235906435778416 0.6664707139790831 11.665476395114018 -0.5869314296583441 0.011344221368225623 -0.3124754231624554
