# total energy = -340859.72857303626 ev
CRYSTAL
PRIMVEC
9.35646461702596 0.00000000000000 0.00000000000000

0.00000000000000 9.35646461702596 0.00000000000000

0.00000000000000 0.00000000000000 13.69413173295719

PRIMCOORD
 96 1
Ni 2.302139444354775 6.80185048276638 6.509669607788824 -2.013856660286493 -2.1335309709213903 -0.7370483730538144
Ni 3.129176078529438 8.378386727545637 4.225379491280631 -1.316707180310145 -0.6750302794798052 0.4869147453533743
Ni 7.236364706803299 0.9035247980437278 8.648515350700785 1.113589259237611 0.1393841303589987 -0.5953091121990779
Ni 0.22518858720614443 6.751989881993496 1.8520766471588437 -0.2911617492863437 -0.5125334743627431 -1.815751876157834
Ni 0.2588840237915052 1.8619458462009228 2.11744189409829 -0.0934094634010972 -2.849623310548828 -1.9086322065283388
Ni 7.785860526430004 8.553343262327427 12.119909742164863 2.481727501634539 1.1023178000888498 -0.5528267746651511
Ni 9.114057483216412 3.9734192514208075 1.2938007209895839 -0.5179181357134243 1.2885037212927357 0.08661506618708309
Ni 5.0867637076353 5.475234768526532 6.800396488140727 -0.7208671353082617 -0.538132662988086 -0.4983908643137739
Ni 8.236458513410925 6.810308726920759 9.839001052025466 -2.1711577801352284 2.4060825613057144 0.2038064624991264
Ni 5.922791904456377 8.749520259213346 9.718574929584536 -1.0454503974778446 -0.1014971255052381 1.0379417478056254
Ni 6.640891219284314 6.131590772320457 2.6901847860988566 -0.07069865206714276 0.38404156543621604 -0.1516133254353389
Ni 3.464886034568297 4.885038327139262 10.775939657064901 1.7116741344096136 0.45633173036019475 1.7662357717055777
Ni 5.424157827333217 1.2299821460690192 1.1598741555283512 -1.6724825518118165 -1.6384899969164557 1.001362920240327
Ni 4.188486950682492 5.54545503664447 1.712300419921817 0.7815572540994669 -0.032793906601569334 0.20885893732136934
Ni 7.068491015854323 2.421808628795606 0.816496576608392 3.5121197192276807 1.8270984115189048 -0.35253141064307675
Ni 0.8559471746753443 8.920621930508847 5.631821756020387 -0.7353735564545529 -1.3267663643183603 0.7554916673606666
Ni 0.9734840207945126 0.26338822593300765 8.548548074131498 0.2372341460299527 0.554752016712322 -0.47194603985868394
Ni 3.539344781228198 0.5159912549227045 9.066090630913491 0.8183337994978681 -1.1437295302664174 -0.5273265735115177
Ni 1.1198004169075473 0.9729974846263404 11.493128587870471 -0.3409563042109676 0.972426439711635 -0.5389155639006977
Ni 0.17608024620097276 8.984498515511003 0.3723863623007528 0.39535827600061585 0.7577406112958435 1.2205373805550916
Ni 1.9349169149619894 2.098449206256504 7.020748718705944 -1.223519603111867 0.8509438722234055 1.500745716153725
Ni 3.1315339076521185 2.4711171981469104 2.4441013417626687 0.47098316172478244 -2.8817638998371145 2.6479578056521045
Ni 0.21963178277773085 8.758960932168842 3.275252949144295 -0.6025765923947687 0.2682637616422477 0.7362742138919514
Ni 0.09834954381011342 5.839884270106869 5.853515703633987 -0.5030026520541725 0.4011633127181672 0.5227019302553126
P 2.3896223899780566 8.002705953998472 8.804943278293507 0.3462561191573263 -1.5844127554560778 0.21295316199540099
P 5.427638432228603 2.061378892827687 12.151556112965038 -0.11195508761376848 0.45835441721717834 1.0848337843714735
P 8.351047137480265 1.134443284276578 4.77417170475644 0.8634340342706162 -1.4105249348932545 -0.26766443749535196
P 8.228533587748581 3.8649029729888484 10.691981291721438 1.3766516791845773 0.23013867263575208 -0.2325053730957157
P 2.592245991092258 0.7037221710584484 5.756164494615104 2.6101008827053307 -1.2164197588422923 -0.495743656498914
P 2.05936725290159 5.223190320483756 2.2448657165426047 -0.6079563686494432 0.902305257414517 -0.309629469073228
P 0.4827327652422214 7.184164989837279 12.960263432650287 -0.437737255187459 -1.6186914741332896 1.3673537988224194
P 6.885693763593142 4.754609208210007 0.9904996876298602 0.10322105017488029 0.6379202620013852 1.4296148616451703
Ni 1.6351638530440142 3.8826802560566804 4.855761013219497 1.5477840484894505 0.927148541710442 1.9839621867199058
Ni 6.0786238252430875 3.919020765233239 11.000633287284577 -0.27897112075742275 1.4544889991790306 -0.2142140309856956
Ni 3.0659450895965885 0.9304339907295629 0.23883405543042183 1.8879649079869743 -0.1579780913111021 1.5185572904138493
Ni 7.947081770925701 6.180889985206988 11.981611836361898 1.0164234141178752 -1.4875166190579607 1.4356965490628757
Ni 5.622402602933867 8.511098823879394 12.697349579481246 -1.3483325205249104 1.2814946369647542 -0.8350043181750135
Ni 5.226249884464378 4.636044086612336 4.239333722842401 -2.333749201848626 -0.21257752382353712 0.9892728218450123
Ni 7.324380970918615 8.563962849844264 2.723324448676729 -1.1975098093116667 -0.2974509247291651 -0.42412609216192765
Ni 2.8638735199039673 5.496960479728378 13.157719458270611 0.5158041746942149 0.06898706869267474 -0.3365607462464333
Ni 0.6130954532715923 6.29000507738439 8.795658858299712 3.5121500582449836 0.05164909163485944 -3.2856602952157288
Ni 4.731648443658185 3.882829959493041 8.78393707923267 -0.4692232416108822 0.9880026968833372 -0.28099457894535473
Ni 6.877310371156944 3.8350652068292073 3.0277585499204074 2.427079732382672 0.3876917605942936 -0.9606201911053264
Ni 5.8971364780500615 5.932709757115272 9.329716511051721 -0.3593733732655746 -0.6075071969271666 1.4604380176736138
Ni 2.174910236377729 8.649228313316453 12.632781551732402 1.0932775442634526 -0.1325457672809266 2.631211953652333
Ni 1.3270461116193852 1.5454447123400947 4.230460051652122 -0.04956829784643076 -0.3764385562779775 -0.2777282494892571
Ni 4.0371461329866 0.49378742837098155 11.522557476519554 -0.6268182385509528 0.8459140231089818 -0.3075628163521864
Ni 5.918001394492833 7.4815508661678 7.678860930937674 1.0555951992213304 -3.9694449238493963 0.1020545406706049
Ni 7.783390419730052 5.567433372395175 7.8699358475831245 -0.7417180106153419 -1.1162418663691098 -1.2754006082518745
Ni 8.471717463651759 3.7124206665907074 5.10376159718758 -0.8795142276619304 -0.445806919569471 0.5838219374950849
Ni 3.4769090918010157 6.110641647694732 8.549602547711364 0.09039973004049592 0.679280827226043 0.9936490965358371
Ni 5.380828038971568 8.49103856340706 5.472641156491583 1.0760084727703598 -0.5859826925918296 -3.07257215030436
Ni 2.228120451539184 3.470406348784098 0.9184829782755931 -0.44869246864738205 2.3271826043747015 -1.569559492493329
Ni 2.1721781486641465 4.105691593910254 9.285306051008844 0.09985367636454416 -1.4934820926127763 -1.2521069278312567
Ni 4.23505407585544 1.9975584466141676 7.305408867299328 1.6813479726222464 -0.5161546160550982 -0.18827160008832092
Ni 1.4630049012292143 6.695785598104828 4.009408893168396 0.36264767314147217 -1.2968145551512762 -0.009364729044351613
P 3.256480138224664 5.335505323613368 5.161236488992359 0.6329696028643292 0.40970606008185567 0.48266419760713647
P 1.222730885870298 1.8168757553915809 0.029919167403162247 -1.70875618943187 0.06141362722079101 -1.6699330459170854
P 0.47895462476706835 3.7880583278119486 6.923506980324899 -0.02263933466607069 0.1944075377827297 0.8490456267594282
P 2.0071488230060246 0.054928997740170946 2.4346110795438776 1.3517878260633622 0.40939289971681103 -0.9197728180716611
P 0.41148796423168915 3.4439930487312074 3.3657028297469505 -1.7044861013016064 0.875816209985053 -1.4414668758877498
P 5.075208473641209 2.76382484209116 2.951551079994518 0.646273519062087 -0.8759707332850462 0.28612238709022336
P 5.7667822108389855 -0.035702398279071366 7.309845702894469 -0.4555470296753703 5.677834473970467 0.7562059198188719
P 8.68273381366693 7.44281510200947 7.447663622054602 2.0650380682563148 -2.1244696320500704 1.4671676230879636
Ni 5.443469570623747 2.0720078368092962 9.987130731011419 -0.6748616151124248 -2.6420422114986173 -0.6970764606465673
Ni 7.106861877886525 3.280002290662838 8.580140177435991 0.0761481052174882 0.4871127202967933 0.3520984368707162
Ni 6.793401595076773 6.018293340389727 5.134587406027202 1.7970162474215439 0.7823440116668204 0.5767902274592841
Ni 4.14194789490386 2.0533884719119344 4.8835469066545185 -1.5744774986202368 0.6800398168792546 -0.2351410109463499
Ni 1.0676100564062998 5.346667586087012 10.738924546778243 -1.1093903906649152 -0.6669729563929675 2.2212019891768136
Ni 6.406717618957098 2.1697641807528303 5.271062672492475 0.44143681552623326 -1.2989028051388727 -0.12988673239152468
Ni 4.719700238143647 0.27858686730952725 3.4125366141659166 1.6489232764346375 2.164230713998092 -1.206000363281181
Ni 4.90474304195024 3.3066869281941322 0.3883980804660064 -1.1805760096708056 0.3937456800978573 -0.25916077089971495
Ni 7.532075775939535 4.035976574890033 12.870580782158981 2.290111410554017 -1.9209362207066722 -1.2542368296900657
Ni 7.219944111127485 1.6233653509658368 3.0988452266762834 -0.3337793268465542 -1.4799143812306705 -1.1179387944555585
Ni 2.4909154776056126 7.248565536866695 1.3238611710108112 0.006319257349808472 1.1867553990086401 0.07357880182841521
Ni 5.662738322568304 5.261944797571632 13.05020619286227 -1.8883654858595027 2.5464802205308916 -0.8600157526176866
Ni 0.9630889884322168 4.316969924939058 12.88476798969359 -1.8597629916314617 -0.4777780731594288 -0.9978510504323266
Ni 2.9516932982590607 2.854395421089381 12.40014615421379 0.3803227218237321 -0.22548291903129555 -1.3713343807367222
Ni 6.952031098830475 7.342476373788714 0.5114674042051797 0.7397490598144292 -0.47421092463346076 0.40059921268458104
Ni 8.008656665593808 1.6410958517098067 10.966452250177522 -0.49039293370996184 -0.0027464523968855925 -0.165285937826425
Ni 0.3072887586457816 2.7464405305437745 9.17931321112604 -0.8559009591183646 -0.3202054448168615 -0.36508533604868737
Ni 8.966889648809076 1.4210879390482194 6.746427463686219 -0.2945746316226346 1.158572765926837 0.7370990237860918
Ni 2.8392379481578605 4.264124611903733 7.164262853619602 0.10470920468463257 0.5282105187783677 -1.9490293793984628
Ni 3.643996839709097 8.33653526061805 6.77791103199935 0.5397421735670511 2.464022113934976 2.1381453297649498
Ni 7.755798205115822 8.63056216609523 6.262970508070603 -1.7650137263730181 2.236065022331575 -2.1901402347750025
Ni 4.6926694114157685 8.504165683482938 1.1470763830124662 -0.7129630499698367 -0.3312308493930876 1.759008657829519
Ni 3.369075835297452 7.469387461963494 11.082017689169115 2.1708518188590356 -0.8077521673272798 -1.1266898011753113
Ni 1.1379800279605994 7.645111226856632 11.063612587315045 -2.518538242704985 -0.10082272514603281 -3.803577402487888
P 2.6533904883808295 2.0571029884266343 10.080222877265841 -1.0959041832530223 1.6121883829074493 1.1788348586099826
P 5.063138634084627 7.577838245142044 3.066211748842606 -0.04060311823334297 -0.8007932195109435 1.0225087010800067
P 8.56321433266246 6.544912603647564 3.638667397374656 -0.5027231731405406 0.8270914910858401 2.1379738371840924
P 7.498083739420885 0.27303474111349996 0.6645924997331943 -1.045239052797987 -0.6191172703622692 0.08733857461666893
P 6.411152583259282 3.7838947009881667 6.451812036574847 -0.11187769740861378 2.0276580849459593 1.6805511877525638
P 6.2742581471721985 7.184071425189553 11.150214153956753 -0.41444666009063463 -0.8661504047605147 -0.7299960941927234
P 8.964054639982995 9.128915549275211 10.05671008129244 -1.5303506835043514 0.43884051555396675 1.3121977224755659
P 4.292240788545226 7.040954940028729 13.497402169251894 -0.9785492647799212 -1.4161553937061546 -1.2527952121475328
