# total energy = -340892.5330904578 ev
CRYSTAL
PRIMVEC
9.05478974602799 0.00000000000000 0.00000000000000
0.00000000000000 9.05478974602799 0.00000000000000
0.00000000000000 0.00000000000000 13.25260006548691
PRIMCOORD
 96 1
Ni 6.064726195213935 2.1251953950940554 11.417870864940703 0.9934781181756115 0.7471034432969714 -0.7545514149345843
Ni 4.641095917083748 0.10751566910579839 6.18445858677466 -0.3741199354471299 -0.07163813316227662 -0.024531923703093234
Ni 2.828345100280285 1.3987114964848018 4.923089237135446 0.4411084856525371 0.5765552286303426 -0.6074781434614441
Ni 3.4532433116513146 4.280434582884111 4.9272906596221695 -0.2319451297168715 0.01143266731697386 -0.5311348915140143
Ni 4.98383782218592 4.7913510997231175 2.4305401126694792 -0.3182706896879938 -1.9867634036141268 -0.5975973940126225
Ni 7.045857948551827 6.023336750845817 2.574966727087507 0.773321753563552 0.4075627884866078 0.44932187470126483
Ni 4.988528203324113 4.485435024908659 11.58430967346481 0.4931936363835506 -0.09599573607103468 -0.925399163119503
Ni 5.586696675081341 7.659392398671054 12.527299030071951 -0.6196739141966876 1.6548188159834663 0.6384761345048552
Ni 1.7631939519977928 6.570789344697591 0.4274503695537553 0.9858360282493216 -0.10998613681285574 -0.2145963540257788
Ni 2.947669120819132 1.5070520569452133 0.32228622936994344 -1.0911697538918304 0.37007610439505945 1.653974722815616
Ni 0.7119219855852307 9.162813484889595 4.54593369775949 0.41226250795512226 -1.1605247474468852 1.3948874854663138
Ni 8.600483871327295 2.516643014756742 1.3387244192600483 0.2862514564689199 -1.380521703662945 1.1743002039644228
Ni 6.6325973401595855 0.6539595593691646 4.906245517071222 1.4207286148991338 -1.447649350549378 0.4580222306887402
Ni 0.8351305109663271 7.478133615612424 2.6754748943345246 0.23608949090254824 1.0096994651304805 -1.2149316043325398
Ni 7.707600099790254 3.7527304856779007 3.739697926658204 0.3840387372227386 0.08889280647766626 -0.11800566468322257
Ni 7.582553452071217 3.714944847666928 12.735682341581498 0.5742990856063142 0.0617247307033066 -1.688977464143046
Ni 7.714155767635915 8.925795305983476 7.044976012021209 1.2994735900406782 -0.27712018359161306 0.061613144826106796
Ni 6.8704666693108605 0.6834501044058143 0.13954427173518133 0.40105378372349637 -0.2361164874857417 0.7752403107425037
Ni 1.98168603088703 6.528856612938947 9.17192622538666 -0.6447092598987606 -0.23405420564007434 -0.2777789002215345
Ni 0.012800756399739528 4.829689079914457 1.8336030923307733 -0.2560538498396171 -0.3365671740043365 -0.8825972374626284
Ni 6.341196093461971 1.772592823853865 6.885096493258699 0.46760678905338177 1.440375956816416 1.3863642784866512
Ni 3.510288487656379 4.48648538053034 0.4685817524113749 -0.8945402687571176 -1.2171820909296134 0.48946527968936987
Ni 5.793145883480621 5.117712890000978 4.6928386081572935 -0.12113855388524944 2.0765237002984107 -0.3562962770021477
Ni 5.057254058225452 2.8652614784664197 9.021269915557284 1.7565529972001748 0.03267846406962759 0.8864420651300152
P 0.13660418147346 5.459748521495468 12.385005724140717 0.3059972716372794 -1.0146177283677043 0.35266973599315393
P 4.0640069960788665 6.185354105490041 12.678391780771713 -1.0611423542918048 -0.023121159398495662 -0.8073811571411063
P 2.571650863047339 8.53386778245916 1.4328842733487879 -0.9700240009177296 0.47006502078588724 -1.3268563529290052
P 6.2237735787899595 7.566508364471063 5.867522832722398 -0.5255543121024433 0.5777232807965148 -0.13399072725756925
P 4.785927280607716 1.0255726618827885 12.675144733134346 -0.1383834570086262 -0.8788436839574671 -0.7410752348250205
P 4.037711886377485 6.389204589204645 8.196230062390963 0.6130654077412345 -1.0554399045903886 0.24830737312497883
P 4.723449230697407 0.7663222574774251 3.8390262547887994 -0.6138763336783041 1.63442791103194 -0.22630850025638446
P 9.161817458006967 5.894414653074373 3.744111231227231 -0.9066334524762256 -2.006610006026409 0.24670326186265254
Ni 1.4342696561946253 1.0262427163311019 2.5525832865979003 0.17616016153676756 1.0905768575028378 -0.8746687266441711
Ni 1.8780811255140233 6.556736310862693 4.824635601703596 0.8930402871728232 0.19052080113381384 0.09656035032525306
Ni 6.104902297743217 5.868219146061253 9.21785936329753 -0.32265802012241207 -1.8632740901085134 0.27902974190950014
Ni 8.459337807269051 2.3291635910766066 10.302743615082854 0.5816876647609015 0.8786055998047321 -0.13328058856442207
Ni 2.6019572446487595 5.181847966452386 7.077577782847595 -0.7141107904210346 0.24528632691046787 -0.028868860515550283
Ni 0.6907292499598574 0.17708814685737131 9.045734146752599 -0.3019428990622477 0.23142962353303367 0.41584791131353543
Ni 1.512702245806667 1.043310995183411 11.599669313473921 -0.4505601179837402 0.810925422848939 -1.6039994193387537
Ni 4.063427489528974 6.925021778109354 1.6242518237871093 0.468105068846039 -0.24102806585474615 -0.9721677867336097
Ni 5.884037863915356 7.83198574785082 8.157651224789825 -1.612671750301771 0.7957847105527585 -0.98947619610507
Ni 5.2777744100393145 2.7003828102321004 4.860444579092045 -0.6783475167784963 0.005880627150493098 -0.4285267923327846
Ni 0.8091468860355124 7.64667041894294 6.744300849567342 -1.0966906837100596 0.21926084938098367 0.6497697051408036
Ni 5.196788369691808 4.389137334938206 7.07562919207358 -0.35842206509589886 1.194661027008962 0.6305949319845656
Ni 8.156880662174265 7.44135305927392 9.189299650656643 0.14005750227693944 -0.42143414715206134 -0.328714253618821
Ni 4.626173623424009 0.2812381505788709 10.474166179936038 -1.5959860621159738 0.14845086854695722 0.5333429549089266
Ni 8.023566991329414 7.471351578020711 4.8233371448402425 0.6644098236514815 -0.23950005924599396 -0.6647895755884035
Ni 7.237457301610106 5.961637412861927 6.827699991407762 0.6683441257088812 -0.5125496723126591 0.7967450175834988
Ni 2.1669198666863307 5.360996983477813 2.5709780921620733 0.9140783387900451 -0.790909127628012 0.1932014332897705
Ni 2.329942303003025 5.25666769491744 11.478911919703075 -0.4085817166694254 -0.26827070362078315 0.007878631417128367
Ni 1.272351904238664 3.202697276721137 3.892461286083829 -0.45981583225405326 0.05898110651989842 -0.20830846413453805
Ni 3.558414695667 2.471314736807321 2.9012325365930414 0.41125514973653043 0.7450954117280072 -1.090791544616805
Ni 0.9963347454827328 3.517577593479248 8.10045302283643 -0.23240741406527074 0.4001549260583108 0.41730984057104253
Ni 3.929778791459967 2.4863094687857954 6.931467882997926 -1.1264913120112598 -0.4153917976127233 -0.4805880318043982
Ni 4.168309120269713 6.735912492257645 5.870451151757324 0.20045374397680962 0.17979698695840649 0.07422671982505927
Ni 0.6412982467329931 7.175395772032532 11.27755150319504 -0.1993080604081406 1.0580207779436877 -0.20381160470544898
P 0.30967743451485585 5.8898148198346 7.816992826830314 -0.501204422503169 -1.2672424979211143 0.6577972034309704
P 8.57461433674849 1.8253641390534705 7.980119393230192 -0.490533058832252 -1.6954088215906866 0.6114366138885599
P 1.6761049832967283 3.0623389793791524 10.342395445280276 -0.8739254207202433 1.3750691651888058 0.24870975076972004
P 3.9034293530195323 6.093275947585994 3.6826455068212662 -0.4539125793957408 0.6515008288992973 1.1508234609987213
P 6.872268572489433 4.0470835938640315 10.3521755237887 -0.6059879320691628 0.2854970948013986 0.6365686330694972
P 6.342979887060859 8.025631483413408 10.52444652245009 0.12588198210750579 0.10448988958497488 -1.7872252294730513
P 2.504600144266784 8.54317610641681 5.895154429404469 0.25207249659436587 -0.5978395919304155 -0.793732198899104
P 6.849604433514722 3.9002239574154385 1.534385751041481 0.41443894678115073 0.34331272025828613 1.671023707878103
Ni 5.299931480782869 2.7881599429611623 0.5276588232570003 -0.3445283378329421 0.4556529591256153 0.4078186132511557
Ni 1.5390516842471016 1.2278747765343982 6.918586538968593 -0.6289617672565168 0.3175047580562467 0.7102965588812671
Ni 6.65829483373139 0.7971402347049227 9.293716770678486 0.9706456936621284 0.46102939294618017 -0.41923328284600053
Ni 2.873401734534444 1.9410481340758035 9.037703453641663 -0.6038986536403019 -1.0907614627098183 0.1615177290332444
Ni 6.459777621233767 1.7296459556329098 2.9025581578259207 -0.22017410522387243 1.4620765817183015 -2.470626763735687
Ni 4.052942042891853 6.872187079380854 10.433228569581038 0.6839908311072026 -0.007572413030619216 0.4577720623511471
Ni 8.469868527855382 6.887688879590485 0.5679073641050176 -1.4892539134640417 0.721089535731713 -0.0016624753040874595
Ni 7.444839153363119 3.685625438158293 8.286268176143592 -0.006375564509040634 0.4142574268979639 -0.6851493701916781
Ni 3.077840779588783 8.404085479652718 12.339204786161538 0.8318315768739868 -0.6945979171990877 1.139595967714018
Ni 0.07047614577781189 4.97781638694094 9.952583120663071 -0.32433669337641563 -0.28266091090418416 0.5432075064078321
Ni 8.790897046916262 2.5672411803942494 5.873141329819405 -0.8963312992192692 -0.6305931322123527 0.25621197268403617
Ni 3.402201461311545 2.66784895032953 11.521744697572018 0.7827828989764518 0.4509434694650879 -0.07104112300822603
Ni 1.1533176369747637 3.4002818458650257 12.734635607875754 -0.3152064489403733 0.14701233632821778 -0.6522086535995993
Ni 2.889347219446335 8.570702667536715 8.11419638285873 0.7741211095363959 -0.4674941747349175 0.287405367567705
Ni 5.6285298041517215 7.922959221394133 3.489396371053762 0.5157170142970474 -1.401108012454729 0.43813860439093577
Ni 3.1179806629586952 8.354456176528313 3.4538798633772125 0.1730226443490504 -0.5224797869421776 1.459042422877668
Ni 3.43422825298296 4.4566679575803905 9.416754160531568 -0.25999509387555225 0.2887791079867801 -0.1154895831295882
Ni 7.227560416312719 6.366359354433093 11.320993668420357 1.4263215356058792 -2.27356121950482 1.0402020045947118
Ni 0.7308537401870383 8.969113420587956 0.3017780358566309 -0.5458086914761051 -0.17859731022335046 0.3347393767669783
Ni 4.849102549335863 0.21415664551285246 1.5482214699201693 -0.6014699895941513 0.5272934062807371 -0.17480853260487958
Ni 6.122821726840681 5.512003713674076 0.22653454322696717 -0.1326997763602876 0.7146494365333241 0.766501645317925
Ni 8.101945252202404 0.07228800922521082 11.224342841646061 0.339127478532345 -0.7765831979236433 -0.0779473632097561
Ni 0.2511400291438181 4.8643508154299155 5.701480623993373 -0.13474945980046468 0.9229170201275976 0.47390599179853216
Ni 8.154517362025484 0.03843215000569743 2.411562178639477 -0.5235071997654275 -0.6595614944202448 -0.28338493355440225
P 8.446271745526937 1.5913521503749188 3.9184494384095645 -0.2757898948159638 0.903808838543237 -1.021117734269751
P 1.7702023593355578 3.2133728739449414 1.556001345352479 0.7715479494925809 0.020241780968171592 1.3129718816374292
P 4.662184522625936 0.7784602032607248 8.299984371796365 0.7948668267241794 1.4851681734304423 -0.403354406832215
P 8.652494584180166 1.6676659191639158 12.549403583034422 -0.08017985208470063 0.17534512183463993 0.1516421217907453
P 6.479797761574591 7.791882083640275 1.3350400252733083 0.8917920165880189 -0.4306363824766197 0.3466986060113836
P 1.9110496153290135 3.298913473583011 6.130427750308022 0.5329264361967982 -0.6544321436134793 -0.9890391085676514
P 6.864725932550986 3.8015267481368356 5.88509546336891 1.495408620211528 -0.28653350648571296 0.8190861042828603
P 2.2626108857373652 8.331330243271655 10.390582320382842 -0.10438601701725894 0.5620418655055159 -1.0099079815968608
