# total energy = -340861.2427074975 ev
CRYSTAL
PRIMVEC
9.39553164344823 0.00000000000000 0.00000000000000

0.00000000000000 9.39553164344823 0.00000000000000

0.00000000000000 0.00000000000000 13.75131027508096

PRIMCOORD
 96 1
Ni 1.0858791933080871 5.943707377772069 6.741593790513603 0.5897277614565586 0.804125626318286 -1.8293373281517527
Ni 6.493825160728286 0.7632573011526332 1.7851952027337041 -0.7453892888193421 -0.35746021540326184 0.8819169235661523
Ni 2.36960009992097 3.3816304132093156 8.781036781768197 0.4979365503851747 1.754553450271643 3.1173954772666375
Ni 8.254698150267702 3.5802895377815047 11.802171914099468 0.45555757119833157 -1.0203294340405007 -1.7284901775256878
Ni 9.117461649704442 6.628021541558051 2.562667003960366 0.2905701384489318 -0.3672828579206384 -0.7486345352295172
Ni 7.058346293947896 4.377782277740237 9.80644445324638 0.7911037601373214 0.5961472918296571 -0.583072203813254
Ni 2.261786372411233 6.060531420286758 3.0482393624942397 -0.025692776780413814 -2.01695432537521 2.1506349775915283
Ni 5.83807341364205 1.8670331034507464 5.636139946234379 -1.887552503039904 -0.7102965588812671 1.2960969602589614
Ni 9.116418745673627 2.2109377542602355 9.780949677682312 -0.9233561645475452 0.3843346711966026 -0.670781017285148
Ni 1.9347560967309363 1.546654864291312 10.421719309745713 1.535678523475168 0.37015040927642057 -0.1417459457229559
Ni 9.012541745991916 4.72713633699902 0.9881515691954489 0.08213723292138757 -1.2232843471726094 0.3155026400245534
Ni 4.461628003604889 6.961177703977899 3.5443450517393265 0.10643570045743604 -0.07974302165759815 -0.2944980127484283
Ni 4.015819414793604 4.346288455116041 3.3765934686064427 0.34192586721308854 0.45945536359084094 0.04203265159101793
Ni 7.04525831813778 9.200414800047227 10.658201087168727 -1.2475123664820387 0.014710823847613375 -0.9278208851871182
Ni 5.629952988538069 0.28790634167390927 8.647525335207316 0.4585606196907135 -0.8252302695073853 -1.6051733850421968
Ni 8.149252096773864 6.797704846030893 5.908415881190624 -0.7726010733474437 -0.032740170545498444 -0.05640640381418673
Ni 2.511312906198038 6.621444669291663 9.152240150249106 0.6070775655889158 -0.11172471677051726 -0.1466906913227409
Ni 5.535433938538248 4.226730312844896 0.9019391088680769 -1.6252770977706075 -0.08001555859269445 0.9484362474446245
Ni 7.9404457978478185 5.915257707454031 8.266847512450084 -1.3538470225852361 -0.13380123695458246 -0.8335657859562741
Ni 6.970479280468936 7.825209600208871 3.5649720022730844 0.3351774927456615 -0.21655347775214964 -0.24822381227223705
Ni 7.83253811501999 6.460386463019602 -0.06564752030355389 -1.2703738444612445 -1.1163915045730968 0.6868948921278751
Ni 8.293821144720908 1.2128785967720621 11.997234429095123 0.09640865523873719 -0.050163765338584576 0.004562679670017948
Ni 2.6960384570972913 2.5425436539315776 4.608504594164254 0.27255956080412413 -0.015448730454902427 -0.5689118531524718
Ni 1.4701940264286335 1.6780419811101492 7.849646438891231 -0.9282952537203756 -2.004991239476063 -1.466706367180829
P 6.2172676819266215 7.233225327511183 1.0490975653817154 -0.7548056970372355 0.8926520505954691 1.982462719356244
P 0.22650935996080457 4.420625902789857 9.94855093230625 -1.9223629258508699 -1.4958040558777337 -1.3310444228684237
P 7.130992545896068 4.08617315698035 13.378787250223724 0.33086600985450115 0.9638212145411272 0.8369390733038811
P 8.333601826400754 3.969499442974606 3.1422707843931676 0.6580640839391118 -0.36354447392412875 0.4075545609564916
P 9.153314999088071 8.7206977369368 2.7309005778750586 1.0271001771054311 -1.0013143263905788 1.0913543590988108
P 3.7537498460416145 2.7209178253278603 10.993168708121374 -0.5153861133201898 0.7834202754501346 -1.833735971440081
P 3.325877327453954 0.15846222083319958 8.638174901950874 0.2112922293532103 0.894251276761789 -0.4388006634549669
P 5.935749362329737 5.649796351718946 4.497545242604821 -0.38030369566033856 0.4421490111019095 0.8688264089307811
Ni 2.023233819777489 6.983022315434121 1.1540954520082565 0.20981795880052898 1.2262693979428623 -2.7743506659577575
Ni 3.5984229141731205 8.437234542255428 12.954944475228999 -0.8545912391680056 0.9527582718587463 -0.18469545270128834
Ni 0.8795721058432684 3.122839885058711 2.9848044899317356 0.04933638434128278 1.3889906603659046 0.6760438083459841
Ni 8.933779002836001 5.7574221685925 11.69610857416577 0.19754556919107913 0.23846056223788611 -1.1544474309045538
Ni 5.842310798487966 5.090029357594755 11.67018724145757 -0.1573502279191161 0.2714820114692293 0.9720302327144809
Ni 4.540869918883069 4.282304883495884 9.509141640210162 -0.901731644299234 0.03126795687534615 1.8158063835448535
Ni 8.43430313633098 8.20002555067039 12.260297105559337 0.25855913275997405 -1.000914776959315 -3.1019490608045803
Ni 4.446886414196368 8.511910229074372 1.6773025527567709 0.23159468835598823 -0.4801226621322054 -0.5976773553209385
Ni 1.832194471502502 4.911044476630879 13.60004638700959 -1.4809541353490947 -0.717274532860997 -0.9765484322998084
Ni 9.182788782373304 4.068349833138435 7.361984514083007 0.7503129513732046 -1.340065909640744 2.5953406936770205
Ni 7.789168340189058 2.2637500385593405 4.652096103545881 2.2650760648519443 0.3887448844491563 2.5458276745485575
Ni 1.4095364730689068 7.400108763504903 11.252174393950407 0.37029233417092355 -0.3381242340788112 0.5836733277323626
Ni 5.631193198736874 7.362611196054676 12.772451302687594 0.7536258177965215 -1.7957420086948106 -2.7146349952646793
Ni 3.45803487788114 1.3569590770650302 6.35731372086075 -0.06865693904676562 -1.1730668457779538 0.7700950190961383
Ni 8.602201289760087 8.720998393954693 0.587490389833383 0.34400588967056883 0.8495349076910207 2.6042955888774633
Ni 2.9559188669377545 2.6672975252931703 1.8457700754135102 -1.602758604953117 -0.5336879969531713 -0.699913158764414
Ni 3.7506587160764115 3.4835061646156835 12.923962709088402 1.1122682264333426 2.1328385728400554 1.1538105686515032
Ni 4.604261571999252 2.395268692823506 8.197788474546636 -0.5839839169942459 -0.8232978283713627 -0.591948166146645
Ni 4.860581075284056 1.3873536224675571 12.103614398450787 1.2195328505499772 -1.2972747826171465 -1.1837772902169224
Ni 4.4433161121089 1.2141000159072486 0.5492703059870336 0.6726286120168481 0.4275461735870701 0.894929019555104
Ni 6.421413797075341 9.227671237825504 13.287314231636424 0.7052484549343983 2.6914012215477197 0.6148065588020573
Ni 4.074269018178185 0.565611014909468 3.932943307811654 0.15253558013929214 1.0546289786533192 -1.0561199613765488
Ni 2.307749314021484 8.407741967906578 2.9393705167623385 0.19547351715339883 0.4941179479700329 -0.03722083202467138
Ni 7.017757596532464 5.4638211950890785 2.6185929675010162 -0.9658241039037688 1.473584582357901 -1.6193206230768562
P 6.319293761841935 0.4796541130473044 4.037041102490881 0.6936167842327409 0.091461595646107 -0.017160570939686575
P 0.5463088343607967 6.741698080916684 13.396017716008483 -0.019218481909979806 0.7050170556498825 -0.405359867298018
P 2.226656478976906 4.580960653112616 4.70375931430473 -1.1936678098577571 1.2169476063213043 -0.6163890727978288
P 7.863712489562675 1.6537921135107916 0.37013039874830655 0.519843377760595 -0.42453978266057857 -0.20048973942106763
P 3.069416891192013 8.479993607518768 5.090226663762747 -0.7738843109352415 -1.1869004092269366 0.2596258834615916
P 0.4367747849768088 6.612096115141581 8.500015485804017 3.159226554369811 -1.2455079344575002 -1.217327358258226
P 3.2534753593328185 4.753584759041713 1.358092178201211 0.5731670288844001 1.1293480647337646 0.22041990268609135
P 4.859632126571334 2.266061339384386 2.5506209926278838 1.2820906186775403 -0.09212339759982198 0.2713722253642423
Ni 6.189015317776576 3.5414014316235267 3.8195223269182295 -0.6495578462403135 0.19023926533765304 -0.19082496263779394
Ni 4.645601911959412 3.99928327880954 6.459856555025566 -0.056838092034966634 0.13816079947485882 -0.8671971008574741
Ni 0.6478641981324736 7.3181327484702665 4.573410403750801 1.5018286648052586 -0.49339058288570514 -0.08702335736909529
Ni 8.601139594665655 0.25290610657854795 7.841272201389756 -0.36664188190252983 0.04175394400833454 -0.34880176839731547
Ni 8.526398139124048 1.2896306961208235 2.968289024117651 -1.7795075491138193 -0.18629545019855656 -1.777754056757822
Ni 6.291576943005009 2.2620682383655066 9.8392414361325 0.3607365721616884 -0.6138079423342139 1.009066973752804
Ni 2.527642340482301 1.6911581435156908 12.93050857609982 -0.43506999276794106 0.2648981876041245 -1.3646965637052304
Ni 6.0232499500681405 7.159160350259831 8.983799874634615 -0.42244561913571116 0.20026528211508737 -1.082645261360587
Ni 1.9591281062438128 4.8872737811537865 10.883240985954584 1.9585594303760847 0.20119370746662768 1.1156358573539946
Ni 1.1938526448585791 0.8507907732523684 3.747576042089837 0.816263804342717 0.17768251171856494 1.4319900467455662
Ni 3.8880307866576627 7.744765056859123 7.430974025051068 0.46544423418442427 0.8593542077742877 0.31608010979457823
Ni 0.41320797253997466 2.6050333359940834 13.322434729538939 -0.27158896936073873 1.6672778676824256 -1.1725325705410385
Ni 8.804778351096681 9.113224264858525 5.154789000142347 -1.793843763230833 -0.3583271913892474 -0.25386429838746605
Ni 1.5834289757922366 8.653021721315657 6.590412167279296 -0.3461892704751328 0.14689869356848895 0.5804748753997229
Ni 0.6479872795991731 1.4729281261850893 1.3731738858612224 1.3921034949632736 -2.082238748405317 -0.18442522975903722
Ni 2.3254692870134983 3.981337813054107 6.701164817138928 -0.18891154766516496 -0.9615087643578665 -0.6022251225926208
Ni 3.570396042786494 6.123368737026202 5.708595468886827 -0.27437321697409517 0.16948686328165005 -0.49564852568194634
Ni 5.2354346078728105 8.4040589194374 5.326570326868165 0.9005844180686684 -0.1931690373899383 0.9357234278636465
Ni 4.535862100428805 8.434481651435354 10.372215192196602 -0.5288075289324183 0.5964668799526051 0.31463694959014843
Ni 9.115845618233271 7.939402893817005 9.661120944095064 -4.363197545925789 -0.4128793156035147 0.8305123438419308
Ni 1.1700067851270137 9.245757636558075 12.656871228584432 -0.5557827719696815 0.08648085460206396 0.7354080092369142
Ni 3.940514227343449 6.074333456514367 13.430574482002454 -0.3936554343768962 -0.9438527418390003 0.07166461552483787
Ni 7.0034857837144004 3.699349716866767 6.558082142324089 0.10838716775685205 1.0305390275836508 0.30681848198699424
Ni 9.26777136758686 4.357253040737294 5.183006600824699 0.6011156915785261 0.21409884556407 -1.8723210308021303
P 0.425166605426632 0.14689913983570652 10.459342777322185 -0.21383967836541234 2.377425559690654 1.923720982540661
P 7.015775139320739 6.931779084947141 10.85943740611616 0.6203601416304348 -0.31940043241706284 1.2178359224635282
P 2.458134196158377 0.33451569587262836 0.7355602129325067 0.3026489239903368 -1.700684211057013 1.6029997744296458
P 6.633292434902972 8.134604462683436 7.004285343471357 0.47019820392964184 -0.12099997142485612 0.6491330999980691
P 0.28226902258843284 1.415201978749811 5.895860632034087 1.2105830975558571 0.842437377414291 1.0299867546246069
P 7.260453578694034 1.9764346758362255 7.863673028329077 -0.6262831919830892 0.3252509776605689 0.4739075344604289
P 5.576041427017295 5.213383294716789 7.9910238246827126 1.3363977167605372 0.2687504714706791 -0.7436550797370548
P 3.540170616956531 6.784842362984197 11.280323407250552 -0.22727780614818924 -0.8645619772274723 0.49230069225563605
