# total energy = -381161.7878481162 ev
CRYSTAL
PRIMVEC
9.26006183301083 0.00000000000000 0.00000000000000
0.00000000000000 9.26006183301083 0.00000000000000
0.00000000000000 0.00000000000000 13.55303651401104
PRIMCOORD
 96 1
Ni 4.825409003642222 1.4346613924307847 3.7779904363938166 -0.3334317136991483 0.09657474850295626 0.47560369121592927
Ni 0.9966326836839093 8.25181711328683 0.3770261988719882 2.601025402766624 0.7131787655250685 0.06562972218466762
Ni 6.744575355569318 1.4788781880730555 2.2962092189105303 -0.32230552187899975 0.7178034087812735 0.032506200157821435
Ni 5.240602399707665 6.201435684029685 2.2010537486821726 0.30141710846576475 1.5153369837043387 -2.8017118315795297
Ni 3.7533994159733743 3.406813818633289 13.016146748540272 -2.1868952454751436 -0.7595956622267112 -0.8546681151525282
Ni 3.2184085989185998 7.263009181920766 2.780337293886917 -0.08426456367703551 -0.13112728966684514 -1.0942879878058378
Ni 6.8627615257855075 6.487562337129272 12.192894834114593 1.5724154738848855 -1.595996346528619 0.8216091278150301
Ni 8.443046651885474 6.7679384917798835 10.571083886364743 1.0309100377698246 -0.34550921368897264 -1.5580196101745298
Ni 4.09852192353095 4.720140619796918 6.412497497230855 -0.1963834305621779 -0.6535206875428036 -0.4516237833615641
Ni -0.02692455602292487 8.244001621030897 4.73372327861327 -0.3090885089680935 -0.37741249015547257 0.23441133186917693
Ni 8.330444299003798 0.018650690702219346 9.072741974153365 -0.8771428992162765 -0.9001457878693531 -0.2517901894672567
Ni 1.4904625255282344 1.4789152283207136 0.8748999097544243 -2.018270987304105 0.3232144068465143 -1.4825255936012725
Ni 3.65190913738923 3.617758029048142 3.9612405796406414 -0.04119370062949034 1.073793210286596 -0.32274672318147646
Ni 5.785501483011074 8.201609057585804 7.955184919945116 0.05987816441287108 2.4010745665681617 0.2320217485910778
Ni 7.554469630683169 2.018276794599185 7.862753759932037 1.32719805253914 -1.8788665452301316 1.19800037579484
Ni 7.47170319729037 8.407302812895074 3.0256613361721496 -0.9743007739162123 0.10141485020407695 0.4448774657766661
Ni 6.66739273951103 5.096589916811625 10.345669903202117 -1.0109065980647043 1.4781102381423963 -0.4269499347639679
Ni 5.913234777061227 8.432286459940695 12.531869586567062 0.7056706300734815 1.364449994912063 -1.618705615200677
Ni 7.617697333436137 6.945463138744903 8.215728799993204 1.5502898456304397 -0.7381760589003545 0.12632986827820178
Ni 3.0716643977577487 9.058785208835662 5.655031840665153 -0.710400431448983 -1.9896720926204896 -3.540357116806819
Ni 0.71292475875642 3.0974444101280274 7.727223493749781 1.194033163616976 0.3267787271590049 -2.413122498871631
Ni 3.4733381034278588 2.931661521670735 8.176546700013908 -0.9705911862751091 -0.28469491061507746 0.17813836830906093
Ni 7.3100502964469944 0.9043043103580823 4.630300425107546 1.3276161139131653 0.21731041052283218 -0.17936684139952336
Ni 0.2599021577574055 5.847525377715143 6.677649184087653 -0.761206972577889 1.401484421957541 -0.0881862673289449
P 6.836620371000558 7.22968221909008 5.334109578915222 1.1341285168415436 1.5394660155420583 0.18027109838134758
Ni 7.838438689356649 4.697129365939107 4.926990030833129 1.4783532073911378 1.519378500763564 -0.737153531173111
P 8.709227131620986 4.522947601325261 10.1118394497653 1.1724253555392132 0.5457991783944084 0.22564695541298557
Ni 5.973962263097251 0.9122679636046483 6.502489556935626 -1.535310341502472 -0.0531668138309665 0.008175593832256887
P 8.545314775670446 6.909691519568759 0.6051376380703404 -1.084567160973648 -0.14718280046781104 1.7811260585538484
P 2.606531487786805 0.37960790413378187 3.5837754538339004 0.5099754838275797 0.24540845431062897 0.3903520810352761
P 9.159256880609199 1.3412458878361821 12.632487567318849 1.1233195991514977 0.195251888060896 1.2904369337597068
Ni 3.756066313804782 0.18479472157418178 7.542875107159883 0.5585698477965154 0.6646206541107069 3.799703521354779
Ni 5.3305453810842875 1.3657572717241595 11.596330161364802 0.7272609546497475 -0.7792890268905804 1.8725010080234201
Ni -0.007798824144485941 2.235406726372999 9.61270822247486 -0.05395588539116514 -1.7345764929290837 1.2492213787533455
Ni 8.536425116232419 8.116110905928196 12.391135165588793 -0.2988745445495692 1.3727420597175262 -0.2750368187000231
Ni 3.1322715029888824 6.235716433237578 4.605511239362131 -1.1813769083055463 -1.5102258877300185 1.2498027051781122
Ni 0.3343382394518199 5.971221284770525 4.182033791907876 0.19697838383369948 -1.2980090896800096 3.123186630027118
Ni 7.460192940330507 6.16759015773178 2.9468637653159533 1.821243752510341 -0.5580679684594324 -1.2751111020359136
Ni 5.28470807460696 6.129836885305909 8.341907329647896 1.8080275109303827 -3.1593463677771267 -0.04264868790846203
Ni 3.327214326415287 2.2799105839346225 1.8943753141692976 1.1592037146426164 -0.7444618919090662 -0.10758138402610504
Ni 8.36077100177415 3.172117549407456 3.4307483006639856 -0.8820344229806228 -1.8803343880249102 0.12133909993182974
Ni 5.256427845519736 8.347732834598377 4.201536408306239 -0.05693733661699226 -0.24194183591826718 0.25035988477863336
Ni 3.9009122022731377 7.960986348734621 13.521037734341602 -0.3698979269459823 -4.196562293160321 -0.13895835567548973
Ni 2.7388299923608614 5.129777978713593 11.375890683462705 0.6045332019005073 0.12721304221410348 0.18513973932755856
Ni 1.3891574481823832 4.198882474561512 0.4639994783925953 2.356385194080587 -3.6602671976016055 0.726757789761084
Ni 0.051597064988216174 4.8314373039486345 2.115032403526387 0.22505791567873498 0.4999363544240228 0.6736987051525752
Ni 1.582803862940742 3.8112470227539528 9.89616982975542 0.3887780516799369 0.5183140856002623 -0.26772305864742924
Ni 4.898183830229155 6.764891931409976 10.997543999761692 0.6907062954541653 -0.827305149758543 0.12737913547832258
Ni 5.728765083660249 5.804753151731552 4.230309272687321 -2.1265619958027244 -1.5627702374856376 2.2840011838912213
Ni 7.116987265589255 2.947662908659184 5.994399219742799 -0.741524149436981 0.2423789234556858 -1.2440863715196253
Ni 7.7179560237856375 0.8810115506180681 11.208849352591217 -0.9546464900203946 -0.17993685497038042 -0.8402581103747851
Ni 6.900070315239478 3.52552781237861 12.315251736217125 -0.4718681354328971 -0.5034536235486621 -0.3004791700325277
Ni 8.473373354655827 8.93745987763042 6.8044509159091975 -1.2332113764783341 -0.21452667713010795 -0.2715048942873647
Ni 6.91240471770974 1.226819302757326 13.429581658848132 1.1429101196889153 0.6858787921585349 -0.18447305227783714
Ni 3.4177406916925306 1.6462260269939173 10.48595706318991 -0.481197640363939 2.1097618935262505 1.5865619405885967
Ni 8.491226754027199 2.8051505557933103 1.0112395053480177 0.46341331979732453 -1.1651301074293805 -0.5726219550142074
P 2.2179792898497 0.8301006562177247 9.204165402876491 -1.959135100373897 -1.0253171170630795 -2.532393403420522
Ni 1.7098241322234702 2.6255053546498446 12.05014079363275 -0.6993850541750859 -0.8035720678076612 -0.09183569115607411
P 2.1918936954362387 7.489825138457264 6.890268539702861 -0.08088716256437037 -0.8592233386233783 0.7660270196743517
Ni 6.487608637438845 5.395013932133814 6.465828045809486 -0.27504247512697794 0.8907975138852335 1.3633909575199292
P 3.7066731435522433 4.925186170772163 9.296528964437593 0.35270521721677967 -0.9921128623969687 1.0076955473265743
P 5.6388869227170275 3.6842267534712247 2.688217271954169 0.6435877446998077 -0.24709072710905833 0.7569579674935479
P 4.849957427777858 2.8347179334866652 5.498249732388863 0.7947058756662829 -0.7792949404278514 2.154744628884528
Ni 2.9283371594433896 9.085852369812072 1.6145325390849674 -0.7853239202307507 1.3139059634159242 -0.16963110216899818
Ni 5.438795504866099 1.6811549805358323 9.34469702849883 -0.6939934508458693 -1.6895456779416904 -2.2389238319366087
Ni 4.779729118217443 0.8299117509546665 0.5684103805046076 -0.2943031231288028 0.30494466200304904 0.038249787509817994
Ni 1.345949999288805 2.709021853057727 3.044581494676084 0.092447356598144 1.358827249408647 -0.09596873948784117
Ni 2.103487884337441 5.181893607169027 7.897788278179778 0.3558406775219678 0.19265995896400367 -0.3638604625026508
Ni 5.553481371678564 3.2318356886947868 0.5952099256916853 2.1713814661102604 -1.1840729670804704 1.4455418172880719
Ni 0.7667525726598663 9.31543708486104 10.691488767415672 0.43358595202324685 0.9666185747806062 0.11461875048886068
Ni 4.410660090548681 7.106477095316172 6.192585842857891 0.849395553899679 0.627852593352738 1.450903081599985
Ni 0.8655583592949642 6.0093449596729815 13.138516614729483 0.1414168445183113 1.965325545455325 -1.4383872085211615
Ni 2.351203800615218 1.8702361847702882 5.13641096106303 -0.4832360109502065 1.3621334309637443 0.16101584969616142
Ni 2.623847803567129 0.13619884265249124 12.559030274168808 -2.3970466763556915 3.442435367357665 1.6914449518469319
Ni 0.5679529334460258 7.199772219105883 2.5276005720390384 0.06911125297536484 2.181949471434094 -2.4292546285468033
Ni 3.595922803053488 7.131423702114135 9.155726945007348 -2.965763382778221 1.1306909519149044 -1.023562853376134
Ni 5.707309520204093 3.5725411467190935 7.828816559021177 0.1828918238336463 0.20151998045779487 0.49246138620321633
Ni 9.056933196452741 4.214494938949547 12.13935963816765 0.5833732799934405 -0.3684262274964623 0.20913250269773015
Ni 7.084456668083225 2.9544227538568504 9.914886266897234 0.5826019490450547 -0.15004058163158032 0.8608531609173175
Ni 1.061138274981094 7.187465596821364 8.947226464931761 -0.4054046044930244 0.5353317032041812 -0.7121696075342638
Ni 1.6322433335028539 4.328560381613734 5.531482242588021 0.10474160058446477 -0.8110550064482677 -0.26967966815316785
Ni 3.5680222365047634 8.570372503211384 10.950298237867152 1.3919374016990542 0.4093982990334497 -2.191370764747994
Ni 8.418979750969399 9.288675505927811 1.2310168888232196 -0.26128167389745965 0.3966767377017233 -1.2186782158591658
Ni 3.830480171350602 4.484944307227695 1.7128188362466557 -1.907240468387135 1.147752021162249 -0.26582069941839387
Ni 1.594730822686762 7.348461033268803 11.39482380605332 0.34476719331662564 -0.5363717144329214 -0.19795154638024615
Ni 4.921593266749293 3.508415217960408 10.949050907527257 -0.7742820605942923 1.7781443502177054 -1.161296335505587
Ni 7.602390451091284 4.915027882851835 0.5867675272441338 -1.0165797371900815 1.0448176489898524 -0.32736236757661685
Ni 1.3253648816526233 0.9294787146791456 7.146109234304518 -0.18008803583626404 -0.6541611493402798 0.24059612052365012
P 3.1057414256035196 5.61927411158188 -0.09994570025678658 -1.357507502155959 0.5735845760377929 0.4398355324773845
Ni 0.5144862619572494 0.537986447084151 3.0357992519562664 -0.26993009360107706 -0.29984487888263844 0.24127977685423607
P 5.764397801907673 8.854202660956147 10.035074462499361 -0.061294070923791216 -0.13262470014797806 0.6032404512310127
Ni 8.185653970906928 4.367517462088505 8.118106449270794 -1.580432687762407 1.1101406385673784 -0.9001627571502175
P 9.218502756738884 2.1439265747185505 5.441815211056454 0.28681067140649963 -0.10646603947473922 0.1572756659274388
P 5.749146479934309 8.133742063813616 1.0273483090546762 0.5902651220172673 -0.011896494327269835 2.064075190122413
P 1.9462520330273352 4.9322052977034385 3.2186160243054873 0.8201438561234133 -0.16079319216239404 -0.27799512999739867
Ni 5.121527263547674 5.400181046682168 13.14072606550231 0.6930691392593871 -0.04900008404778658 0.05387335297968786
