# total energy = -340865.191840943 ev
CRYSTAL
PRIMVEC
9.28120411665384 0.00000000000000 0.00000000000000
0.00000000000000 9.28120411665384 0.00000000000000
0.00000000000000 0.00000000000000 13.58398038321623
PRIMCOORD
 96 1
Ni 6.584336803480662 5.730800146720634 4.934774471362172 1.8267348575318993 -3.6949166693546753 -1.352783100097096
Ni 4.069761605693402 8.980121869587355 9.642139950971051 0.36758599098335404 -0.1786207072621182 -0.8560842787737644
Ni 5.013455879387956 1.5135045201510493 7.552353400722532 -0.21610662002271813 -1.4652374959447863 -0.19365651854931812
Ni 8.875504136615769 2.343949541031613 13.079620453318459 0.345385800737231 0.6986669450621387 0.15592815076060887
Ni 5.601485129554815 -0.5637264171482198 11.730486986458759 -0.8263540986991832 1.1578155760458382 -0.4829483045064586
Ni 3.6802016246770406 7.058764115076528 0.7738194663531551 0.9228511998866687 -0.6118065956334688 1.445368010714369
Ni 7.0030119218579046 7.177201561000093 10.25260465588527 -0.8036615421976739 -0.18089587644954006 0.7125904971217664
Ni 4.430791165209171 5.147662091131139 4.557384933323601 -0.8700425407260692 -0.014492794299536331 1.6749757505473155
Ni 2.9979495901660056 6.938878801308432 5.5645013873311475 0.05571631972569759 -0.9444618361779089 -0.5912256861583237
Ni 3.0208556019628365 6.852387260005892 10.143892055650813 -0.25523932435812174 -0.8030611896095137 1.0050383122093853
Ni 8.792725076965876 7.303156782270268 8.813096391914362 -0.013863645355969673 0.8960212241780182 -0.3904716373322759
Ni 4.962715536400406 6.440413171011676 11.560877621555523 -0.5532448360391762 -0.21746519093314162 0.792496783830106
Ni 2.908098252967821 0.5858110423794025 1.2724605114079974 0.4047404885464642 1.0815761966661244 -2.632339639498873
Ni 3.0251435182716433 8.82024384721612 3.0681321995684674 0.019061387506825237 -1.292313067736497 2.8208616650351033
Ni 2.959293374957821 1.3920692452929724 11.11964268029556 0.16108295548867096 -0.09343543154302619 -1.8241650399221938
Ni 0.8266155960558585 7.090626488860369 6.776164442954574 1.2388060969572923 0.938563211305287 -0.5440292309781792
Ni 2.320096846413357 4.4612706395774016 13.749841262913677 -0.03224291919410576 1.4397545211823333 -0.2562911626614038
Ni 3.166858224157304 8.295271097919468 12.44615878080692 -0.30021588906881197 0.18676364808422674 -1.0604527844239477
Ni 7.949527681608471 8.728257833067664 1.8609371156140004 0.1725369629618835 -0.11176456886951718 0.4108214046332215
Ni 1.7384159398725243 3.876582622897925 11.335886383478517 -0.20729339260646237 0.7700088871402351 -0.5247942940079672
Ni 9.120741393385485 4.202909760165579 1.5350573323854901 -1.5420350618208154 -0.25538459168673433 -1.5340916386040224
Ni 6.433173831789015 6.989052990843953 1.0937035917126408 0.5878107469395037 0.24599209472824088 -1.531513593464201
Ni 7.397769377187971 3.3441292230711888 5.983797418264795 1.2008828395489575 0.3302013796873088 -0.9101296385549421
Ni 9.34013977785278 5.658462441718812 12.806121001847554 -1.8366809130010175 -3.352718522316806 1.4911876401516448
P 4.08496421806099 4.278662948287837 9.868897402194307 -3.0769473965539205 0.6323399397001302 -1.7381426130137871
P 8.793764571828618 5.3673853177430395 5.2551802003938555 -0.5109183073568233 1.3506945929991836 0.3011684827900684
P 1.9974172223694286 6.155452360558639 11.930701121986 -0.07680759317835803 0.12284525216371102 0.6541318387642412
P 8.890966622699041 1.4854288776529077 5.745005029644075 -0.3546649120463118 0.38929278653282634 -0.3543399246067252
P 3.7360373487328484 0.7621632020842574 5.311540312483099 1.0592495081444662 0.5663073256500891 -0.14876377180168573
P 9.020467263947495 6.753096938205854 1.6425346043500284 -0.18138387182955212 -0.1900621163298404 -0.647035336928776
P 5.268187807984316 3.4133762870971833 6.000994561400269 -0.19837166463680028 -0.7458646857938638 -0.8110686332950224
P 1.284527933019926 4.519120384929771 6.554664793871882 3.3294700933118273 -2.0102360328147704 -0.8615928672968194
Ni 6.560205672738457 0.5164145509668889 0.21769713974996913 0.050551487695306485 0.9134468758536333 -0.4347185229657933
Ni 1.2183807911738915 1.7520314663336065 4.215014306594034 -1.3397766605350991 -0.6497853888700873 -2.1442252174104426
Ni 0.5659938153175739 7.02152792410048 4.167931686154754 1.1246807411650825 0.19693133264584795 0.006954319830646089
Ni 2.1875612514138663 2.190354893857483 13.085027682845539 -1.2251301421320966 0.2855729423446566 1.4760965501464771
Ni 9.192048884728699 5.316979098104228 7.784394641457915 -3.424614280015844 -1.4969294277314285 -1.0292904998885304
Ni 6.410676192973976 8.79326338680551 8.252485674993126 0.996200402202781 0.6357340529833438 0.7003746717818647
Ni 8.193938911210473 4.180709119882751 9.727352542344253 1.0228861390240835 -0.39453449454773987 -1.5302285561041904
Ni 8.688831277916556 2.043526244495302 7.875367148115198 1.3616991716398033 0.7937429975323813 -0.7106737397150277
Ni 7.907827231445115 1.3398160660319685 3.6921530312373236 -0.08444839755306746 0.5214500601260825 -0.8139212722524691
Ni 5.542809357034732 -0.1089084336416335 3.93008969283711 -0.683157793682946 -0.13659551187026797 -0.682721991697108
Ni 5.108402597654398 5.428724795848896 6.742666721002742 0.40945280642046905 1.5753832982639577 1.6345060725680431
Ni 4.476825937701992 8.050692806643097 7.047314821659766 1.165031119957671 1.1422580879272133 0.17340419605818522
Ni 4.007633225236357 3.5803637118332365 7.691901873563872 -1.4248225824628493 -1.1918574961218957 1.1112423562719893
Ni 7.3948643602947755 7.095489839825337 6.416786937774232 0.616809448164699 0.288756996499593 2.324300140620584
Ni 6.042249513765307 4.7740936248335535 1.982731573071971 1.8173485312209927 -0.8491065619043505 -1.9893635602411348
Ni 0.052259676103895904 1.9900757899013195 10.514368024731741 0.10890267394068986 0.9451742888639013 -0.5481478811322431
Ni 1.4880740208304186 3.288451279485618 8.757008219106174 0.17058909520689333 -0.8303472790189763 -0.5221712545628233
Ni 5.074219922837652 2.1188339348192424 10.009437107636904 0.187759950559225 -0.6549311947370849 -0.699167281737325
Ni 4.090106005149906 2.8411065215458096 0.7902416289436384 0.11638638391224472 0.06397521730038015 -0.6833935638428359
Ni 2.0655598231037606 2.2671197332300874 6.156912293968542 -0.16343834309472496 0.6846246080364596 3.220027744817583
Ni 2.735375044078429 5.403851168776162 8.216610108542774 -0.4596271132820149 0.7062097904064031 -0.3426995121543195
Ni 7.9351789400209904 5.69392592270572 3.1046184692506804 0.5816876647609015 0.2599976649787135 -0.40818191012784544
Ni -0.05767247435345494 7.05383579568264 11.140698019988546 0.5618006960289873 0.24569076143773813 -0.3233419335633141
Ni 1.4388929201369802 5.457051030858591 2.2606869306464636 1.8691963691302194 1.3794153579726438 0.8567944174669115
P 5.470026154234591 7.384933471873945 5.215216263523525 -0.6816475276860068 1.498799905281264 1.6523605842509606
P 6.945264269750983 5.621031345456 8.523649047384101 1.0801849727455526 1.4333954117335248 -0.2250049509536125
P 4.132094172641342 1.0061753399086002 12.915349637031728 1.1299630726099443 0.019613917576185573 0.16839208755557453
P 8.100616403667065 4.04599244191233 11.731193286093173 0.4332193127124475 -0.9459402204956483 2.258137685860898
P 7.4740608751498625 8.156229378823713 12.555496934199848 0.7210769373262227 -0.7686449169131729 -0.7507076157084619
P 7.541303199083428 2.6722999807999597 1.6224296599601196 -0.7575063837978503 0.02807978895535164 0.17507464178207266
P 7.185638175555733 1.6750624404701067 9.180678481547055 -1.633586131856935 -1.1579140492969155 1.8385691311626657
P 3.013783324414544 1.5062094937035984 8.759670068451122 1.4170930750290756 1.2674934375896558 0.4391778442887275
Ni 5.421095646052707 6.794314765754365 3.1995976717315826 -0.7340226988536132 0.8491345869288085 -1.9048341729384872
Ni 6.6706520019047 5.2605957830046535 12.7929305545357 0.5560046581725006 1.4393493153241146 0.18914526094252587
Ni 0.5768797396435474 9.508872068965577 0.5729018155527364 0.5188774143029 -2.150407949182387 -2.065818398065765
Ni 1.4068449222705064 0.4420182748886733 8.028960867168916 -0.3752221673723732 -1.0398741889416478 -0.22421125140772352
Ni 5.116170965512561 6.428588916947996 9.063476363893407 -1.3742908922618846 0.3546129757624538 -0.11865101157670534
Ni 1.599754750146166 8.686306790392756 10.231942839247463 -0.747962191752841 0.8950989694740649 0.45002584274682494
Ni 1.90369562304836 9.059476164912681 5.579443197862638 -1.1109960445891383 -0.21233404035416337 0.09031719762901864
Ni 8.40813054015993 -0.17364483245966217 10.492225856034942 -1.0650010659162625 0.8560053459067128 0.07351812379380886
Ni 8.822842584372973 3.5911484710341757 4.137123657160265 0.5839515210944136 -0.37775084733149783 -1.3580448627166677
Ni 1.317290583604534 7.175595912685323 0.19987073097437233 1.3674512436322321 1.0626253665952343 0.7883503657619004
Ni 6.578925861471929 3.6100171590337524 8.030469062840304 -1.2750105719023073 -1.0680575933543994 1.0131249458722618
Ni 3.2870405364576123 2.7894287769409662 4.323699063216095 1.3825739582062835 0.4327732263139643 -0.883794085984207
Ni 7.822189560922685 8.300644915111674 4.243255154525718 -0.28930104192852113 -0.4909531770888061 0.6664643921876652
Ni 4.671304289075895 1.778817021457453 2.727201087599714 -0.20414970477115807 -2.391472010481391 -0.8573464333156396
Ni 5.89487327335936 4.28281164653467 10.592189993254937 4.512521561106319 1.0541872631302103 0.10706253540815755
Ni 8.631334218321188 8.955712302721203 6.961260425071826 -0.11100300811314431 1.117201916289534 -0.5716968720967767
Ni 6.168353234301587 3.0811277415935576 13.402661116203108 1.0358812657321708 -0.35452401559307334 1.0045947969140634
Ni 5.700302109944141 3.335200704696573 3.7999551453464684 2.1873778415385168 -0.023530993242404635 1.4388435793322898
Ni 4.2366098123674805 3.5727438432411787 11.913667328043244 -1.6475212538807886 -0.9091477342576472 1.2607260369588353
Ni 0.35287416544531824 1.9288198426326473 1.8156346301271646 0.3928630203825879 1.0980366562149928 2.290038648334553
Ni 7.070337776628655 1.8720095921430195 11.693076308845038 -0.676767573885886 -0.5725350517273559 -2.101490140435761
Ni 6.363731862476256 1.2476258653926167 5.548512656973611 0.12131955954780398 0.21104257523624945 0.8003718157028087
Ni 3.9887552560326482 4.532828723432169 2.55066423193264 -3.353139411904309 0.00820618995987619 -1.8158806884262146
Ni 2.0427187797358513 4.821353516271747 4.531602676366383 -1.1875470416719998 0.18840298345986262 0.13643250392984246
P 2.7512459031434937 7.598726009045742 8.133747518055698 -1.327679877271565 0.8913742123243101 -0.5826158330021256
P 0.5198467402547609 9.185700541102673 3.09017877186271 0.05663266089237989 0.1063678233339781 0.12074723198410174
P 2.286322544578403 3.023649244406453 2.0208476221996956 -0.32287399278796003 0.14874346008671158 0.44687701270519814
P 5.327067766995294 8.823083895680396 1.6731384468536223 -1.0471136441128803 -0.23332041279784332 1.4702421482482293
P 4.599226457789757 5.096773248877482 -0.09250668970023991 0.07452676756398133 0.08719510706026919 1.1635365376900155
P 3.1359054083783606 6.651384222127463 3.2974707536607237 -0.8769384965149543 -1.1524527690720283 0.008493382182991824
P 0.9283802868773865 5.255583932773581 9.522696422519621 0.8598473453606224 0.6429220860913508 2.8627400504364435
P 0.9921885652822533 0.7427357855959565 12.02751429040331 -0.8238932958635166 -0.9201867656806281 -0.3133699099522667
