# total energy = -381166.53535472066 ev
CRYSTAL
PRIMVEC
9.27033621391586 0.00000000000000 0.00000000000000

0.00000000000000 9.27033621391586 0.00000000000000

0.00000000000000 0.00000000000000 13.56807410901491

PRIMCOORD
 96 1
Ni 6.61843617217797 7.414758070594899 5.222311455995692 -2.3357258659590223 0.16696409685979632 1.3334550891924455
Ni 7.374422836834572 0.1425833363305172 5.87698446799317 -0.4239386587414699 0.96038750626923 0.5380876686827636
Ni 2.6522896012406947 1.402101302071792 0.5666882490420044 0.02614837626059368 0.014857633838122799 0.21380394003147052
Ni 1.345237058475873 0.8378196323642352 2.633074974944434 0.6810194071837046 -1.151652127547604 -0.4142723392962994
Ni 5.262510415810655 8.734418270889954 6.97867124806148 -2.070849532731769 1.0032174569505625 -0.1110217771662217
Ni 7.043907532477659 1.7158002161641144 10.38351192728179 -1.34417376116153 1.1552164478600944 0.28074852437281966
Ni 0.34448199320621353 8.721068986446177 0.2670033025147214 -0.15839666690575946 -0.28980574947908155 1.786832879130639
Ni 5.826081977748496 6.463037522781426 11.183322253293298 1.3961439835812344 2.733119427222112 -0.8696764156359021
Ni 2.265429192127343 8.700794760697192 12.429807980096337 0.35838735520322146 -0.4646042547816321 0.06074771150201796
Ni -0.023335290834634405 8.302809947880693 7.035562375633015 0.5449355448425325 -0.36223372553250516 1.3602020182689867
Ni 8.822301060144813 6.759447259451775 5.249922225986904 -0.4246873639820364 0.05617757563283228 0.03649552382287263
Ni 8.703575861622978 9.256282589277411 9.577012126510121 -0.59050269194937 0.09469038699604981 -1.3679999170468506
Ni 0.1864431519974576 9.005362393416515 4.845933016271631 1.582508082234197 0.15333673588434882 -1.3234301008562757
Ni 8.501185876917061 7.015410518324765 10.637559934650554 -1.7657169230876297 0.7258069958120403 -0.02192482509754934
Ni 3.408257725224459 2.027561629944805 3.9926634412310085 -1.0864592357900387 -1.4666477460287515 -1.5949900167512918
Ni 5.739802956694172 5.3625373457747845 3.1632612743354884 1.4727237770195023 0.8953180274634065 -0.9839066724370924
Ni 8.99576759522255 4.81232433861714 9.767005817356168 0.46882909149625707 -1.712836787259147 0.18635124313715648
Ni 4.867835113095843 3.514004452759289 1.27525528884666 0.09895584714062312 -0.5144476606663204 0.27280278716318174
Ni 3.834164791335856 7.201271493195092 5.852697113608274 -1.5182261323266755 1.0404591149108402 -0.2502920076551754
Ni 7.139818433071624 2.3714354890819136 2.0091470336815296 -0.3004963964237083 0.3634467720039999 -1.1925380671286883
Ni 3.5782478841449628 0.17662771979671435 9.13443514144956 0.3420235691332174 0.5521873413089393 0.9847584789144266
Ni 8.16413498538455 0.275535720155035 2.26338508294689 -0.6648353412246744 -0.11913515030197545 0.1336855373123246
Ni 7.671648363109817 7.287429999875964 3.3645842433195465 0.7652173792888628 -0.0311406872688625 -2.471921057067078
Ni 4.341975279711672 7.724748850119505 13.117370291642168 -0.059581459108058676 -1.053850962836714 -0.5508475394515933
P 1.022341970655616 6.664899098311445 11.58310551137514 0.6262865344171988 0.05336581721565002 1.2248349794891809
Ni 8.15420645507949 2.7043610809078413 12.37637654207648 -0.6738820248079749 0.2583274763651422 0.6455281562556301
P 7.509853181583966 1.0518679921510516 8.078404768246248 0.8790740548007183 -0.13790137516588508 -0.29178909845769746
Ni 5.554906096811451 6.442893081742311 7.129412480440973 -0.7564357764414908 -1.4288083065834747 0.904378595003778
P 2.3893179680347223 0.7964164558484065 5.45663218746421 -0.5427768466283168 -1.050913477474945 0.3057095651935316
P 4.681427188376779 7.245018210757716 1.7122913938294135 -1.4056863758540306 -1.4591969461776613 0.658973997347891
P 2.238508135165728 4.380929233345524 7.987701942652639 0.45429335977392726 -0.5663780309870245 0.5207993139159611
Ni 7.109244863560809 3.6303935265034637 8.79501567896192 -0.12342863547100678 -0.3583585588478151 -0.15761736553757372
Ni 5.66263667634001 8.757603382274596 3.3035956270506857 0.28425679463639436 -0.5043321694988735 2.1230588677454727
Ni 4.9586936803412955 7.458078352682236 9.319367228610675 -1.9946307221773454 -0.5476902247695342 -1.871936650879518
Ni 7.996230652158386 5.981749466901197 7.885724533905892 1.0501753137573395 -1.2046633896373122 -0.49026489277252977
Ni 5.488474866030826 2.842683770620053 3.8327909274785177 1.3062404764508666 0.5542308541015294 -0.24223057080327962
Ni 6.715487324151506 2.782695423650834 6.091820806375625 1.879465098046079 0.13978419401089473 0.5373189088375391
Ni 1.4375510685391537 1.2634077989028085 8.728450955336857 -0.7649384145958633 -0.0777560731345564 0.4094443217800368
Ni 3.399627042018101 8.695631183311647 3.9978335078520466 -0.71624094939016 2.285764703549547 0.18428176220263748
Ni 1.722168937284166 6.722773808577067 0.22877521622249913 -0.819707282806627 -0.042422945050901134 -1.4897434515059507
Ni 7.442726675571893 8.347947215906212 12.62916378369222 -0.47415821701865435 -0.9316364022784664 -0.7445765631100596
Ni 3.781490739801456 2.7948766457057794 9.234662310680346 -0.9603430261845396 -0.1068506765076676 0.3486521301933286
Ni 5.4819392788552275 1.4760693163612997 8.346590965688069 -0.20041389187780967 0.6704421458884905 -0.5973752506994873
Ni 2.962577031530719 2.04301528075576 7.217293415628548 0.8015578655911099 -0.4770807899820881 0.2795439625417573
Ni 3.7434267384638553 3.5786186976017342 5.625839002957283 1.4633569910926219 1.9661279867519623 -0.3096055578138281
Ni 1.025447533356078 6.443866467066337 9.172968221809976 -0.09905766282581005 0.14243114471543858 -0.8848968321300824
Ni 3.6471728354223765 5.496790357798929 0.6978913203842023 0.26392888171231965 0.35842617886095685 0.3283491569699184
Ni 4.9462621592030285 0.696540632367912 12.912994600875237 0.23361968920581702 0.8093758189736319 -0.1985138466416194
Ni 7.803370573291495 4.071198023240658 3.514442939671922 -0.08929158457798171 0.32144908741597544 -0.3567282223332437
Ni 7.2679252120497795 4.566957074271398 11.14317428032864 -1.5681441002030412 -0.7745620537285564 0.15869131532804281
Ni 2.9150850980547007 8.494474153349495 1.399248819555577 -0.6309811116793907 -0.14738694605881714 0.7060172147796228
Ni 5.897278161448635 2.9731730260579656 13.083083952395425 1.67127824709107 -0.5340266112395126 -0.5742823734357657
Ni 2.05644799822731 5.222304966760199 4.458238276880544 -0.7282968521134295 -0.9556772452777541 0.9758200387742162
Ni 1.4819559799875481 8.461091671903635 10.119246155111684 0.6500558689226547 0.6672025559052702 0.03602989704036376
Ni 3.772081348335877 4.241744402346319 2.9390887801451657 -3.201807622265131 -0.20630146100683827 1.8051051950772654
Ni 4.262092790786658 5.05786773935485 9.586821069475372 -0.027858674083481055 0.04694834372508044 -0.5057303353979807
P 0.42407061246673583 8.103414281838205 2.587540009486528 0.7408631188142144 -1.6434396276122472 -0.17970288458270342
Ni 0.23351050406547197 1.9456025856618708 0.5081349501504909 1.02237963170131 -1.8856059208364946 0.0199810711076172
P 1.117650299382327 2.9302791794459155 11.904207716131905 -2.000259381218033 1.0837953158046303 2.994187185336553
Ni 2.8968596166543787 6.5057366923286715 8.07346553300205 2.2959503858332977 -0.24350146709590323 -0.27322779051574236
P 7.597578375119698 0.8835641074252171 0.1244783693036457 -0.2879270443991299 0.556577499956835 0.07044976928113028
P 6.863534596767552 4.539248038714143 1.070941709333739 1.288118312928859 -0.42480794872030064 0.7949475593634439
P 6.334050061843438 5.716135787815727 9.246887103316462 0.7251822177438478 -0.8116268197913377 -0.7500936362735469
Ni 8.958380328443559 1.9021988705467596 4.0700698232984305 -1.8009844880406725 0.13460676357501333 1.0475489318780864
Ni 6.396059342152063 8.938680863552568 10.038610914869423 -0.041843418398347286 -0.3321343350439635 1.1713418926670471
Ni 9.327534394996068 3.794691698862523 1.593326093594319 -1.6576300601800162 2.4208208959571533 -0.8857229275758037
Ni 2.991129667702129 6.671175116067304 10.850172319326022 0.876060464785375 0.11359699409256564 0.20019277700593907
Ni 5.1138049493088396 4.13141812862036 7.458845009504112 -0.07078144158893616 -0.6276970416114803 0.19545577654158597
Ni 0.1285193089488138 4.016910933169301 7.345362186227385 -0.376211527868836 -0.8473510126658246 0.08242828179924513
Ni 4.830948444483492 1.1157406100799534 1.9245366731826783 -0.6639897053949274 0.3807670084500023 -0.36696661223180027
Ni 2.435233944319461 8.689800141703916 7.334086676040603 -0.7033085575992082 0.4721864380042642 -1.2611762371223763
Ni 0.053991366339581376 0.4218855941727094 11.760575904752367 -0.46730571287319517 -0.04743042556782154 0.5616700839883939
Ni 7.0229751128429045 7.908551810304749 7.945478341363703 1.5446046223202043 2.2568246234764295 1.2882334983504846
Ni 6.235654711089104 8.34263531313796 1.1861627206890826 2.2046510267966677 0.8154307669184602 -2.061261631933018
Ni 1.3249535623904687 3.039604256838591 3.239988140743376 1.9809928196789366 2.024903147908642 -0.5350357692303173
Ni 4.522589244168681 5.025801645680529 12.023729236552157 -2.468027635549943 -0.35057300136512526 1.4958284813577658
Ni 6.063476752773649 6.078392724072285 13.32201760326618 1.4599068277604923 -0.10297885225708718 2.475015893942318
Ni 5.126885393996457 3.2282926843168007 11.066799686704686 0.27162805012879027 -1.6636359000544636 -2.0222914213174072
Ni 6.6500202083584865 5.1052947804759325 5.584917883935258 0.6967165062039872 -0.7276306792843403 -0.3753070137766956
Ni 4.98692185473803 1.48297571699367 5.779673746599893 -0.7868760952092191 -1.3417389264677924 -0.014027938847975843
Ni 2.099582873586262 4.091537141344578 10.544727712781437 0.5720907651010857 1.1936410703848797 -1.2065354098490446
Ni 9.138243395650605 2.284720762215884 10.3864969756088 1.5169812041759811 1.3000672577606192 -2.749727982313071
Ni 8.260592835827252 6.541761219654029 1.1037318162824064 0.21156759450178403 -0.24446845899486286 -0.33028262654720536
Ni 1.27329924786219 5.7979279660431144 2.2716347553264153 -0.20479787987811826 0.6508865923540662 0.4872430752270705
Ni 9.147467380387797 1.6100998403113806 6.695328977607763 0.06517206582195872 -0.2680557593964996 0.5931640408316171
Ni 3.4618958917464657 6.584284252809309 3.3891960594791173 0.4562993344603626 0.18953375463019617 -1.4218372745822805
Ni 1.6355191027730713 2.878050104059641 5.528298377220808 -2.3939304993242128 0.4178101772462288 -0.27093256672366245
Ni 9.015439249104283 5.130037308379015 12.570115448835917 0.7184153313336595 0.19573576967585 0.35088667595080214
P 4.550539308472837 5.51646201168066 4.946051722566311 0.15514165030357152 -1.4791026839626527 0.41544913321321997
Ni 2.189616380890397 1.4113438274818233 11.190323211357144 2.1384309793261687 -0.8421319303587304 -1.5165081211943043
P 8.863387191155104 4.660865582198796 5.19402209737859 1.525812943534998 -1.0415850009851675 1.3139082774087694
Ni 1.224222086858474 5.928695331573606 6.4976288560963615 0.6051494953282675 0.3407081927559036 1.1377136630896407
P 4.334512658894144 8.730784299013592 11.107070028110078 -0.17765422958379082 0.03575710299495132 0.27652677298198824
P 6.864007383924935 1.1561500065316344 4.052838121962256 -0.24326081184000686 0.6704783984430647 -0.3150118164310639
P 2.259459095473321 3.864154329652256 1.2826567254438204 -0.16710267932018963 -0.41041337056152544 0.41474002296133733
Ni 3.0302319467186902 3.2917017854247375 12.879982932886147 0.6609640311947262 0.5710183579725133 -0.32365946480373287
