# total energy = -381164.9112628668 ev
CRYSTAL
PRIMVEC
9.27866992040306 0.00000000000000 0.00000000000000
0.00000000000000 9.27866992040306 0.00000000000000
0.00000000000000 0.00000000000000 13.58027133083514
PRIMCOORD
 96 1
Ni 0.20447219289564883 0.9728407032114506 4.632855655790559 1.3734195454005251 -0.015116801036780415 0.5104668216417015
Ni 8.964113713619648 1.9795021582155679 8.547952378378602 0.7877713533299787 -1.6823085367633028 0.5938129872695257
Ni 2.2275395620349285 8.509384659064088 3.585693734531349 -1.3707309428247683 1.2111734228416884 1.4306548728739104
Ni 2.560699483534927 7.576822661897072 11.681220024224059 -0.7913845246025338 -1.9134190863940206 0.7188326213767362
Ni 2.2756030721271134 7.652211854850548 7.120910576929012 -0.12935348559587398 0.30787366272438593 -1.1626286811637654
Ni 8.10540065020238 0.1470177409956839 10.023611626513521 0.19344028877345396 0.49800725572211 1.337901040778941
Ni 5.314386022360849 7.596437770069828 8.29368898705502 0.3479430199414459 -0.6590940678655229 0.821496770606882
Ni 2.058259508343457 1.8934888882243412 8.84864716175861 1.9196666099656294 0.6352594273397705 -1.2492517177706484
Ni 1.139624794699293 5.858607848120873 0.09077786698588636 0.40864676557940594 1.7125105142679797 1.8895970442737586
Ni 8.408636861268539 6.320629937219378 1.2560377708903316 -0.10862268080642583 -1.5622236209535483 -2.0614992018651206
Ni 0.2925583177429748 6.078484488787766 8.139797607395959 -1.7724084761751928 1.1481407719602355 0.16587729155352077
Ni 7.1959982131106734 6.079709273214825 5.354714833222755 0.4569544515458581 -0.5831835325801377 0.23872667141507917
Ni 2.3278141476654772 6.356250750973026 9.071743500881485 1.6970538133932773 -0.3602863719981472 1.5199408010249371
Ni 1.8849061185650224 4.916924918440224 11.86502861924803 2.7463660078193732 -1.4551027215036294 -0.6034078300468124
Ni 4.482117168164186 0.5880115804953631 4.101608194154455 0.33566034591935096 0.6166703514836736 -0.674262290965529
Ni 6.234700175257268 4.260542530905234 6.895015790963704 0.865411212601645 -2.6655714049688095 -0.30335931979380015
Ni 7.5449133161042115 0.45175524085197954 5.808540145329863 0.6389800707244673 -0.5620722045228191 -0.6042660642820497
Ni 0.6086297128845222 1.2078137398088429 2.2240953197673186 0.13549790793071503 0.49953757632370743 -0.2307020013383898
Ni 3.5053423089143023 1.902600542068072 6.033252828749662 -1.0734281136376933 0.1599706962610987 0.5581394451273161
Ni 5.708683099844903 2.017108607328237 6.33654100036727 0.17312368870328895 -0.2002909931467002 -0.7888910687567188
Ni 1.4201375431755354 9.154818216114759 8.516405828578906 -0.09328425067714256 -0.9067321828376191 0.9802950438264343
Ni 5.289120204217795 5.422306231990619 12.042400600961004 -2.977318948826305 0.5283776404838513 0.6975657415781599
Ni 8.016937811357035 2.148893555945863 11.478249120118548 -0.9181764201188187 0.06836409039669517 0.4395241718845527
Ni 3.227065719884434 0.3124490024118197 1.8134687111227945 0.6390793153064929 -0.36298063100085876 -0.447026650909185
P 2.3444971961492125 8.051482299402055 0.2568196648815716 0.15620300168855034 0.0630557908099043 -0.02894110851438242
Ni 0.9276164661092674 4.432745365615824 2.177188859811909 -0.055368706578291745 -0.5635642156873133 0.37485372828936087
P 3.1990905301300057 4.3157877315015405 7.6534876719620675 -0.09359046906365172 -0.18604373919906667 0.44830577473192473
Ni 5.404407677749725 4.592032291822878 1.0136529327752488 -0.031408339107952356 0.8341383706302924 0.18745064684892232
P 7.0564191817753965 5.283608674296028 12.947091329476493 1.9526636337169403 1.077267284878125 1.3389878460852167
P 2.3409898589262697 0.11088474466344711 5.595044445954552 -0.553698121526511 0.4375657626066012 0.24950139343308
P 8.822363473527309 2.842372065748915 3.6819376659564838 2.047091253969907 0.2187186037242685 0.5033399807889332
Ni 3.3598713221912764 3.8114641863199714 10.081830640813408 -1.222359521365495 2.010679290999776 -1.076414707069843
Ni 6.95384348600916 3.636106603842712 4.698706376084813 1.5087842701874854 -0.6235064005689004 0.13083495523740693
Ni 4.195146465436175 7.02166128432263 0.875634573717482 -1.1289289749184752 -0.5100875839254118 -1.4095299179698368
Ni 7.02978012048685 7.616980745232782 11.241517775574733 -0.6721722412057198 0.6645502058840878 0.4791978363250909
Ni 5.12482279626368 5.137460344670157 8.8384072216548 -1.386172474190819 -1.0821935185351492 1.0069530127335948
Ni 7.211372969138232 1.4285440181067168 3.340909432379618 -1.6317159114174156 0.2642333003266159 -0.35489451155861457
Ni 0.16248435585527135 5.171392440501648 10.5050864470615 -0.2495882967199314 1.813639972021154 -2.182905664699776
Ni 4.767139350212784 2.221072329113258 1.0808592667421804 0.4909452066690061 -0.5917427350040584 0.2643222604959964
Ni 3.379217348936876 4.1268832909674105 2.7204002384196087 1.0334117211457556 -0.4616022347305147 0.8638222708479705
Ni 9.229084690010096 7.574772075848737 5.785141195571085 -0.3692872899451769 0.8654009281889999 1.0751782635595806
Ni 2.342780642217349 6.443396018692293 2.50186622128753 0.425512430986493 -2.018361233025066 -1.3863473092057865
Ni 9.171148675142218 7.238726488009228 12.3567164717571 -0.5198768021016917 -0.5240635864895298 -1.348902534095767
Ni 3.8517985643838184 9.251557628512659 7.953924508318802 -0.5292240476445467 1.8314155508370202 -1.9874534877026158
Ni 6.9042026020336404 5.599714400516212 10.407417311939422 0.8832307572815692 -1.5854643366490435 -0.7934506631029432
Ni 1.640153363890958 0.37076637061266754 11.031607354249541 -2.569964419695761 0.3109353323688452 0.13548196709111507
Ni 8.6647003145531 8.371466509641262 8.214991020414503 -0.8513544773982628 -1.3414974998809477 -1.5010048833523828
Ni 0.9919547632095009 3.8546749520534282 8.273101474276539 1.2934749492550819 0.8885038327550504 0.017532095346492388
Ni 5.77252034877043 5.314914906545262 3.4778394034578843 0.2208356500672713 1.736022738457307 -1.0798013641538888
Ni 1.5948363400897552 5.595724572458367 6.381708637583051 1.3369577030290651 -0.5166626660397683 -0.7358648942686746
Ni 3.3611239426280415 0.6146627040547806 12.951708395619711 -1.6290265375107105 0.47403043319153854 0.4533312529709741
Ni 7.8987832288253985 2.4368106830038743 6.76159037350741 -1.0172312547311513 -0.5787776902029581 -0.5943256652398861
Ni 1.0683831671919966 2.4546164505457475 6.235409065637779 0.6057292790911374 -1.2702236920366254 0.8862003814328544
Ni 3.0344498113895177 4.86182817656235 0.6501768131045562 0.42087878886922353 -0.47098033351130497 -1.2360365046319552
Ni 6.314543129763688 7.346878664386546 0.27506152990883714 1.5382586254975184 -0.22596474376372053 -2.077479893564093
Ni 2.488529989037434 2.115675917696824 3.856756157712439 0.11274390206365098 -2.637591889036748 -1.5467823466978134
P 6.981020710152018 7.769568471770617 6.789687113837553 0.49987439083783597 0.38965891162299343 -0.1243514043955923
Ni 4.452388309798287 2.5478763617304097 8.303004771636594 0.27081918107424974 -0.019924249727752783 -0.009120217133713325
P 5.632022729114858 3.1672554136963598 2.9745550693053353 -0.7034815928419627 -0.1043363947262461 -0.8651366187840197
Ni 2.3200942943070415 2.3731404501365825 1.0564025486145778 -0.1488589026186533 1.0713756019840386 -0.9493032234306104
P 1.447648799434865 2.5196135332090206 12.52481256716908 1.2931034248482762 -0.010802489932142686 -0.16906777346636045
P 5.594165755914837 0.06027609541715285 1.9980929012311475 -0.1965641791144163 0.12343737722175514 0.4841340972844437
P 4.464552646039764 6.513199452364784 10.358107676479404 -0.35040742232153843 1.4471294734901659 -0.07943628905045674
Ni 7.69110803907959 0.4092867687106802 0.7735376573181871 -1.1739538763685975 -0.1507221810796372 0.8106690838637586
Ni 4.0535446840622695 3.3902032941008033 12.304350442431373 -0.8645563208005175 -0.15382293149214799 2.010356360442718
Ni 6.801849594345051 7.378945747567742 2.409575003240633 -1.8113558039726674 1.394884143032204 1.9008296797647846
Ni 5.362236123045289 0.5800523374534565 9.83578351168802 2.29785891570992 0.40276665264954503 0.2251921272637541
Ni 0.4065254365478551 0.006365167552748815 13.239542014648604 0.8831873056381435 1.1785391817464348 -0.053668436057733374
Ni 9.038055434068417 2.4407633963821116 0.16397358237453694 0.18981940419141505 -0.6873756884190355 1.2979504685279324
Ni 7.829360220618887 3.8261801567844893 2.0727295940555734 -0.9768993878813241 0.32883920923245946 -0.2761259379991438
Ni 1.9212970619205338 3.952648427548289 4.713861227635695 -0.6602022133280372 2.6394777932055513 -0.1525774891208211
Ni 6.194532813251658 8.26183902474953 4.7937811951023 0.1208719304874241 -0.4424711703280187 -1.3357811662224608
Ni 4.0465114522765795 7.979860246428778 5.543765876741336 -0.2820500167930627 -0.5446709783272362 0.3304248085520245
Ni 0.7342387788153995 6.483192233901826 3.9858642100633475 -0.6416709872930692 -0.869215931059716 0.33902823395031934
Ni 5.657047301840461 3.374410997927657 10.60320466980683 -0.1908203346521036 0.5554788675760175 0.5918378658210259
Ni 3.3941560074790416 1.7129352506019808 10.74180480146745 0.5289592240189341 1.589496340626572 0.4843883793870948
Ni 8.555815123253527 8.879993292288422 3.109107845154718 -0.8604759800835569 -2.147784652626927 0.8399228385225534
Ni 6.82963921070144 3.2007142973628495 13.352652712221534 -0.5358808908394318 -0.6369111040105805 -0.4889070931930548
Ni 0.7384550064188529 7.883334243438624 1.6791599642918336 0.29763964370120355 0.846474266487826 -0.3245099857294863
Ni 7.136883807165248 5.9230853252696365 7.977458926658149 1.391172498508572 1.1123800694208585 0.39125968045121007
Ni 4.2094634530949095 7.448044002327684 3.0298939844676522 3.2056604203523174 1.5728317354866976 1.4532160460038779
Ni 8.920457571730896 4.217749305317366 6.2349200797339455 -0.05261094132749649 2.8903020192151128 -0.9895780117902571
Ni 0.7215297846506764 2.6476777351959586 10.477043523016786 0.8477863004310302 1.2783044121622307 1.2998119472167033
Ni 5.31675208318585 1.3761380905004117 11.992520327302016 2.0644832241941087 -0.17224514275307756 1.1450019692209379
Ni 6.5101096552874305 0.41947382039604897 7.894442667045258 0.1430168420155795 -0.7428768068101335 -0.5323438242204509
Ni 4.670585511212924 5.7486092164330636 6.712782714089088 -2.1310035765138458 1.6101633820576207 -1.7309736060691736
Ni 8.988368156743388 4.452304801769169 12.502242202632546 -1.2846658356038843 -0.5586634359515862 1.448379543847183
Ni 3.576927247207972 8.953712324659543 10.128301931150416 -1.8398192015196828 -4.267612157919296 -0.06011959099971582
P 3.5885534205951353 6.029697242443228 4.469891592701356 -0.365650464523538 -1.4675034091608272 0.6367905192723162
Ni 4.62299521328574 3.9313074867737665 4.888639821111071 -1.735077343824902 -0.8818050805786363 0.9005509937275715
P 0.8173775168709971 7.56312734512177 10.26950936905349 -0.82547169609423 0.17340985248514007 -0.7145085400800855
Ni 4.766118696523568 8.179444436020072 12.241555188135836 0.8138215134498114 -0.4857451505253054 -0.8705886430375266
P 7.373257922917835 0.20701733204975817 12.175283216228033 -0.19412985864131083 0.1692752614914762 0.7949241623246762
P 8.09444254104816 5.918130515541986 3.2844839849717813 -0.43996254497355197 -0.7202464710051273 1.0698761346203767
P 8.187878746960958 4.178185056855382 9.08818901541573 -0.6751050985817986 -0.29983459446999333 -0.621766277949342
Ni 6.852483296000081 2.1097654049692713 9.315563749230403 1.0925391234355313 1.831013430302595 -0.9593742345133671
