# total energy = -381166.3638661305 ev
CRYSTAL
PRIMVEC
9.19399958908167 0.00000000000000 0.00000000000000

0.00000000000000 9.19399958908167 0.00000000000000

0.00000000000000 0.00000000000000 13.45634774233896

PRIMCOORD
 96 1
Ni 2.0707001340554996 6.343822832027628 10.655314847828992 0.4296663052538665 -0.36637757249754965 0.496689308241635
Ni 4.8903618498341315 2.6624075494950583 7.490112293200649 0.46342720375439544 0.9434390513403494 0.6133430868826534
Ni -0.21248068207123533 2.075628117751009 9.125503216753051 1.6050306888167454 1.2597402760067982 0.48040214104583717
Ni 7.9833519747243376 6.399354588596429 10.4625654079386 0.3887037467985758 -1.1938513866234728 1.6013054174463583
Ni 5.162016951049096 2.6402132348664016 12.628405048115615 -0.3561335261720383 -0.09510253483280395 -0.9168283907313566
Ni 3.933790566938795 8.859815940569346 4.454885308541373 -0.7121305267662121 0.11384510554762975 2.471980963770736
Ni 2.049278115379124 5.994276167625431 8.191860849040983 1.449915006655103 0.5823327545440681 -0.4748192476414209
Ni 5.904993239142048 3.515766994767652 1.517943097209273 -0.7325761962150739 -0.2510466264330128 -0.715077268099362
Ni 6.293283417150358 7.243474064439942 9.25339174885107 -0.21821183929117902 -0.2666763625504698 -4.128911941001199
Ni 7.108037258808317 4.0115718021328455 6.4141697992810265 0.7334462575248529 -1.0443947025198208 1.6150057977515861
Ni 1.3319990556983905 1.035225948035419 10.875056950651558 -0.20120887697527928 -0.7271653096121476 -1.6071778170667355
Ni 4.051795549647498 6.876964471085851 9.673660495683489 1.5968604943011273 -2.023198506512709 -1.5892302314493791
Ni 5.406034889971705 0.38333461231450605 9.331479144226204 -1.441827601661278 1.2212755442726966 -0.6954106429083701
Ni 5.528747200389552 6.663249954290852 12.279724458459906 0.7317225899655269 -1.0856681073473111 -1.4245024801192692
Ni 8.248534500339229 2.807810650510886 2.0504779323049895 -0.772805733159082 0.06426318085444416 0.4397997941434426
Ni 4.156257771192983 5.611198987295019 0.6764154098056182 -1.8863875361975253 -1.1875110462277418 -2.1465245549675807
Ni 6.25853929329713 0.11897494964877117 4.034253398731394 -0.06255905367914388 -0.1971532188486669 1.9117193300940947
Ni 2.8464990001204087 6.989701292120064 2.893653184406844 -0.2777333916955797 -0.16603541439793987 0.14359662577844945
Ni 8.860487102527879 2.210393761424104 6.816662867611769 0.32339721228128177 -0.4460306055445028 -1.1977370948311243
Ni 8.649944515536891 0.5320622635249161 2.938960294207407 -1.6841052236524092 -1.1347646077636455 0.5378159030786157
Ni 1.71817461383736 -0.17500318218689656 3.5895212582105205 -0.38753723729430034 0.17791416811339683 0.4794639455022839
Ni 4.315323155364644 5.061425403264449 2.8614649923956894 1.8085772127862656 -0.5570127877220407 0.9071065354579022
Ni 1.7775862381664322 4.83927998899038 12.468934208569006 0.22467739241086465 0.9983560150932033 -0.09080750700187587
Ni 6.881956812777385 1.5601297636026414 7.882458863758324 0.29129981752610473 -0.16202526479728224 0.32341495289309463
P 5.683473016829348 4.683073938642044 8.418290667050329 0.25060002581389745 -1.588214902810987 -2.6276304069486613
Ni 0.2509814740923469 0.4231510656543255 0.15780764504937508 0.538192312581428 -0.3908498466073011 0.12732977029762588
P 6.215952687928473 1.689829513588748 5.772584936923296 0.5903556248485446 -0.5473068732881865 0.9320104977884336
Ni 1.0222256328386827 3.1176760133649126 4.652128775354086 0.9457823547615453 -1.530145509472081 -0.9240120529639894
P 8.36882878890648 9.310763224706198 9.43883379799297 -0.21775675403163142 -1.2713297806166106 -0.9171068412037237
P 3.7857395940865746 1.0601049104981966 10.80350924707235 0.27163550632795797 0.032120791793944684 -0.07893466682368985
P 6.63705624990931 6.625287930636451 5.530330407091729 0.24864598741132016 -0.38093027350074393 1.799835462037894
Ni 8.123192706083852 8.039977817225537 4.88828768356229 0.6848544646590786 2.1130976427677024 2.5346084087939706
Ni 8.827710494553079 4.8161754684179625 4.935115480868892 -1.930617452550178 2.191134994588104 6.335137768484154
Ni 4.493429312359814 8.365895903087697 2.509083817968631 1.7726599300643666 1.5869555764825896 -2.912243813593526
Ni 5.4850481210896325 4.766583035482182 5.1599170415788445 -1.675272712962444 1.4078273334564335 -0.4038637423684658
Ni 7.996903929886988 6.783976360831405 3.2276932493671637 -2.4983252580922195 -0.9246311746052268 -3.6971504437812004
Ni 5.467312896185458 2.702337089027891 4.014943241724531 1.3684053800153853 0.03784715275476063 -1.584396814616478
Ni 6.398352442658349 4.585148650692656 12.850044792420931 0.5219588814417011 0.3830293221216178 0.19235271213623
Ni 3.440983003388408 0.8783239119300879 7.960600503730106 0.11167098071444641 0.14372260983335247 -0.22078834176910364
Ni 3.57195152529612 1.4965072875337493 2.8500009945040277 0.0347973101848433 0.7640428993647874 1.0900603228777357
Ni 1.218609460704511 1.6029462189570967 2.1324277268414726 0.24199917151876388 2.20617106298562 -0.48196948553295704
Ni 6.910347883023156 4.648136740800745 3.260056127367525 -1.6626941049664847 -0.29958802567682596 0.40027911034100094
Ni 4.048733947836669 1.7155359360003988 5.526992985297942 0.5245775500114707 -1.4455315328754266 -0.019191228216470176
Ni 1.5023270891741551 8.105439093180813 12.139818449704423 1.3318622907840287 -0.6588912078260976 1.1311671202203744
Ni 0.7515634835623661 3.8417402446264037 0.7457537953213353 0.4237710228153541 -0.6416691875208562 0.9894016341133927
Ni 5.6858082926850555 6.89265862811614 3.6821011548901903 -0.6622506112166336 -0.5009578537100018 0.5131140294565615
Ni -0.12605524861129339 4.656494086284362 3.0296158868059755 2.8941249925056285 -0.6927924885592327 -4.430930430496388
Ni 0.49723079667708414 7.205272996800311 9.26429123517761 -0.7717158425290128 1.5681441002030412 -0.675871544434178
Ni 3.54849763274529 4.4266257124874775 9.168522859494953 0.7390196378475724 -0.31553272193154047 1.3045553754389598
Ni 0.8936742133816228 4.360603602566854 10.042418021898683 -0.36126647652322946 -0.11626297096050299 0.20841747890857654
Ni 7.668227644195251 1.5456859904950937 11.057323392389671 -0.8519656286197006 -0.5028154757440307 0.6792222060739658
Ni 5.717003532757563 8.544185940071506 6.37986974560036 -0.5847202809396381 0.5283017929405934 -0.10587777107143702
Ni 3.5457762089134413 4.4404442936336554 6.701395857933892 -0.8216618354298366 -0.01062842624812363 -0.24256764242772416
Ni 0.7337170112650647 6.731276356087633 4.044682152287021 3.849091584869603 -0.2841992019255815 1.8122343499228788
Ni 0.5747959728844839 4.491636482470589 7.185002986252756 0.07761054869562763 -0.6735087006289562 0.27269788615420126
Ni 7.834951629893703 4.113992955804443 8.894201498444732 -0.7235022589382637 0.37650823317364834 -1.4994583648008692
P 1.9105866339485986 3.165153826431352 8.598242979131427 -0.4895313570406149 -0.9197717896303966 -1.281480238787051
Ni 6.245198800121413 0.449771371609509 13.037855215816494 0.9836184517727125 -0.26913587983455584 -0.021057592001247606
P 3.9861411997041523 4.904759652944519 11.726386360849583 0.5053832364712071 0.1067653158827129 -0.06583078245188018
Ni 0.6156798495583494 2.5548193681427214 12.336550730148721 -1.4914781748088701 0.6817796823884968 0.0345859655049856
P 1.9567956750934326 5.075620938387336 5.312391247557763 -0.912380382262332 0.22411843458360112 -0.2013014366890856
P 2.734102357065177 2.943091158152169 1.3078335475915297 0.5214032660485471 -0.1443658998443062 0.047977299210227045
P 2.21157059335139 6.635980551975775 0.6747568123080998 -0.21038000195158607 0.6970602626966511 0.03495183348483658
Ni 6.362367128881812 1.2080455553572342 2.1980407037873753 -0.18590644229025402 0.3400080813650854 -2.141302130226377
Ni 4.327854576590353 1.1112051593408123 0.7545745183763203 0.5556621872314172 0.41195217580355503 0.4545540696344817
Ni 5.74216750920273 2.88120634797591 10.002210823583008 -0.5371091068195781 -0.6984183193864424 -0.14887844300267908
Ni 8.63960126617598 8.624743763093996 11.478304674178064 0.1307213124776781 -0.3458735390069269 -0.3315612361493128
Ni 6.155511335663026 6.096191651328273 1.3814425458433741 0.10537614884467013 1.7124796610300443 0.7014221392097726
Ni 2.5610345117586997 1.14771453108497 12.861240325529181 -0.17734261188064296 -0.1786307345644472 0.0703150434754789
Ni 1.0534760369077816 0.09862954830587363 7.956711441970403 -0.2621738466944259 0.37006684842367876 0.6324898350144333
Ni 7.635671692206819 6.143458002407777 7.572707506497253 -0.03204468714037062 0.08885912502625341 -0.7726668935883725
Ni 0.5631241906056605 6.980580844683598 6.633171785149323 -0.4598250882254339 -0.7080129050534129 -0.058858722009421216
Ni 2.0822018273448326 2.018478217282189 6.44803957378828 -1.4340281602215175 0.7293967700458277 1.4608838469617809
Ni 3.9077899365453233 8.169723537208803 11.494936619150408 0.8802351649883551 0.9891625215193933 2.2191067972106815
Ni 4.98201683017095 6.3646104647432 7.221604297991233 0.5488125112994354 -0.21091170608534 0.3914836235365581
Ni 8.181878004457802 5.310785055857006 1.108810122488797 0.32666842683338576 -0.9792005252106749 -0.8388856555072907
Ni 6.441012600022463 8.486548757632795 10.847175227974313 0.7151281759419555 0.9239706582030927 4.021549614964436
Ni 2.395937863959698 8.959681162398871 1.4725817428120618 1.3226153182644642 -0.7768210249660622 -2.506256854234471
Ni 1.81591602179811 8.685929829313428 5.823342249587102 1.1494039549433752 0.5519502855974687 0.7852475584668606
Ni 7.7770386274720344 3.773281724856322 11.059664184645039 1.047454572392067 1.1389963864568062 1.5502178547419239
Ni 0.5048011358093277 7.706989545800229 1.855792236134237 0.2372853109828623 -0.8072068363467713 -0.512987016960394
Ni 4.643089235112622 7.937887647533488 0.2614175828475202 -1.100686178022698 1.3391292567590873 1.378577949673013
Ni 7.933897451780035 8.594642608953889 7.2964756323650795 0.4799977065185668 -0.04904045036741877 1.212436348714512
Ni 7.89582510013245 2.5340041534288527 4.561298496766311 -0.3376501226558701 -0.5557606604824945 -0.6130371256064604
Ni 2.7745743425644926 8.623916303145123 9.716357429045328 -2.5438270991787606 0.9958533032760074 -1.7004857218929619
Ni 8.235111261168624 7.390761935339314 13.495640077330863 -1.35694160235016 1.6579545333989703 0.11944728222575555
Ni 2.0826247513187006 4.875256108767485 2.523576319273168 -0.17907682096293032 -1.0384945349853016 -0.3917443333971124
Ni 5.888508398160613 5.295136868823876 10.314667055476951 -0.7872373352033796 -0.8613493838274456 2.5620917018159037
P 7.847326753129069 1.7451957781677752 13.794639971656249 -0.6754511690673077 0.28045876104654277 -1.4223833768937375
Ni 3.4053194795919874 3.530937093830321 4.369518104416045 -1.6859533326047413 1.0217707944727177 -0.14464075077224767
P 8.660241794900642 5.649868948905677 12.422899853413378 0.418264491174828 -1.7545192545995978 -0.5715050678009448
Ni 3.361307804311382 6.8093609932629375 5.520251025514514 -0.3159780369990752 -0.7439224744658285 -0.31966139938793336
P 3.485904884612773 7.988399480412461 7.517738422693686 -0.40917821260284376 -0.29694364607544343 0.0071196417639167705
P 6.809535679252145 8.243772008633494 1.7883082803039383 -0.048054689415381754 -0.1721782940708841 0.026405229466406135
P 0.2663998111396781 0.7564813538585007 5.00284123888425 -0.45361613120124455 1.1470717072657728 0.5368712797771592
Ni 2.919821145589977 2.938108010460068 11.345059718011008 0.184446827025592 1.081483636952318 -0.7382583342015157
