# total energy = -381165.0734729193 ev
CRYSTAL
PRIMVEC
9.29007110956772 0.00000000000000 0.00000000000000

0.00000000000000 9.29007110956772 0.00000000000000

0.00000000000000 0.00000000000000 13.59695812362824

PRIMCOORD
 96 1
Ni 3.8362419290305394 9.08233574673194 2.3592897153608843 -0.4100580441046357 -2.4095892889073918 1.0425625344070883
Ni 3.072421579432627 1.2774590864947242 8.566735875841768 0.7763127178710759 0.8669664729039068 -0.37689852663353157
Ni 5.869866346598642 7.19525290951093 9.76828579199187 1.4713947737954338 -1.4609620084978838 3.2285738346153816
Ni 7.897331447077223 4.10679666748929 10.80490443220105 2.158615938914476 -0.20837068483104113 -0.2506797300118973
Ni 3.3918513815534825 3.7982826988227156 9.958670004526867 1.7751837249274849 1.5329577821098954 -3.216672198081789
Ni 2.2530094448215925 2.3383666173985587 3.042482467540617 -0.2978887835975321 -1.1116023107145696 0.5389818983622588
Ni 5.288521572072212 2.1820425922622273 10.509578648361453 0.13124530330194814 -0.7567831324785805 -1.5236174785455758
Ni 5.795889511027203 4.651650043029834 10.657254546380686 -1.2630451720103149 0.40579026996721723 -0.8908751612007044
Ni 8.519088030562054 1.0939708936815258 7.350311626973667 -1.0823660395572714 0.13020297808036288 -1.3871096412931079
Ni 6.971928892142873 3.647867158858233 13.030549972818742 -0.13513101150959952 1.542594276758395 1.03288875876275
Ni 8.31845965670788 4.834896693996384 1.191598392068207 -1.3962954215574341 -1.5364244005022574 0.2250805413865543
Ni 6.398127655288678 3.341629257592764 2.3887002222115767 0.911234698693663 -0.8712874688767639 -1.39018108112958
Ni 3.859225564746192 3.942315959993078 0.4343777089263979 0.14940063405473622 -0.7207100409051072 0.6612314259234999
Ni 1.4033674190954675 2.2769964082079364 6.741766453493373 2.6568157702633663 -1.2977542933567263 0.15325368925223928
Ni 7.331696182653932 6.411347426357139 2.6829242036276186 2.1909725008683107 -0.9347140127625256 0.7821745759684917
Ni 8.739364904633938 8.508450899238522 8.480735830349877 -2.12989157439659 -1.1737260766285076 0.5463817903707558
Ni 8.620600636651359 8.167403101842677 1.493040758670612 -0.7169670289229071 0.8777651061813075 -0.6427259109201446
Ni 6.6929852195486195 5.858207307462368 7.698693006436584 0.35758542812721644 -1.3853453503038335 2.0307814610662898
Ni 0.1576943106125076 6.548942668307232 7.1804315301977715 -0.9926432809791421 -0.7528480590902324 -0.061551438350235924
Ni 0.5708507102966803 5.821743778689555 2.566153584886987 -0.34501350499947675 1.7248368970438166 2.0998562043767643
Ni 5.765836131261586 7.813479266006293 7.682172473132968 0.5977727432482222 2.530038530035101 -2.435193619739058
Ni 2.1604338870582627 6.089242083781106 13.28970765214412 0.21194786065933818 -3.8920022681902 -1.0484848134287943
Ni 0.6182932450067427 2.3422777373000505 11.393869851989223 0.09337295373620692 -0.29929337725454264 -0.5789237288625191
Ni 4.442985757739101 5.6951572709039935 6.463994258855362 0.9361260626187039 -0.6395107464169567 0.11598092094370993
P 1.27561965243179 1.0356571178581018 4.910079380786859 -0.23388168461795203 -0.6590351896031295 -0.8044567844054596
Ni 1.0647907805922514 4.627217156234294 9.851199675889283 -0.7082052235698771 -0.007132754390039329 0.18590798495215077
P 7.248410695915523 8.289827657809075 4.146079732818165 0.7828559183062324 -0.15307731157537507 0.366994123035626
Ni 8.716706421404156 1.2156986943210548 3.277002878507907 -0.1441524982819195 -0.9442191240394835 -0.7487538344162008
P 3.5374453746560315 1.5620139619880296 1.4354720465433868 -0.2076492332839843 1.6733137894638601 -2.2022537302090845
P 1.5303998502902258 2.652027285412939 9.142812251089966 -0.38087088101771827 -0.20405123152008084 0.6588647254635362
P 3.676815020171884 9.085475790738364 7.006661680683742 0.3027209148788529 -0.9356136417586596 -0.1813465908337135
Ni 3.4447862062534775 6.326696299178066 4.205784232274019 0.02248943935176772 -1.229683565830734 -1.0002347201731547
Ni 2.353017059404858 4.721028293443937 7.7169396349366295 0.08785793745524868 0.19750057488575665 0.9359990501225364
Ni 2.431044365943163 4.109388597305243 11.845438837347235 -0.25471070554816133 0.649876663032313 2.24181400900021
Ni 4.165277664591162 1.6051013114016093 5.810850241405734 -0.07990063028138497 -1.8280006116182002 -0.047759783882782264
Ni 8.861650109534962 2.3853279264295306 5.3461608887392265 -0.5020541720979741 0.7137009565771256 -0.12554619603464184
Ni 2.978749793288357 8.41542012799497 4.796327106122223 -3.2223898172918566 1.9517537203081612 0.557321320101395
Ni 8.914584934234957 8.193118018439655 10.867300265232824 -1.2643083549934548 0.5255010902670046 -0.523746312359427
Ni 4.731470333275947 4.882118125016054 2.9270719151980336 0.27562045911763505 -0.5918810603541356 0.1637533032319825
Ni 0.7781985925231814 4.541153938259432 5.941449130866959 -0.6360114750144467 0.5266485736078866 -0.990203304079082
Ni 6.81624588190726 1.3674334243710762 0.27946670359295633 0.42723712698708355 -1.3706216709404138 0.7226237129880523
Ni 6.6433855303465705 6.423155106629813 5.475440588114913 -1.0911203887111338 0.5019544132953162 -1.10941198793147
Ni 8.859364752062831 6.535806507877995 4.889602206233729 0.13105632721959365 -0.7705279928684987 -0.6602256103668048
Ni 0.41781815732447763 3.9528137402512376 13.101933949567124 -0.6291263178588391 -0.1803294624231088 0.06714358772603274
Ni 6.4883063747275775 3.190888565142409 8.849783901814831 1.0833669700179602 0.7248891119834613 -1.0232874882275604
Ni 6.669899393051693 2.0584103270625893 4.531906601561228 0.9023327682183429 -2.143636691896824 -1.2109937027307145
Ni 5.0634045709963456 2.2286415885232267 12.66405667088564 -1.465317457253102 0.29532410819414945 0.9001321610225981
Ni 6.468286271668876 7.617217225533828 0.7535529631011706 -0.6861996658330635 -0.28947150606811434 -0.8400837895804499
Ni 9.367736018688513 8.60047834281138 5.905526284227798 -1.1822533973732283 0.032391528956828085 -2.013153206461565
Ni 4.131127363503556 8.883955570065796 10.025445177039787 0.5242173384585747 1.41914095869704 1.0427468825037525
Ni 1.1204568861735733 0.3362894230168807 1.46417464998198 1.10188611186807 1.1595603266510868 0.2732421886934455
Ni 7.43960035760838 6.298315132196935 11.963011189217317 -0.11169360642226571 0.24904013752594525 -0.1415070902392724
Ni 7.536384317545998 4.291148836907806 4.135501128942089 0.3083300335355142 1.0682087742202828 1.4406690625768026
Ni 5.437097677973759 7.339555582741015 2.999502882950926 -2.2229279707289846 -0.49428224146203903 -0.3521025506357742
Ni 8.47553617759723 6.183703525962495 9.476644450320755 -0.3626787834897238 -0.03291526267078202 0.3123288702822621
Ni 1.76910822527555 4.366974396613204 1.4993905222161448 1.4574647939779029 -0.9718919073644037 -1.0467927704383522
P 2.457056564812939 8.067897151094757 11.00762121402163 -1.406302926392107 0.1166882314233797 0.5173100698157801
Ni 1.3448121014253955 7.199702853531866 8.933065672524831 1.6932616933406965 -0.6970911159345866 1.6482753584379937
P 6.738311476079205 -0.13049019563023384 9.413745095439431 0.6522752451714766 0.35862878179006624 -0.1937159110323438
Ni 3.007316761689986 3.6537199036039327 5.648815609610383 -0.0518969459796074 0.7247348457937841 -0.802593763054792
P 4.685614542696942 5.269764918672897 8.67899244907139 0.5730441301532905 -2.1242929972628897 0.5314308254878782
P 7.8922776484396655 4.708189415287498 6.460675845485261 1.2470459683685815 0.12092798053634012 -1.5906042289787703
P 1.7743199551205302 7.486199353869379 1.8878288299243127 0.019366834562386 0.2295933416552433 0.3317350427230158
Ni 3.9219056739513287 7.15443233742743 8.569034239413334 -4.218652183080826 0.27683864779545225 -1.0801307224688494
Ni 5.375811079422362 1.1603391610835554 8.126711661746423 0.567350679312939 -1.3151004979446577 0.5625501726005021
Ni 4.313881640705786 3.224435011613396 7.6379823922887295 0.11193400456784594 1.0147239149282654 0.47514192108816233
Ni 7.363654026979658 1.9211959780245185 11.614208969536971 1.2255376619831602 0.34434321840532955 -0.05219750793916172
Ni 5.07283399308664 8.653914831346722 4.771295009745575 0.6830464649160624 0.5954165843112198 -0.10503907722022554
Ni 0.46479154344778156 8.204359004379809 3.457108556460932 0.6867244279882818 0.45511919810933227 1.3900589537294188
Ni 3.527328487309894 6.115226412437809 10.813850770598048 -0.5529337325566607 0.4724628315941024 -0.8080581286034728
Ni 6.512126116835473 0.07648794176947533 6.248699649874144 2.022138954899943 0.9886580710791489 -0.5812559765401215
Ni 1.2624927820735776 0.309304553710795 9.58218430219936 -0.33959696196959577 0.45757074497361844 3.4158694439436785
Ni 3.090360706581748 1.9785714566744252 11.02108252693674 -1.2791914427528743 -2.7006785330845875 1.1650362621639934
Ni 5.331423120065293 3.49516626142162 5.404559204208978 -0.26760298812979716 3.2516499997085546 -0.6170544742959695
Ni 0.1719415635363252 3.415931245650076 2.982615391841826 -1.2046340790612737 -0.049228912229141025 -0.014887201524477586
Ni 4.853894889242346 5.436205831155368 12.550495771684119 0.52185269488114 -0.8832706093805691 2.01292772071432
Ni 5.16888403741329 7.609218474381372 12.317293621795264 -1.5407281700839337 -1.455375515549042 -0.2742107232543019
Ni 2.3916823350105756 6.5568485187494385 6.1731416442142635 -1.7166116809205467 0.6893037586796839 1.0032236275981496
Ni 2.2240151331528164 2.0022518477169466 13.36688398817654 0.12304065600396874 0.29652481337046993 0.10916544068377328
Ni 6.232123376144379 0.007173792845443364 11.584431504880795 0.8273961668104526 0.7168359026616816 -0.6307062607514493
Ni 1.414487634112297 9.17487414421117 7.463438679858325 2.351071238066841 -0.3036246576400448 -1.2791999273933066
Ni 6.345963906483751 0.31381581220049626 2.596039743374155 0.4377269707748139 0.05505940286798904 0.00959509988760283
Ni 9.071828676402756 3.189894527542743 7.8855692881525705 -1.2973729987579075 3.3850020649408603 0.7692740658567396
Ni 3.5983325001533584 6.3174805487213455 1.3703012692964691 1.2838201997741374 0.5681353799977634 1.0670126970296527
Ni 2.544420392731289 8.090685695318886 0.033578961719573995 1.5338748946075262 3.27686249441844 -0.6746993785029476
Ni 4.674624388674461 0.06821048848627145 0.07441253990250817 -0.12987207710350537 0.8307416862439176 0.6269056560584365
Ni 8.41558734927342 1.784594773674092 9.576187561352775 -0.26011387884160364 -0.7564856558428198 0.3917993550047639
Ni 4.621336541275519 1.929482721378747 3.2239203416786157 0.3299051886031286 0.6242965005703636 0.7887884817405835
P 6.563528079816357 2.341952584814178 6.7085488755366685 0.5618243501780712 -0.6954960035333247 0.6137814599716526
Ni -0.023201952384738152 6.522308034678786 0.06003150995593171 -0.3052020294294937 0.360777709812269 -0.5578854201349811
P 6.06324846505338 5.309461392162382 1.161144610241416 -0.5878896798065553 -0.08949110218329749 -0.6108565730153739
Ni 0.8021298154833757 0.019402313335545797 12.641228179356103 1.0571262911538764 0.7671361935781305 -0.7512526895786547
P 8.1065717167715 8.77447208303711 12.841565773987199 -1.7236266787857994 -0.6609187797790876 0.7998856200950094
P 8.509909440389434 2.4804303835116386 0.9711087753698538 0.6398079659424014 1.1029824302560423 0.39532125211509334
P 1.9532095627763932 4.318322294655697 3.922056173101932 -0.10532884054650248 1.449696977107026 -0.5299298154623195
Ni 0.9274863178652387 6.469865583743112 11.44786374478606 0.16771820141700147 -0.8423206493307687 -0.9733258115974526
