# total energy = -381167.428965274 ev
CRYSTAL
PRIMVEC
9.23038800717631 0.00000000000000 0.00000000000000

0.00000000000000 9.23038800717631 0.00000000000000

0.00000000000000 0.00000000000000 13.50960587041787

PRIMCOORD
 96 1
Ni 1.3587315410312182 5.883375323711431 0.7484266087979793 0.433338354788815 0.1433199750782951 -0.6011619714354292
Ni 6.243425059591411 7.987626824430761 1.9917616879627549 0.9392838915213952 -1.1601815051748534 0.007123498418658699
Ni 4.600517570178186 3.491984920134809 6.953772626668692 0.8688271802617296 1.0149126339003038 0.4366987866206157
Ni 6.123596165516146 8.225558530067653 9.467005071893976 1.4665179053191066 0.42113409941313923 -0.17509418216609843
Ni 1.662697440799557 0.30055342540848495 6.234250977183353 1.5195389376008281 -0.8511904410165728 0.32328536929376583
Ni 0.305774132733163 1.352971779060569 9.360156872144549 -0.2607376284685316 0.25421293997613637 1.5893644430343983
Ni 1.9705308730449826 9.100765437973102 8.816935629132601 0.6306633233286557 -0.3934937119880514 -0.472382098954838
Ni 3.865944850389417 7.941308738583459 10.058360941067045 -1.2081467202002225 0.800426580200144 -0.7300539440138523
Ni 4.243255411405797 1.251714425185537 7.012485277218219 0.6515427378808263 -1.2093988474397686 -0.5788401680097773
Ni 3.559043687309113 1.5248323690149193 4.619042035400776 0.16661005595448725 -0.40568742584076584 -0.5053894071187941
Ni 3.0107863447279577 4.953782971044661 7.758863662969263 -0.5537893956887365 -0.21169203589479024 -0.37258472974952606
Ni 0.220173362599501 8.581685351143905 4.51485587948522 -0.18066087762059854 -0.00877131843472683 0.11050292854827419
Ni 5.630582693759244 8.711224613156867 11.795655606735503 -1.8336925197966547 0.08793918431514532 -1.3397702327771959
Ni 8.96336188557714 1.3567931595987883 0.8858716979389241 -1.5790399211799384 0.6154660467629272 -1.2858745112000047
Ni 8.35425782679323 3.2277743005068316 5.183270717946377 -3.023876999091502 -0.1251924122396489 -0.34542848104970836
Ni 4.654653794469624 6.254113848633096 6.227563561241469 -0.10707796202712526 -0.5758705438584921 0.1041492184161045
Ni 1.1981135633849618 3.036585278554823 12.95964258044437 -1.674877020185922 -1.159956790758557 -0.19534316222312165
Ni 0.22067088050049138 7.853758510552039 13.055534309906681 1.4720977133997293 0.6393341116297763 -0.27541014287904186
Ni 1.0286344134761685 0.8870679561943665 2.6443971785251548 1.562185311516445 -0.4044941768636131 -0.3256019332420844
Ni 8.936381462115268 8.028794353900464 9.701085859751773 -1.474478297816764 1.353628478816527 -2.436683059800391
Ni 9.255955947608555 3.7610045717927685 1.5212491324812558 2.115975735646446 1.1671296543579126 0.9512356645666328
Ni 3.9188903546580756 7.337493691993751 2.653745715262131 0.09501871686974604 0.5811762723421218 0.8557065837193716
Ni 1.8161987894724634 0.7389866912220454 0.15879589909977218 -0.05680441058355379 -0.418910352288943 -0.49395468291929123
Ni 0.24610521401030455 2.0692037183434415 7.142312527329714 -0.9336740015337855 -0.5731436318456323 -0.20324081980364353
P 1.7121630888776151 3.031822398463709 2.573890861517458 0.16609943486665588 -1.0598138652883682 0.9089034794573251
Ni 7.328457142363518 6.526927189665954 8.25326076985341 0.7039659886775488 -0.9802220244966539 2.8139839640786635
P 6.313889839854127 4.493537375883599 8.042147032853574 0.3770715618762861 -0.276700322445375 -0.13449054971212324
Ni 4.967462405724953 9.262140307416786 0.5827273026824245 -1.3328429095297432 0.42017970591966985 0.9308853830450547
P 0.9181780551460902 3.8209467099937218 5.773073112857171 0.8041402816063054 1.7185358945264533 0.8436254841851212
P 1.0451014252640496 6.059214210796149 8.587367577857256 -0.9801412918573894 0.2824202556482878 0.8207871461343671
P 4.40107658155669 4.840304583757546 2.8705887539529615 -1.7896076136622985 2.4801082208635608 0.39111826977733927
Ni 2.7266842394481388 4.9570689890920185 5.43679254853267 1.1510654018061983 -1.4156815393935296 0.25061828064634256
Ni 6.751280994888062 8.199371919954302 4.507385726660146 -0.02396242435286841 1.3743924508367555 -0.5467489439021874
Ni 6.1497735452417235 6.231213256567102 3.686784869783802 -0.2035524375067914 -1.4923009278204815 0.2765208594447173
Ni 2.342930867765873 7.213086525582841 7.361640386409165 0.7692077313951785 0.9542291999773178 -0.3854055356632782
Ni 3.064544123120682 8.107723399751457 12.355399243861973 0.3425138785060746 0.16940381664954052 0.5499047159223497
Ni 5.076399442227516 1.1916984438823959 9.455832610532958 -0.5650526273073817 0.0965526370157692 -1.5397683772738258
Ni 4.108408676423085 4.020719992575063 9.56085596261957 2.018068127264679 -3.1581263793270966 0.3316026309102096
Ni 1.5677167506104888 3.0333177212830122 10.723046702867718 0.4896000054950213 -0.43019826649793647 -1.2520768459242695
Ni 7.497207091638207 3.351655334814654 0.4015754043952933 -1.7124917452149024 0.7106372300501373 -0.8399881445428501
Ni 6.139481662874298 7.941927174564282 6.905542927513503 -1.1447682559435768 2.482807107851963 0.8796101298098464
Ni 4.94589098949834 6.094012772702155 8.887834237620671 0.7152880985585874 0.7112306406597623 -1.2349514990978925
Ni 7.461642407547004 3.729021278157674 3.033446946711841 -0.2059574474038582 0.45991481972576276 -0.016704714349190585
Ni 5.050415900645182 0.32685449233022756 3.2832803143438527 0.651530139475336 0.7279633800334109 -0.6484419874683155
Ni 8.570470429999132 4.8997021290798655 7.010390902232417 -0.13120133743789017 -1.3404240643111107 0.5700048291063344
Ni 6.740472210805321 1.9518577985792407 7.07858777621919 -1.1290140784331137 1.6684299790089974 0.44761209109900973
Ni 5.923785961383709 5.300808629776265 1.5553203398307105 1.2221862290124241 0.6288573804681686 -1.2544885406895556
Ni 0.010811553199072468 8.25696953966079 7.213926490870228 -0.34044028380649755 -0.7962721917121384 1.0221502892993233
Ni 2.605867693881111 8.820392409353769 3.933754048089704 -1.0820317961463042 -0.041502233008844654 -0.47742891735012616
Ni 2.492684679002748 2.5125669342668155 6.27807593529304 -0.2866489490176547 1.966448860426491 0.8453740914451118
Ni 5.344542207046995 3.094579804935573 2.375272300446578 0.08317158772317289 -1.95194706726589 -1.1036812560952798
Ni 2.7124509815014384 3.728928974279939 0.8021705416090434 1.3678893596109152 0.9019946681526336 1.6608544806545846
Ni 2.9030769497992654 5.64892347426514 9.966171520140676 -2.8381363929551506 2.561527858892634 -0.039877810031544225
Ni 7.27899149428546 8.377296874675825 13.249275534078055 0.18362304557271603 0.7223264934626076 1.3828308114120957
Ni 3.4049423634309304 1.5528373655196455 1.9798194122614314 -0.3873528891976361 0.18764836468202523 -0.049799697130946494
Ni 3.853917655120578 1.5671721577318536 12.857456649559326 -1.1091494782987026 0.5016384247167941 -0.9480644659275026
P -0.10970500476531728 0.7239799267799281 12.143649533144545 0.01757220455580845 0.0504553284370744 0.29772706120868725
Ni 1.8051315545320656 5.060957003482492 11.807084672876622 -1.6839275604239643 1.8829715685374409 1.4127823634688637
P 6.290721566542702 1.2808824505497214 4.955512745713411 -1.4488359146583112 0.4877454687847858 -1.1615817279564897
Ni 6.509057158936504 5.527737713187174 12.77560157078414 -0.30722497339679344 -0.11840444278353802 0.6851447422059879
P 8.565375255948172 4.944127985433605 12.350873584736638 0.5970451210535782 -0.014941966021812974 0.9082002827427132
P 3.3451571418221264 3.74106693420206 12.13327365424838 0.7542734786828493 -1.3554408494349173 -1.012619724101069
P 4.422943370192055 8.651577847364665 7.997132277759888 -0.9110840320484116 -0.8159758407886528 1.154624065691734
Ni 8.239071817768021 1.4311623938896845 3.559942727078249 -2.6716078409708763 -0.3977272904534247 -0.7287223696866224
Ni 8.431442329355036 2.7925707473752106 11.628689891417427 -0.535438918206007 0.3075885273837993 -0.41050258784122207
Ni 0.7872523888895515 6.202903657265851 5.398452286837982 -1.1874583386129358 0.691357555884919 -0.26171181945634286
Ni 1.1570014162418993 7.248798895878419 10.999412820154587 1.8642907042984862 -0.9328085682096966 0.3815823052624461
Ni 6.1864458758657435 1.6709586378568182 12.985554125002071 1.7652525818567015 -1.2664323433149933 -1.0968781171305173
Ni 1.092305628337606 7.197302562490197 2.8366116965587964 -0.3230269734260566 1.2072455485421916 -0.8641398020883891
Ni 7.916617451289411 0.4107513328809059 5.85051052804397 1.6801169284286228 0.1699828290814621 1.1780357597474551
Ni 6.656724902536574 1.3045676255764607 1.630730761862455 0.6971098849876639 -0.5005719311254928 1.1494715749565172
Ni 6.247532582150608 4.554273327433072 5.439048455304507 1.1762447292853033 -0.014780757853600352 0.9745594268942377
Ni 3.086290916714991 1.008862922865383 10.541842191370279 -0.44527341566350415 0.06365074408142586 1.0865551379379546
Ni 5.004263961777802 3.53404779721854 13.47739902966685 0.12550402994279675 1.597179825313759 0.5810646864649218
Ni 4.615766170779969 6.243092765631566 11.404282549946233 0.3260886430705159 -0.1912425097911868 1.3580944850076806
Ni 3.6866814894407396 6.101406313308709 0.827584568265755 -0.1434415882578239 -1.2773469333449678 -1.2561651570610302
Ni 4.4564773689730925 3.5520932053156855 4.485121108311744 -0.031071010373191647 0.01967125317668225 1.35089539615608
Ni 5.384482094942825 2.7766298676904175 11.164554610848624 -0.44351298132897166 1.0729653150686618 -0.007260538217155237
Ni 7.617442122775506 7.051508587608143 11.308445279771787 -0.10604129323249478 -0.20277879256556047 0.02849502211589931
Ni 0.8434119141809343 1.815838804349298 4.717892104144485 1.9552347368782264 0.21883867424190054 -0.2149316258780105
Ni 8.687087149129228 8.3536763123635 1.8168929146330288 -1.1278876781381544 1.3355101719492612 0.5362547292390829
Ni 0.9709629506674902 3.8958420763877064 8.384101516542431 0.2856035384722759 0.15094740971656584 0.9273174631881385
Ni 8.404988037996253 6.185292077394059 1.054908712273368 -1.7078969267553683 -1.1530739475957947 0.030002459899361233
Ni 6.398209432164831 4.9587489196667915 10.474308059225642 0.16371705067740838 -0.7762096166343083 -0.95916417538509
Ni 8.76601619498022 5.155374640017377 10.190876080098176 1.6911855275379586 0.7535995925442763 -0.16214816352839173
Ni 6.985622079681072 1.1023298294596011 10.71403599832325 1.8211560778925409 -0.6972353548219347 -0.3400037104897112
Ni 2.199389107500547 5.46410341987683 3.223202489442629 1.930090119291799 -2.9031205111360197 -0.8307334587138016
Ni 2.668274345617583 2.3467430179163182 8.584854143266538 0.45366935303668315 -0.7005952724331032 0.3530541159157662
P 2.2790104324345517 8.042713778662867 0.9195053849079161 -0.3737070162794274 -1.399928647434647 0.9815962791363612
Ni 7.6478100985502415 6.698206265190575 6.134104038957471 1.3097225214621961 -0.5390528608095103 -3.862895323521915
P 2.8267139517492987 7.082319621996007 5.204048320824471 -0.2873994540304341 0.12258557074442114 -0.6572025072697649
Ni 7.928653876946023 3.295663802580748 9.11840286293066 -1.2136175135068066 -0.894623572499543 -0.58976684222461
P 8.341159906542666 6.793962307952615 3.8708129569011485 -0.05004523748284929 -0.292410019871148 -0.4419636345639808
P 7.80747734625583 0.5643274476947773 8.309042772284856 0.11643009266598658 -0.7861446163598332 0.5880292907082131
P 5.203188048683984 7.299362960101521 13.475264040974846 1.1440041240840426 -1.292601031290561 -0.7956646400351265
Ni 4.474725845601255 8.500421017186222 5.246441645790492 0.30637470958135626 0.026396744825973893 1.1948456322159422
