# total energy = -381176.0704394134 ev
CRYSTAL
PRIMVEC
9.12645179579991 0.00000000000000 0.00000000000000

0.00000000000000 9.12645179579991 0.00000000000000

0.00000000000000 0.00000000000000 13.35748471904773

PRIMCOORD
 96 1
Ni 1.4273587693301764 0.8806615054278188 0.5654147033838037 0.6103233262197231 -0.1101108353161781 1.3724949767037267
Ni 2.585478091519024 8.61748759883228 4.528013186392291 0.030608211804160186 0.48757063376981835 0.5394966332151483
Ni 2.8096693738154457 5.4127615168236645 10.132212976194023 -0.890128255732351 1.0964037485972602 -1.9675449217041467
Ni 7.26469193865585 4.4849573259204885 4.935310291402719 -1.4776507820074745 -1.9294722832021414 2.0174649464630416
Ni 3.1306284218838583 9.016906750865779 7.593956970278832 -0.05659795099970253 0.08631501844816102 -1.3999818692700856
Ni 0.35131180062943224 8.15844533883043 8.673829747468835 0.6514792316327426 -0.7163324806627018 -1.107182327270003
Ni 8.106689232097152 5.862649945922061 3.5637497341967883 2.7891157400820736 2.3730855375544033 0.18052872291810845
Ni 4.107970991793954 1.8585379727535203 8.809621307418366 0.3041411922651472 1.0721389625126245 -0.21526381240644862
Ni 2.542729792464416 6.440427340573878 5.832452343037372 -0.12822991351439206 0.10637347976093293 -0.5719418982280472
Ni 5.569389678304275 7.578121664196497 12.012492894472263 -0.5027170024929535 0.4633336155993247 -0.8189328665344476
Ni 2.5099475785011047 6.971504682650454 0.6674037120868668 -1.5956903852524262 -1.2003966439411586 1.6408512980597805
Ni 6.340401431598964 3.4227752624126904 11.942219217546457 0.7421813234050058 -1.9679886941097846 -0.3260932710562061
Ni 4.860090990382614 6.447755881167569 10.048034237688455 -0.5222303899355328 0.9086695090696479 -0.7012611881518761
Ni 8.969403570554244 1.3608269375393798 7.964614110256267 -0.025224321784427524 1.4489606131616335 2.19113062371273
Ni 3.210503125839009 7.0101917107658425 11.797022849275882 0.6744561521438901 0.5610345072869241 -0.6004384630058434
Ni 8.098867863119825 0.6089789072068749 2.3751206844802826 -1.8119201611165698 0.859230794822546 -0.7819920276440404
Ni 3.5045300153868952 6.734983564311595 7.969208365965936 -0.1840976712162894 -0.11951233113573612 0.9194532299487133
Ni 7.842168160406556 8.934330617252181 6.8053840989139305 0.8923491746430695 -0.3749653141665607 0.7836035951055343
Ni 8.26600057033311 0.6534949999264863 13.055218275923162 0.8989031737115035 0.08403059328935852 1.3430445326530935
Ni 5.5419738178516615 3.993899473885427 0.7986986693583011 -0.5075303647211968 -0.03065809120548914 -0.35095866683931815
Ni 4.5591553770122815 8.851644966219999 9.290330676042235 1.6308373654672041 -1.373941479342266 2.24506156940323
Ni 5.346184052775125 1.2743264297597956 13.258451574882905 0.2972372660564623 -0.09692313298131049 0.39516184371909363
Ni 3.6393277047627612 2.1502649965111074 1.961025285711148 -1.762175999813907 -2.6161445177962492 -2.343255084456532
Ni 4.073573395906505 7.220501660256531 2.7652929158045305 1.0158384881486828 -2.7951454912159215 1.6719899284461142
P 4.31608146646138 5.432337755395855 4.34356029942968 0.16919838550695376 0.5230109768552993 -0.10710238750715749
Ni 6.0316353227997554 5.691428588414911 2.61508795092397 -1.9098951324011626 1.187025364840575 -0.10554918408742467
P 7.467764612068334 7.671713424829504 2.8606789368120324 -1.0943118990652378 1.4039218277544403 -0.14840253180752505
Ni 3.651548023386613 2.9798229364913866 12.589348517517651 1.0088322320341787 -2.2293860676495028 1.697081324197103
P 1.8865653054599039 3.017223134938394 0.464914218928351 -0.2702296271193669 0.14573141273326515 0.42561990309863473
P 5.277160699711504 6.151511263893324 0.3672119045177622 -0.5186028204852746 0.09151995968786818 0.037309277973419624
P 2.597972203689339 7.881740454322179 9.672501747293646 -0.2493337575069641 -0.7587178876074482 0.23993611834214804
Ni 4.473175076970979 7.623078564525917 5.377268746750358 -1.8855758389295076 2.091878071267294 0.2745933034047013
Ni 7.820647987654471 7.518407291712659 11.93771713899743 2.0731879510569584 0.22064178888891034 0.8042320699891633
Ni 5.2132481595152145 3.9259804214592124 9.849194412504305 -0.0730075027059775 -0.01237857617001094 0.8489980613509442
Ni 6.680964097594212 5.575029825361438 11.237344120690501 0.4159114175616192 0.22515741737107675 -1.2129287149698982
Ni 2.10109167556614 4.700551490857935 12.257041639593453 -1.5409734533255204 0.7502466169116434 0.5603858179593316
Ni 6.33185907294928 6.7738713743610575 5.186471150671017 2.5955381543998075 -3.044965444330685 -2.173310307701857
Ni 0.5813650027556522 2.8168336382812584 6.343896862542157 1.5796693272338214 0.4323253401432684 -0.9919987054166078
Ni 4.106821058898805 1.4191084571300554 4.2986654589707936 0.08139469832840822 -0.5240335045825427 -0.93732573935376
Ni 5.086719035242567 3.2096908716511656 5.539001332582216 0.6941181493491917 1.1196208101436718 -0.3814144122260141
Ni 3.734078524742466 4.1568705191924575 7.9648942923188155 -0.44443652158450553 0.16838745956988418 0.37777398725994943
Ni 0.6167528186361478 2.5262200416126257 2.1693894757316308 -0.8096408997095604 0.4662818995943711 -1.599315383599523
Ni 8.484496946863079 1.1990697102883405 4.68201201718169 2.61178315550376 -0.03738563973730981 -0.36722989319551597
Ni 0.6155490396768603 5.127514273665731 5.2481559240442435 -1.1664555111090236 0.03237044591090554 0.26266981249423793
Ni 8.959912060943484 7.919861642441542 4.9187065380999755 -0.7568399538584449 0.4286170380537457 -2.5199945155355374
Ni 8.459380952200762 5.901473870810683 9.174187453632129 -0.6857201550934835 -0.3849234538205371 0.2331548337542565
Ni 1.5510769465257916 1.864388028196305 4.053261565339481 2.1044721058822207 -0.10146884337046397 2.5152415742315846
Ni 3.019094057505899 4.688066505139168 1.261825016428241 0.3677202025683731 -0.20314337499383078 0.3415098627215925
Ni 8.655088579213361 4.462871313172378 11.838644944209367 1.1253248025069844 -0.04028275877944675 -1.1929484151932293
Ni 6.747988757768644 8.875063440894234 4.825057280822213 -2.03722875935353 1.5264636897451194 -1.4584083888380948
Ni 3.240985474012022 2.08564971954556 6.367139196701501 -0.7905455736410063 -1.8629115645627723 1.808349413046176
Ni 8.208887236540681 4.227052931602777 7.232022892691743 -0.08215523064351658 -0.775337241331684 0.49380144517087854
Ni 4.332947148923574 8.265827167753683 0.5011991649960943 -0.43913079310087594 0.6774849116678848 -0.37918038068917276
Ni 6.600578312352328 7.855876090632862 0.7760568557108681 1.150317210786264 0.86099842824593 0.9611416108264349
Ni 2.853038271575372 4.083785895189618 5.613856488185523 -0.42577159818515053 1.3098829582994602 -0.6905006072012625
Ni 3.148361117243189 0.544291531274092 11.930971778657707 1.3869510042280566 -0.30987475231481476 -0.21080757640730793
P 0.7797631076848381 7.339848267160268 6.557002244142243 1.2097760282735293 -0.04722370887365415 2.5473037448734517
Ni 1.3038048682624392 0.5848385302151278 6.396271742690444 -0.718058462214873 -1.386865900713418 -1.0248987985787381
P 0.4961933063215741 6.272153826916991 12.984890752933216 0.12625402073494385 0.055027778299105226 0.1416904098946721
Ni 1.9569028675465525 0.8443053730379949 9.630973654811115 0.18301369412349125 0.6968892843364256 -0.45626565300894967
P 2.0209249251614274 3.0479336444001266 8.334843219656065 0.17524176348755627 -1.7902339343923876 -1.2281545307807171
P 4.825373968690956 1.4715764270841418 11.01383367167962 0.5297200134443586 0.8395520854466961 -0.9487946592253079
P 8.361472379985171 2.285363858788084 11.191354106045758 0.1499238535480579 -0.041458781365418924 0.4514075535857
Ni 5.941748901495565 7.756269998429193 7.27256259047154 -1.0362702736404734 0.0029318289348143054 1.610536449126323
Ni 0.882473106060257 6.833056412655065 10.840253126447102 -0.41243168654313483 -0.846134109539588 -1.093538511234323
Ni 7.572536275848628 5.645778077767782 0.24282293313330947 -0.2759019949137958 -0.2541180662694849 0.28657721523945484
Ni 6.634464826953044 2.2875450807082487 3.7933119332296825 -0.8762977776071617 0.12529448503515198 -1.2141767284443865
Ni 4.487512732354154 3.72281648353124 2.993425912524882 1.313399970313783 1.9594693437848643 2.673150502867648
Ni 8.132946033203067 3.0923338311850683 0.3152486273343249 0.41512954509027217 -1.111053894410267 -0.9681226701299585
Ni 4.513824292169362 4.89405964304727 11.92985013776236 -0.11040419818688083 2.1035830184090485 0.8153142959452538
Ni 9.06002010798234 7.8955396490639735 1.2694483414069588 0.2743737311947275 -1.4762819266844058 -0.9773256767854652
Ni 7.664567413266789 4.221467543254907 2.185431039618967 0.011434467089186759 -2.4686436718673868 0.8294779890401457
Ni 0.5358468256559817 5.386586853781689 1.7203908756592425 0.8559600944910744 -0.24951913404489284 -0.8553689978742947
Ni 1.0789564814545034 9.111438536008313 2.932943092820634 -0.2319890955809295 -0.09404581143351545 -0.41163695855598137
Ni 5.437001372137294 0.2001540342071763 2.4964203520154644 0.44791059617603507 0.6012470749500677 0.07142036072451571
Ni 1.1182549818236625 5.216524555621236 7.607100885799422 1.589790217717907 0.4132616386435979 0.2945664040925185
Ni 1.4381371086093162 6.808068188314435 3.4828975872807604 0.41505781131207226 -0.8905144354271759 -0.6746790667879735
Ni 1.4073718404382909 2.0908061646706355 11.8401006132314 -1.7544444354976043 0.5960956126561153 -0.3142499985643749
Ni 6.531646223804195 1.1536747402845788 8.51555699941913 -0.2351330405265499 -0.192628591505436 -0.2562759931527522
Ni 7.514053974323879 3.3249579547125867 9.461894275482468 0.5548589746038315 -0.16809203981665244 1.4591064433463838
Ni 6.140367866552231 3.7839728353597892 7.805339277826503 -1.813094641040645 0.01328797535815776 -1.9139765015593875
Ni 6.886154107766019 0.6077139810222103 11.355318109281297 -2.3637737732351742 0.7041207690878584 -1.4180852637390158
Ni 4.770231948433069 5.4782803124925445 6.487369244115162 1.5601680239761002 0.35936437440451013 -0.7572312757595926
Ni 1.7712069578829948 4.125183479415003 3.5134593355822474 0.8351598699162712 0.9782646436599668 -1.0330911045815434
Ni 9.064026620212266 0.16954026513186113 10.641413301262956 0.1198810273290645 0.37395307085196244 0.627336572948268
Ni 7.059784848482056 7.964563002127594 9.72486293776461 -0.4030353329298995 -0.5039637304158612 -0.9349122448162608
Ni 0.6413467802698705 3.8459596942792804 9.581042838387596 -0.16929891564056004 0.2201460801994144 1.4720527190944066
Ni 3.0199701968545845 3.274789850548799 10.47763730292932 -0.5039045950431515 -1.5505929786931554 -1.4671262283270667
P 3.031752445804093 8.76441434231651 2.154121834935633 -1.3653748207191776 3.064734913648128 -0.5546131771416126
Ni 1.475281766412957 8.280365605070932 12.474555097291613 -2.5293314766657473 0.8369917809186875 0.02108227459159595
P 5.248092951528557 0.9959331517150143 6.1242195231817735 -0.45058994278041115 -0.7277546064567144 0.7017239867209075
Ni 7.966552568565234 6.4128289510902885 6.712229495310111 0.1603458202123303 0.32763361896013254 0.901031532908416
P 6.518878318087416 2.21965340763668 1.5227128477572571 0.09381621192121262 -1.0613074191147593 0.8484804982845774
P 6.301495368646403 5.871849409083258 8.690593213673681 0.9927384117961096 -0.20998508050601256 -1.0988810064931591
P 8.826437707042196 3.298107934255999 4.0367253477782 0.18758305866172856 0.22381555863120164 0.41410778869397713
Ni 7.105289335904402 2.0634906951850587 6.158615293778914 -0.21004524431998664 0.982439858083579 1.9142207563597098
