# total energy = -381166.1208556832 ev
CRYSTAL
PRIMVEC
9.21026121466508 0.00000000000000 0.00000000000000

0.00000000000000 9.21026121466508 0.00000000000000

0.00000000000000 0.00000000000000 13.48014827514433

PRIMCOORD
 96 1
Ni 7.403465717316765 7.69011667189915 9.270755884145919 -0.2416443592825064 -0.9693927950916338 -0.25089338868460015
Ni 1.3151976468046425 2.9679237302182453 3.756216157885067 0.8886321308027987 -1.804006562696448 -2.7039255792669756
Ni 7.164358130261747 2.6109708530600364 5.79367326577624 0.7678645871037227 -0.35907975328455577 -2.465713642704786
Ni 5.188812397132096 1.9854928150609885 9.129389429379536 -0.5556752998575397 1.9316942305541251 0.3425210775949262
Ni 2.3864431092432645 1.6568799111460406 1.3404807344062268 -1.8820503422747523 1.4495717643830712 2.9719000918035787
Ni 5.115821078330393 4.327459573705714 3.285597607087038 -1.3304343000882506 -1.8618003337764646 0.33031759355019885
Ni 7.307568479289847 5.756376313664253 11.560507830859967 -0.3266329456097601 1.6900280168947475 -1.759362955845144
Ni 5.11523162162335 7.042644530518593 10.117107034378076 0.03507370377468153 -0.644190154170497 -0.16758913203830492
Ni 0.865965322158986 8.887616392777362 11.938989693216786 1.0493409907815026 1.823111401846699 1.3839142742842616
Ni 1.6742688840037838 1.3654212002968427 10.165729844500214 -1.9595166520830314 0.7944996731927478 1.0175287313669121
Ni 8.976845401805868 7.064076807976202 12.888854967362173 -1.578388660749185 0.3094530913963638 0.6172359941791563
Ni 1.3792826431733807 5.656923914872986 -0.06155401663287595 -1.1751599808615567 -0.3352839364165387 1.0579361886496812
Ni 1.318384397127089 1.6554891617278629 7.784731841588252 1.6247613344764533 -0.8431881395373865 1.1485830017039769
Ni 1.9388888941604692 7.812088158951637 3.9326718651903425 -0.4688907979721279 -0.7896215191648401 1.2228043222123974
Ni 0.8255599069434566 6.178418105645381 6.108879713710398 1.0438992509406408 -1.3274106827705785 -0.5496056966246923
Ni 2.594972629620471 7.12443164862069 9.968839331008779 0.48080040492552034 0.021221885493253774 -1.1535879111177358
Ni 7.721440769721812 0.8090182781020863 2.4166536865052795 0.5595890330896492 1.0648187747021274 -0.9663360105431807
Ni 3.3723186620322987 0.5090391547578152 8.919288638467622 -0.021713480417691635 -0.2808583104778066 -0.33525462584050003
Ni 6.050156010297429 5.647953120612688 8.458712035289716 -1.4805515005940373 0.8356386093249029 -0.3943959120873466
Ni 5.304336701451308 -0.004382242206416444 10.159582916277092 -0.14656856392257983 1.089951050993381 1.5969031746136046
Ni 5.511954405984809 4.076139180501667 12.49292979160743 0.24192640929929948 -2.072417391439521 -1.2862437216139655
Ni 6.113642339698077 8.568434796175088 2.998523901522571 -0.36950814770673135 -2.1659731506104953 2.851596375114799
Ni 0.610467154543778 6.657471413510741 8.604459811236412 1.8126210438383363 0.982549901298882 -2.4804247236627153
Ni 4.081591655041807 2.707752276147519 0.23374537307314341 1.4494995163842392 -0.06271254853787264 0.37858645585891576
P 7.117514742573993 6.551894191122865 4.807249702454877 -0.6892402524316 -0.6182603216786127 0.04263454684107496
Ni 1.3609081723835512 8.031669992585883 1.7186245801826006 -0.4103282670468869 1.542216324593686 -1.3742083598504076
P 0.2645785639819713 1.3578687862378653 0.8601591735946209 -0.718388334750466 -0.7835704278747537 -0.21441971923859848
Ni 0.25416360078942046 7.331763835061716 10.67528016874617 -1.4511686765565461 -1.790342177835478 -0.6184413273411672
P 2.4197289926690506 0.7077090906836367 5.495263570914468 -0.1301934649986661 1.5377827143023644 -1.3853219532650658
P 3.002324055230783 6.885149066605769 5.625212065060223 -1.153864047597258 -1.2732979600865748 0.5342693233779379
P 0.7295042524265201 4.508920136864219 7.681002197566511 0.2582097198403553 0.32533608117520746 -0.042169177168882216
Ni 2.278240962456841 1.9009702494277736 12.612660422147052 -0.5017618376685359 -0.8100988131825855 -2.8264093343262098
Ni 2.7764976646063086 4.219515314228621 12.370138591321714 0.4399797713647326 -1.5142342375584632 -0.6053310152114543
Ni 8.195603428970932 5.3169731796085244 9.065871785091325 -0.06597296445669928 -1.4064340526533328 0.16113874842727086
Ni -0.06373316439672237 3.2341923771024392 10.249872947378273 0.47386639680984843 0.25300323593875135 -0.32178024550314904
Ni 0.4769091590934946 5.260109027901052 3.1886080320998818 1.0559998908589168 0.3356256360266736 0.5086194840203175
Ni 8.393191159223669 8.90394618561464 7.4074629706113955 -0.7076336673371233 1.7603322617369488 1.7929595608536673
Ni 5.012030646585737 4.012026553349786 5.739604428296695 0.18443628550263075 0.25152819405512167 0.045636309781876244
Ni 8.419127254333523 7.679331456212489 2.837921816558415 -0.03698146232035566 -0.697160021499309 -0.7496249241672445
Ni 8.571962326156294 2.8026087546760663 7.851579916271251 0.8454813064469374 -0.08380896419685566 0.7270632368166446
Ni 2.8190767014290565 4.55025578844555 4.585892130490667 -0.06517875069017807 0.8527102200952088 0.1577412927099477
Ni 3.498858438564362 8.686003778446853 6.924509117192405 0.8974168189739641 -0.4867766771136133 1.686086001527864
Ni 8.685819573225903 7.9776057602368615 5.145251546481681 0.057739263692997346 0.8737485288227468 -0.9947410440484351
Ni 7.687418065412223 4.71657468244191 6.457112315708803 0.5218606653009399 1.311923642878573 -0.6426336083166546
Ni 6.819608848991521 3.8231240992648745 10.116972564566781 -1.1038008123922796 1.2409586245239208 0.24968291331626677
Ni 8.39528188848146 5.4998889640125395 1.2154182837461882 1.103869460846686 0.27005324944250264 0.47753227569720985
Ni 2.769912327957323 4.200017191590993 1.853951866780115 -0.20525167958608523 -1.9515557453647423 0.8901935617526475
Ni 3.120178555595022 9.196021983954022 0.22814369230403353 -0.2564361728797003 -1.3639979949763088 -0.7181155407050536
Ni 9.242404858589401 1.208469141785824 6.0412229781074265 -0.10123307321057404 0.7896965953771496 -3.186099981721887
Ni 4.279335959732352 8.481250465099137 4.9002899175048515 0.8702664838114174 1.8653266017621681 -2.4817413855916097
Ni 6.224847031585997 3.217752061132592 1.287619362150013 -2.276694622927479 3.0240047829186176 3.112117773807466
Ni 2.3826853227358713 3.441266676234135 9.35543870832136 0.4088141443952056 1.074869216959594 -0.0589134865067566
Ni 7.448945986369486 4.28931067244683 3.9338848565703026 0.17012629663786183 0.4035544386581631 -0.011032089444445517
Ni 0.48442841621270094 3.8577638910646477 5.433429562345747 -1.176412108101103 0.513289121581845 2.1938400522240924
Ni 3.973361877472241 5.553851883490038 0.4055001631397578 0.4842395125140564 0.7561604112929171 0.9508651686010914
Ni 3.297807650157753 6.15911339848975 7.676890737034893 0.06606115329513139 -0.45659089755885235 0.20535915169822697
P 1.402851701194019 8.793294109389572 8.78127840282696 -0.8688156102975036 -0.29102239549500203 0.3621787039248537
Ni 4.997321859692827 8.045494594418232 0.3490403418922726 0.1318834511065793 -2.5343345863072937 -0.7435010706576938
P 1.5524355508670107 5.451286416464706 11.210778561441339 -0.65295375929574 0.5458048348213632 -1.938326648268978
Ni 5.510093933253207 8.971577132486678 8.017668553741423 1.4563556200741241 -0.6575195242895515 -1.4220977273325184
P 4.742823926427381 6.404308968097188 12.096032933312173 0.9462160998648543 0.3133439418103378 0.34488289295888347
P 6.872853368107313 7.517184810470662 1.1251125952012269 0.9297461272342891 -1.6901910248351733 1.5174283190157285
P 4.3311068370805375 4.12829688881385 7.874374391337792 0.3763917622004421 0.22073177749955533 0.9667275895546448
Ni 3.283015970915414 0.461836566889206 3.067138504274486 0.382080070834471 0.796943249637234 0.6752362248430243
Ni 5.40798897928025 7.09261940696251 6.321043603096961 1.3446596996590134 -0.577092074970419 1.5325281507716444
Ni 6.216557796643217 6.11527255590349 2.7529829471258513 1.7700471750318676 1.0319423356890807 -0.7444788611899308
Ni 3.1529855054463365 0.06423696567602245 11.251097400203022 0.6206455340813376 -1.2954439000559947 1.0892843639436596
Ni 8.554757558519501 0.5555887351181543 9.641540731345312 0.5568209834262089 0.4815704503223255 0.578307692545075
Ni 8.63765911820835 3.251397144739232 1.8462272208395487 -1.0314021469148946 -0.5571930220536468 1.7510495508834425
Ni 1.3328905582769544 8.38721369980382 6.571477969188235 -1.0129012598972298 -0.012765784306100597 0.35555939883612314
Ni 5.489730046077111 0.7545036639878403 1.5708146267873637 -1.415708278866407 2.5497144111974737 -1.4710751856724857
Ni 4.302149776347092 4.796363173896692 10.72410468358525 -0.017264443507402527 -0.29705111818758523 -2.4098877939844177
Ni 6.594279812463614 9.251523017026459 5.674818531062239 -0.18270747573698212 -0.008581056800791673 0.13718069494977664
Ni 2.657307676390178 7.167194890664388 12.211464213994807 0.6214268923320523 0.4159975495175222 1.4690051905173345
Ni 7.895652857435908 6.856836724145651 7.01029717269355 -1.3181107455258914 -0.8166988349976063 0.2786564177304814
Ni 4.3851526489074635 1.7430419032457165 6.7248822351437445 0.4045450847062065 -0.31991979525564257 -0.5347516623309951
Ni 7.266251248230612 2.101339478516865 13.517488440796107 1.0333055345851945 -2.390958304069766 -1.0759084568573858
Ni 3.974282903576994 7.457198380268076 2.524387031004384 -0.757653965119308 -0.44141290426683333 -1.177602014644146
Ni 8.141318150356769 3.8391499534875826 12.39162613034561 -0.03467569700531447 0.8291082644055527 0.2813095390826123
Ni 6.434269947284815 3.4733644359847893 7.832006269493033 -2.1741371744785267 1.5408526114769399 0.6571078906734296
Ni 6.478644985011831 5.550361194553024 0.19843415324300467 -0.7338167534903943 1.6077074643179603 1.0572916130871468
Ni 8.915873473671196 1.6430460990526452 12.050362932881875 2.335412962704294 -0.53532116168122 0.27840059296593345
Ni 0.925640445538165 3.3643794170093253 0.22970483155159047 0.44560020287530355 0.4376380106054334 -0.8130442689641546
Ni 7.689416692059538 9.016246898567216 0.06858512991656303 1.404572831074878 1.1664763370446298 -0.33195821447741536
Ni 0.5601211045796456 0.5405161429138657 3.5229285347859864 0.8800467031266327 -0.010520439915349622 0.20714786816753356
Ni 5.473123945408408 0.6484327716078159 12.57351404961672 -0.7431521719587072 1.5571210096196602 -0.28549375236728897
Ni 2.6116708328996494 3.3888142395684318 6.911878165191816 -0.8105901509967073 0.8094249270440126 -0.9802035125538926
Ni 6.964053372999989 1.9245393074484118 11.105215154445034 -1.3368679715287364 -1.2907701487294094 -0.26246361002070284
P 8.342396569546521 2.2265069261528456 3.879734968793539 0.24081080763761756 0.4819203774625765 1.101244107408697
Ni 6.992374925721155 8.629655401358045 11.351012154098873 2.2381175339852293 -1.3329997468225816 0.5922171035373156
P 2.1006118678941097 6.135461448119685 1.8294046790362286 0.6911858061937451 0.8744414411247134 1.8627734963230114
Ni 4.585254780426177 6.223281287207916 4.392344020733378 0.2290752643682442 -0.7909001287669475 -0.17777147188794543
P 4.362707242734625 2.5329875727705704 2.494757621214468 -0.6376610948027276 -1.2244184607770527 -0.4552076440580805
P 6.73611783259563 1.5115696225991044 7.45363216719047 0.05258214497209009 -3.959443332551994 0.7639948197356713
P 4.217894308284255 1.8865746114104787 11.137850793440863 0.20120527743085348 1.1695806870015664 0.4259801146515309
Ni 5.772374537103818 1.7636728879921915 4.153556950762815 -0.7694157336409265 -0.018355876799368388 -1.372969859457616
