# total energy = -340853.6748153785 ev
CRYSTAL
PRIMVEC
9.42656794382004 0.00000000000000 0.00000000000000

0.00000000000000 9.42656794382004 0.00000000000000

0.00000000000000 0.00000000000000 13.79673503786498

PRIMCOORD
 96 1
Ni 8.128840708327928 1.4240904888117665 11.60069474017973 -1.579135051996906 2.0035691623175556 -0.49297560683547353
Ni 6.146084663890837 3.6316607547304827 8.256890266094889 -1.5472639143199225 0.7203683412949723 -2.1141021727728173
Ni 8.097987551092434 0.9802499586326914 9.423887136443208 1.5199515996582147 -4.001817169532514 -0.6282076626993116
Ni 4.561846210436892 3.40535713549658 3.0251553662392396 -0.17700965402125646 -1.8317222834441615 -0.09625516038000842
Ni 1.2613030851149172 9.466065372536853 6.554290881518239 -0.06250326074054396 0.7825116475929362 -1.4614224930740702
Ni 2.896935187590531 8.545589281924414 7.967959356691274 -1.085932416752291 -0.8371216216283325 0.5077165125900739
Ni 2.8707293284048667 6.416202971432281 10.328552987118167 -1.1887184362722818 -0.6455248138215205 0.476294803745683
Ni 2.202470492602369 3.767620145750209 10.602707751099647 -3.414846144885487 0.7936077575060978 -1.416989716681992
Ni 8.159684438995372 8.58029790549334 11.162565767583603 -0.30346884878847097 -0.9843306473483886 0.24972507940811187
Ni 8.982397592336401 6.876596555111366 13.706159248925294 -0.8848924612547082 -0.11833913676324136 -1.2331057041384053
Ni 8.332096368673719 4.4368027852218415 4.198098515715011 -1.0825102784446194 -2.188894021072727 -0.3417654303758243
Ni 0.2074768775196543 3.0731460241939943 2.4662909100280075 0.2666159416261795 -0.8288079595563146 -0.3928493935358331
Ni 1.6837264526789453 2.0847420841959794 7.137892537612572 1.8221066147312683 0.593645608453726 0.21894151836835196
Ni 3.559358977768595 1.7389190086257316 12.32202986740125 -0.2035606650369075 2.5423101483136024 -1.180875028968463
Ni 4.498339421467891 8.521315869189491 6.008009008343346 -1.1145755344102806 1.722514676668543 0.7378914377804002
Ni 8.923707779642175 5.034805409329822 10.212743827967245 1.0203194067381718 -1.9845116314654725 -0.23482167993371816
Ni 1.8973419113143208 8.724826046872696 2.813140538859161 0.6472911616933239 0.4334445413493761 1.257834574343653
Ni 1.6360845777421293 6.0168841221646785 12.692168775262658 0.4100603580974809 1.4899897631888015 -2.033906379848516
Ni 6.468727808620239 2.6671720178814 4.583855361525629 0.7199605643335923 -0.02192379665628482 -0.393620981594535
Ni 5.255471940868391 1.71174221293067 6.456789060181877 2.2493625107714292 -1.5220786733035463 2.4673627482724347
Ni 4.931999258150377 0.8370669885144129 4.005606110771447 0.24411081854512795 0.060978339455585305 -0.1578536499180959
Ni 5.685926744413061 8.115285303468582 13.88434400887893 -0.1376200964800404 -0.9853639737089095 -0.8544858239383929
Ni 2.751002487571369 1.3951320717548017 2.2017936650162073 0.8521697742107066 0.6070788511404964 -0.10106877971856787
Ni 1.181290375486169 8.250782792653741 10.016057542897169 0.5288455812592053 -1.41488655429606 1.720167002371973
P 3.0149935258787557 0.5462064606304731 5.418654317766634 -0.33183248753282846 -0.12156201457591323 -0.6110067254399929
P 3.228816369011284 7.423271516174042 13.063686790030129 0.7255506568268602 -0.13284170125479058 -0.17656639583625075
P 6.813023780165999 5.172452156030928 6.5040020262723095 0.17662681676054098 -1.6155393016575532 -0.4034762771220599
P 1.0451047468331849 3.8802393542721996 7.881039800650535 -0.5410261824857973 2.908240348861088 -0.14317599330126307
P 3.989135068413493 3.300693950410813 7.246817474114828 0.11652728036548318 0.9350179171561896 -1.4953577123689343
P 6.568517458022916 4.0672530378637095 2.6993448946442316 1.16985605215014 0.002696315885240518 -0.6983342443130682
P 4.615530515495295 9.35968655206555 2.0591489519337207 -0.9540456232116021 0.3458928222806365 -0.5753262413192479
P 0.23994857648974732 0.24472973180592322 12.043307931198383 4.236802371627291 -0.7726350119091726 1.9234294194421715
Ni 3.448323432679407 6.4072100255102935 6.956547992047773 0.2838580165360789 0.8410078440566161 1.1008851814073815
Ni 4.740130892011882 5.270083121349606 0.27436874707627085 -0.2483865631023464 0.41690334916124333 -0.309181582902532
Ni 1.8980489039182507 9.019858773776628 -0.02497569205482667 0.4027977629977967 0.36862805909462326 -1.6123678459081072
Ni 3.530136616806163 4.53517844941666 11.999779810559634 2.5376245699124746 2.402680734713017 1.3164773236875265
Ni 4.770333616051762 6.731945868347328 9.026127441531472 0.7241836012760045 0.11463212022529934 -0.029747149355445538
Ni 2.831844735188728 4.4088812906506405 1.8889107888482566 -1.0341766243362382 0.6487741739967536 0.2164485767431692
Ni 6.668740729556005 1.5217874401068119 1.4592940072034442 -0.23987569741785786 -0.03337420458507155 1.08205133653033
Ni 6.631185282435254 8.709913216213804 2.359173046621396 1.2350677129607828 -1.056282455096342 0.7049957154936439
Ni 3.655434559358629 7.459893733057606 1.4291902621281132 1.3324194488390795 -0.06047748855976682 0.07496205532918704
Ni 4.99374327889358 5.711651848628053 2.7756275112946462 -1.4549029467879975 2.340719205408556 -4.234269577903108
Ni 1.40354057045754 7.348943027080891 1.2391280264284577 -0.9967105090699802 -2.7592716601374483 -0.4720869363119225
Ni 1.2793172566630484 6.229745455355862 8.065847667317783 1.3874289723057396 -0.9052193457375184 2.84243861987493
Ni 5.942225703189692 1.6765057015508091 10.381960151075829 -2.0527618219921226 -1.142074768271814 0.33932005415912525
Ni 8.500775377403317 7.153304033721436 9.181727087088367 -1.096929539193743 -0.1691413070167732 -1.1590355644958683
Ni 0.4508190185082646 2.5269989509422515 9.395162498273942 -0.5271309125609438 0.3349419796960877 -0.5722074931846081
Ni 6.794698531872138 6.391222566093428 1.0413925643341508 -0.6579689531221442 1.3852862149311238 1.20275948774638
Ni 4.67901845132819 7.951046208291663 3.8521726905529916 -0.03400669596274789 -0.7091210505159271 -1.785527530055654
Ni 3.631189426327863 8.38777910615923 11.101832274935619 0.528279167232774 0.8072042652436098 0.2753170689446033
Ni 2.4643688328021236 6.414864398768841 3.3303386216219923 0.8376152734352993 0.1736214542753139 1.050729643598913
Ni 7.701355273719764 6.471376674242962 3.8237515878750137 -1.390315035604283 2.026917350125193 -1.8996760257763154
Ni 4.45142339227111 0.5197988728884871 -0.04296346921241121 0.1151327140108017 -0.704763801988496 1.6440366377662976
Ni 1.3182489827194492 7.383566811537345 6.217760516734044 0.248393762191198 -2.253398885624332 -1.2708469274429208
Ni 5.596261229098658 4.927417946076911 4.53930540091 3.4141275215519076 -2.0490859158024324 5.304058037905684
Ni 6.7496018303094685 8.876188450090039 8.362007811760781 -2.584694269706768 -0.04361593691773779 -2.2358945581919816
P 7.450240927371951 0.857734738969294 3.7993311206784735 -0.7140645105641314 1.8514734979291596 -3.6099319396821636
P -0.11585629199118389 6.823949172538727 11.207667182430297 1.2642834152927904 -0.7231060519411094 1.664196400543624
P 3.020922837183713 3.5883079682575074 -0.04060117125848045 -0.6249901842032786 -1.2128387263592533 0.034522202146585704
P 7.7425588026767915 1.5954654960043495 7.494290337223999 -1.556858499986893 0.43987872701049396 -1.5489042781368227
P 4.5668422915046625 9.302109074401509 8.8468388304589 2.3147677756501164 -0.07678368191895808 0.8113185445222996
P 6.081955721430377 0.1908917736882665 12.092079108987877 0.1699028677731461 -0.3115781081591666 0.4589586264600805
P 6.877548638484658 5.29317821307798 9.582053636480772 -0.4817985071727315 0.49457406167084494 0.2620578899418519
P 1.0357441647571544 0.3759164514207209 8.783553565839131 -0.39995463712204665 2.3138151819288604 -2.0074931799623106
Ni 9.461352088510655 8.058075461958582 4.37433763202263 -0.1440481114935713 0.7474947651981191 -0.8647290989329559
Ni 8.64819747517476 0.9090539181033502 5.399117755478042 0.19495492564576747 1.459502393233222 2.7901074145713816
Ni 7.847278547170873 9.259123924082576 13.61581879133834 0.3163068810934036 0.43522245918540525 0.15953103762051882
Ni 8.670708119683884 8.995641920450018 7.383060604832932 1.2492272922906162 -0.561544099933491 0.041180845113683924
Ni 7.738411112733736 2.648092644143347 13.311669630470934 -0.09167782542197114 1.9975543235820437 2.028909697964873
Ni 0.557216692115673 3.3647003474865906 5.364004732139667 0.6686922530769194 -0.48128917163648083 0.15805676706783747
Ni 5.777496426474048 6.961869289713351 6.765050090033737 -0.09095071744795949 -0.598190290401615 0.8261286129519385
Ni 1.3144500757943334 1.685046172206281 0.12865568609272895 -0.517659996956031 2.01480591157364 -0.32363941019907483
Ni 2.625186083776022 4.66639627670603 5.760537087890981 -0.44391664452529356 -0.9239719437546733 -0.5278081411336264
Ni 8.28180562811418 4.801233906127521 1.214946051403643 -0.5693258007614388 -2.213771758151013 0.3957758231540087
Ni 3.3668024721622754 4.581981359796813 8.896742139071486 0.768076960224845 0.23551639200789762 -1.5503613222983235
Ni 6.098546481202597 8.264319344376982 10.303443437796997 -1.8641994301362603 0.17237292658019346 1.7617486824685014
Ni 6.016393940625954 6.163014780112942 11.430208658354488 0.04331126119312541 -0.7445202559508275 0.47380391900302915
Ni 0.8427276426298775 4.390735147149776 0.06266405378511636 0.1626410440044102 -1.8717163073385958 0.9593796338300059
Ni 1.8141335951158097 1.6628277513067806 10.947516527947457 -1.0134676739236612 -3.62015901672681 0.8557410365017326
Ni 6.860043501611356 8.901677890103722 5.072397620065977 -2.1929159977479262 -2.0489763868077615 1.433353759862312
Ni 7.892969122520844 7.118350319383146 6.036802460459393 1.2265990133681393 0.44328081071350756 0.5517194005335854
Ni 0.8992408607608047 1.0650702179681624 4.044002407762472 2.1457429396065497 0.7936257552282268 -0.8019592147945867
Ni 8.955588432795382 5.3867274744299705 6.985839166956987 0.017917246600053015 -1.9390167323574672 0.4003418452581364
Ni 3.8199281718729616 2.5151120486281786 5.088484058447394 -2.582547141456778 2.157426289481749 -0.7376564389514587
Ni 7.600274184493907 2.9769478972192798 9.704168227001944 1.1097128070013405 3.747892450220758 1.537193417457798
Ni 0.523439413470323 5.4730277049496685 2.5491542138358008 0.14188118574923952 0.6181572204418451 0.7742013279550278
Ni 4.919179125599117 2.7857582439805575 0.6523251078235305 -0.34963146338746237 0.8788238864631251 -0.32701166910541746
Ni 3.742950817157085 1.936085106009674 8.826544372098894 -0.23195001481287797 -0.9353953551002664 0.6923101496061754
P 8.753916435882394 1.4353458110663289 1.177940173200347 0.9681864334883585 0.6594110848853095 -0.24520379449899057
P 0.30074239917326806 5.82354521141001 4.978482607873554 1.0942825884891993 0.6162589749778677 -0.7670251219215629
P 0.2685742356944622 3.2496019515668193 11.878782268352673 -0.27236878494955674 0.431484846519844 -0.3836330171438877
P 4.274156780045778 3.134635527599782 10.56930659251959 0.6840144852562865 -0.38655738987953425 0.1199509613350515
P 4.059985153895312 6.205142112739105 4.897136981522197 -1.6484517361148578 0.8024600656904051 0.472855953267463
P 8.793668273359355 7.507394209473636 2.0125845337252937 -0.7373196244373301 -0.32451178550169923 0.5977514030919835
P 2.0973454056820344 3.1114273170547797 3.583950065846884 0.1334777921768927 -0.0730373275026484 0.6044938640221396
P 6.845997915213284 4.850921346331708 13.34031131484134 -0.9721672725129773 -0.17352323813455278 -1.0656839509159002
