# total energy = -340864.95572381956 ev
CRYSTAL
PRIMVEC
9.26727271942876 0.00000000000000 0.00000000000000

0.00000000000000 9.26727271942876 0.00000000000000

0.00000000000000 0.00000000000000 13.56359037516726

PRIMCOORD
 96 1
Ni 5.081727400736576 6.648155934035812 10.578922381260593 -0.4360454693073329 0.10084406530227148 -1.1409673941402478
Ni 0.480440427167524 0.0010805639715472633 3.693298150204921 -0.5757129352347052 0.7845934698226295 0.6586446390329301
Ni 3.5527015791797494 5.882957245093637 8.13027360246416 0.6668312886087807 0.7894351141856468 1.515367579831958
Ni 6.7489004532012515 3.7371481034139276 9.403677466933681 0.6934434918796702 -0.7343176043862127 -2.593605199043153
Ni 8.417268983816266 1.6320871588430803 7.201588179463179 -1.7459531101971417 0.9041415392923073 1.0987930747650432
Ni 6.31018777384407 7.118914841640082 6.688083977529906 -0.544314623429082 2.127402746536465 -0.6873967714649581
Ni 0.8330128820656241 0.42577093333431976 6.277718031244498 1.60539167170059 0.34484509774241257 -1.9781877461299737
Ni 3.929175256539407 7.3027682604353314 6.082483475112565 -1.787070963283374 -1.2481201752693667 0.516913862818626
Ni 4.7198218757205925 8.217902150884052 8.223794282728903 -0.12361118379545806 -0.20083272458278317 0.973466193830059
Ni 4.879802800598984 2.582140132008696 0.14265946587994352 0.33532713094964833 1.9113673460713145 1.1091029413314835
Ni 2.592843831726853 8.648413294093555 4.43804767568555 2.016408480174069 0.30830792204832713 -0.9811026273293944
Ni 7.003500230133652 5.3589485898005975 10.742715862038594 0.8081918259678598 1.4959143562033528 1.3751941208024445
Ni 8.659005786541913 8.455848639164047 1.4652206505096323 1.041232502741755 -0.041600963370238025 -1.9269551732072427
Ni 1.4325071786437504 0.14625424087619723 12.9142870944945 -0.22552354246124384 -1.2672034171530628 0.1978888114631108
Ni 0.9458085623682858 2.7933598064469916 6.069340629276816 -1.3097351198676863 1.4556987032164157 0.06610846159329906
Ni 5.266071984973439 0.7253012274472748 3.212942981944243 -0.34766791190318835 -0.06728191307610992 -0.39365980525227046
Ni 3.0245041167242794 7.783999185945678 0.8588379902947044 -1.45874674601412 -1.4165251183407475 -4.0014248191901025
Ni 7.74725445054958 4.340447542073678 3.637049513140571 0.7292820988448344 -1.0789091913569224 0.179262197500859
Ni 6.23810692846933 9.145398582825429 0.47966012282443415 2.453762898100813 1.165561024319212 -1.4164410432673735
Ni 3.7483893049361137 4.195192313171176 3.853659959982374 1.646150855895823 -0.24225705316584084 1.7119852378921292
Ni 5.178941089085897 6.7788244760496745 12.952048449682007 0.09876198596226217 0.3238481837757713 0.573449078901193
Ni 2.8600007628740616 2.515916202843372 10.113541271878354 0.6852283030587295 -0.139720687762811 1.128656952204011
Ni 4.500502605131935 0.35747854895073405 6.11343523847938 -0.40925354592546936 -0.31558003022970815 -0.13748999866007933
Ni 8.911891118064911 2.1206762987051286 2.3742928180270564 0.749507938973406 0.39153864514420955 1.5915447385151689
P 4.352457927211973 2.63340668338605 2.356009416144847 1.1010759572619488 -1.0101139269600796 0.7311304649074828
P 0.5805399441681295 7.346148362929438 13.346613696383471 1.2897021124762111 0.33254056934344667 0.18136870232090052
P 6.454460671863347 0.18082580087497138 7.729768034100931 0.6109725297679478 0.1308699222404004 0.691031540004068
P 8.994351308620894 2.708638401405095 9.129584909060007 0.3327999936524204 -1.8204716502310068 0.5154537333333316
P 5.853172231332464 4.766547463581153 0.26054843913940096 -0.7696021386201196 -0.39622885153102727 -0.3330257365099813
P 1.339704711996458 5.542079161342154 8.889970311733027 0.8856226545525135 -1.6933213429340386 0.4732984401215203
P 7.652255640323758 6.53045230622602 2.1686826236228742 0.28463063303604524 -0.4607334589723162 1.98463864396164
P 4.840416892545161 3.003189390012799 9.538648803561518 -0.7062516993879321 -0.412929709225476 -0.5467705411687422
Ni 1.2699128829250819 1.0514462014048833 8.536394211224989 -0.1953490757603926 0.7350526827800244 -0.08793275655724211
Ni 3.6407962714055495 4.772802872507348 10.703341074711751 1.2853739174145022 0.0400996962343632 -0.841701527689531
Ni 8.842377307168034 6.62997354542367 8.775520423292104 -0.5968833986647333 -2.0533084385242124 3.027968395552056
Ni 5.023408454999467 2.3840707172241364 4.948092404800825 0.5601449055931192 0.6827487311699855 0.4139969741477257
Ni 5.85356145677676 7.683792168584266 2.012389146465569 -0.5497080265305113 -1.5895086819217465 -0.5144492033282173
Ni 7.86685786921844 6.321558717181021 13.593701422240947 -0.5733439207818966 0.3821268649120064 0.30346859167815476
Ni 3.5171059855715763 4.920143237718584 13.141328783243452 0.7359379135984551 -0.8962191991214371 0.7554911531400343
Ni 0.06954902653231476 6.220888336195446 11.43642588431771 0.31064788303541335 1.1840670535431994 -0.46270343821449345
Ni 0.7500300173415863 2.5678870669294533 13.109752405711264 -0.9476194079702841 0.4307425690371807 0.20229208273712904
Ni 3.698373835343999 4.215830528991379 6.595770822869729 1.6867406043927273 -1.8060613883429477 -1.4041869084903686
Ni 7.457726323627799 7.651857147606978 11.841787503462163 -0.9523044721507793 1.1120021172561494 -0.4900535480926721
Ni 6.839589981722363 7.937391080088475 9.583394902019656 -0.36893247770891946 -0.6075411354888955 -1.8890877087375078
Ni 1.4361492167296688 4.4328051796417745 10.85460242291065 -2.0583038348562743 -0.0698257625438862 -0.32286036594120526
Ni 3.1624567349099793 5.429898827932381 2.157737048092904 -1.4205386103755149 1.6203837742340483 -1.6664219474400332
Ni 7.402131956000767 8.817670758727683 3.247814801571475 -0.030421035494018575 0.6943096965347075 2.067906390943045
Ni 5.473315999516419 3.334309035839417 11.66624682808439 0.8057991573659672 0.16656043366347445 -1.1996924187852822
Ni 0.39752706698711054 5.904540722707133 4.072698432214789 -0.3423328728435201 0.0960733833865055 0.12538138832200343
Ni 1.616193786534302 0.6282738112748676 1.6351583329440302 -0.10807503583307194 0.2492584241843384 0.18257583525512427
Ni 7.722974196643459 0.8221034488983391 10.085980403513162 0.5972590368365972 1.36225658680517 -2.647867817041459
Ni 1.8825073958855345 7.479458077601028 9.477571917533393 -0.44884982016085284 0.36485213699195873 0.2320808839637874
Ni 2.663812604403602 3.0877254496050295 1.278690843421219 -1.47279499657707 0.1501611663698446 -0.5789119017879771
Ni 1.5348734704937594 3.660943321784141 3.6033842923906585 -1.7322306184047265 0.4670084933477506 1.236083812930123
Ni 8.45084431202309 6.4641542388808295 6.685805155226275 0.3349008420455071 -1.3155296150622764 -2.263270121991457
Ni 2.017967117773239 3.5118792438910216 8.297675759147138 -0.9168826410080597 0.27094207980535917 -0.07882976581470941
P 4.059639918558638 8.262579671525813 11.499252431390673 -0.8164635790583488 0.09901909627839077 0.46620759471301
P 0.6367830208689901 4.73468658078373 2.1606803338335854 0.4329020385823447 0.4395493686955333 -1.1256245931355904
P 8.97103485105303 8.285228885474883 10.263175287029195 0.3447563946833482 0.24388687545978 0.11192192038298789
P 5.8863768686399585 1.1649702893247285 12.389688113944276 0.6670264353387222 0.9911870081485897 2.150317703461426
P 8.634577256276058 8.134922993069008 5.289433852176471 -1.8965127975569858 1.0524743942041614 -0.9361764562406651
P 8.638858736163321 1.3175003271265846 0.5184835074385247 -0.6189732885852373 -1.687562071852758 0.6978930430105916
P 7.353543646371073 1.8666974290291052 4.129719959804244 -0.1947232692509356 -0.02339318211295971 -1.3682526564876047
P 2.6768145876976055 8.678708007841308 7.7066823316179 -0.5156375672093635 0.2019226152128522 -0.29963147732025175
Ni 2.8370086598431112 0.21924235222704708 10.047419282710345 1.3004740062807345 -0.6423001362366358 0.5115245734822546
Ni 2.498669808752039 6.724416319300498 12.054600222040328 -0.18338573275092934 0.7956466423129975 -0.19795643147625264
Ni 1.7205803437856602 5.284828944479543 6.774362284348989 -1.81635917072453 0.4743435935565831 -1.8881716246811417
Ni 5.605606314214851 5.170507871126137 2.4129762668266497 0.6126452894846803 0.21619763707462766 0.5156753624258346
Ni 3.6709056397036375 1.6923244299842228 7.9264807201939425 -0.8731535755512253 -0.25264430993743586 0.5253681642335662
Ni 5.841662278908263 2.304696528405077 7.480279157943044 0.11935035163657509 -1.0868181617913542 0.4939130310480784
Ni 2.723021208299103 1.8861865030613856 3.8073541795653054 0.8893553821220682 -2.219491177133294 -1.1470058870248439
Ni 8.49238022729303 0.5627847768174657 12.09908869032343 -1.4777950208948225 -0.6213718707244009 2.5047995529626537
Ni 6.779482452395985 4.059158020389509 6.440955475673503 0.8147450537053452 0.9312206548972867 1.753074551733271
Ni 0.8077401032765458 1.5160887091702064 10.913102080461181 1.738032055577852 0.14180328132345255 -1.707222783506479
Ni 7.033294511167311 6.415046961992074 4.483891945932952 1.7228046971051363 -0.4851663952036999 -0.3206222206393059
Ni 8.950276160690546 8.604755173424952 7.9247041840589025 -1.2563304789943008 1.084589015350519 -0.11991959387648378
Ni 8.28519181638495 3.0692743100908735 11.163227618238668 -0.6476755416159361 -2.0048485432506116 -1.0494111818978056
Ni 1.4466675709981605 7.492376655442682 2.531942097148661 0.1615696653171024 -0.5823363540884939 -0.0031475444900461924
Ni 1.2074700009329253 7.47424987046544 5.86846323092983 1.9246882315499367 -1.1589283494940428 1.0195190223240636
Ni 4.142090841842137 0.5801711067232962 0.8202231193114872 -1.0955236599851519 -0.4162942548223347 2.0036452669711298
Ni 5.343110821126719 7.709694195174957 4.324276151590402 -1.8649537918037817 1.7721279688202964 0.044243286089091546
Ni 8.06467706764595 4.2102887000463936 1.1587297080345063 0.1641885909971882 0.33794194286467605 -1.1200067327281809
Ni 6.872210780863412 0.33121880564218925 5.566646700695258 0.35404527618444187 -0.3243063543591124 -0.15614026677141496
Ni 0.9143016893797234 4.974264109020779 13.550406578653687 1.1551822521880493 0.8317855541273999 0.31445620103791005
Ni 8.799358628300775 4.267523374902963 7.796459960526659 0.18364027196389662 0.4123622667577802 0.016631952129726194
Ni 3.415666420969892 1.1588168203958487 12.28155943206418 0.6116821542404627 0.23437610775586734 -1.1475838710155009
Ni 5.486901820976867 0.5288860208009758 10.585622619265985 -1.7503378695283984 -0.5642542997758024 -2.4062157444494687
Ni 6.608010109638362 2.850205255859263 2.2220825011258727 -2.2242955405004725 -1.6555767771954133 0.020343082432726256
P 8.826993634845834 4.472181820423115 5.606360670194988 0.604436785531959 0.18747944320432872 -0.35270033212077323
P 2.7257087173192467 1.9140439241460432 5.886299950278347 2.7156945468774456 -0.8144720025496166 0.723828789039747
P 3.8842382522681143 8.127787193256902 2.5421425839709775 -0.19088384090018737 1.352861261633199 3.635990070221796
P 2.5446169457240058 6.03134481209548 4.643780198086511 0.7649646398481084 0.4130546648391144 0.272495283225092
P 2.5227739844809793 3.199748239382588 12.201561555806997 1.7993577510705268 -0.0400089362927698 0.8102325105469723
P 5.78487243313089 4.5557911527670205 4.798024681297769 -2.0815576631778927 0.8446410699338293 -2.343092333626423
P 5.870872721775476 5.791062971149704 8.13469501816592 -0.7463287699144759 -1.2003961297205261 2.4532363361733815
P 8.341212478546211 4.560109701744216 12.409084515251724 -0.02772034873340387 1.0302865452532126 1.4080157953181558
