# total energy = -340886.13330889714 ev
CRYSTAL
PRIMVEC
9.09441047280010 0.00000000000000 0.00000000000000

0.00000000000000 9.09441047280010 0.00000000000000

0.00000000000000 0.00000000000000 13.31058900404201

PRIMCOORD
 96 1
Ni 5.3497050669402135 3.2069346554217177 10.018973623429074 -1.8080228829446927 -0.0998135671552281 -2.532072272635678
Ni 4.2405143971564065 0.4534445741220332 6.915995354385016 0.9056008974466533 1.1606301626764979 -1.2555360081174636
Ni 4.257193545826371 2.6833421655766556 3.246705421533288 -2.3904134873098895 0.12978337404444099 -0.2907899677692218
Ni 5.30888935307391 4.750210627913297 3.1086877398919346 0.4118205353216972 0.5510704540956767 0.3895943769336452
Ni 4.970249887493331 4.944867388072464 11.764244635829982 0.9434732470123945 -0.49337027117073096 0.550109118623672
Ni 5.748185752939748 5.891268111731757 5.182091445540591 0.11793598778755172 -1.2717797236698356 0.9760565802650545
Ni 3.1099973349892487 2.7185557226377797 7.6271937080076615 1.089599324080917 0.9838259397978283 -1.2134028263928391
Ni 5.2692922902009425 8.261689804333427 13.159088007892398 -0.09085738640320482 -0.10630123176210081 -0.7327739140481767
Ni 1.9875288260243367 5.252249365115057 12.375000683252763 -0.6492135755270174 -0.9686566882565576 -2.725683282659041
Ni 7.5256609820010745 7.4200475940488975 9.51237222053063 2.8133363031923357 1.3175931824595244 0.9993955121013112
Ni 7.797147321202693 0.03569010416597988 7.196090462469398 -0.3332301392113035 0.5830971435139184 1.1637980188815182
Ni 8.679477923607953 2.489549374405301 1.8910753282250428 -0.6250074105944592 -0.2686651108457244 0.7583911003956487
Ni 1.5652662568339861 1.1774260310001319 3.0094177031923746 -0.4434646445895395 0.8482100182320101 0.36346296995391597
Ni 1.9666844373920807 6.553732248354546 0.8120280817054653 0.5763809078360074 1.2758124989783124 1.066763300023008
Ni 7.511537362652954 4.002040767699591 4.353361479139167 0.11129302854973736 0.4962586484621196 -0.33017618287632816
Ni 7.814008358080618 4.183765276272777 12.912455782867523 0.04919651632930882 -0.5317259881307939 0.7447678531852593
Ni 4.271480864561656 0.4762506270771417 10.920805370050804 0.36936725125349285 -0.06651443878246609 0.23156254956647218
Ni 0.6744560261736147 0.5699839867263886 0.7735359896958562 -0.4401332662234613 -0.5795217674578342 0.18548683825433218
Ni 3.4392695578598707 4.694589213919023 9.847958692540596 -0.7496930584010185 -0.8120330540908209 -0.25330431211893795
Ni 0.057689482918784216 5.119989354696689 1.9295692391167314 0.21366150091633526 -0.7161802713555537 -0.8772043485818313
Ni 6.277307644306805 2.4148478873959855 7.530559231441447 -0.23515669467563374 -0.8954607236888578 0.48537902543513833
Ni 3.784920813857322 4.803149190840157 1.3560693533304693 -0.8065234371265012 0.13232979461537855 -0.01953009961312766
Ni 0.2752496062243181 0.04559846429461995 5.182451584192353 0.6730906392549312 0.4955060865668111 -0.3591514870627557
Ni 6.770242876700149 0.984206187683852 1.029464521029586 0.12643476928718222 -0.4589673682108289 -2.078415260894169
P 0.009331774509405758 6.0303944020006295 -0.1359905375636353 -0.39425295875157906 -1.3504513666401257 -0.7324000756485257
P 3.8207073187735205 6.259964603677785 13.04371177037795 1.2125970426620922 0.7524883617579685 1.0945134735530826
P 2.6347052587680584 8.745739797767909 1.8987555578061686 -0.10767625773275649 -0.04592427333594026 -0.5261711197508357
P 6.271368994316899 7.7783127972683985 6.344306165709 -2.186861049803098 1.805526341775084 -0.5827688136402221
P 4.760550972535843 1.6642861972476009 12.889787964950465 0.2800887793016338 -0.9918760637958144 0.14684778572589546
P 3.8747644941793364 6.450137819510729 8.6970592377894 0.07731975692808618 0.34464558013709673 -0.48760174411806995
P 4.667606098268104 1.1276796061229761 4.7428159628186695 1.0911458426324305 0.898282252298053 -0.013247351928209444
P 0.20599567104341482 5.889867572530463 4.001855241727472 -1.149315508994627 0.0984043455125273 0.8755675843093566
Ni 2.5048734559259604 1.8558053858194512 5.278633159120746 0.5402054863567147 0.15095332325383679 -0.3185756225229223
Ni 1.622742930549457 6.894099651910749 5.42449113196623 1.0843213635114293 -0.045435763735295946 -1.3046705608605855
Ni 7.074841964160949 0.7844019912394075 9.591490862670263 -1.2555948863798572 0.6430079609369378 -0.9589898545907549
Ni 8.684061506448554 2.673520202346797 10.466475000356004 0.4110085809433631 -1.7713190997657562 1.0873709489710306
Ni 3.2407385788711487 4.483207833037901 5.1344130895879445 -0.4667997197710541 -0.2744884023957208 0.37662496125717077
Ni 1.4812611879874986 6.704053757823377 10.170021776288708 0.031453590523590993 0.46736819068001445 -1.6100849634112013
Ni 1.5409750866608816 1.6152218531502964 12.103505249640746 -0.30287955194390415 0.05755851514075893 -1.9382418018646554
Ni 4.3385703300678315 7.219252106871068 2.033538357668947 -0.9444597792953798 -1.3503330958947066 -0.09740495771373547
Ni 5.361245873735297 8.132340005242424 8.485566905101424 0.00011569964225786526 0.3976565851164893 0.21171286183039667
Ni 7.002377702109546 0.8015558681321481 5.159890170876952 -1.814086058419637 0.2241336040922527 -0.08828679746255118
Ni 8.012157371832622 7.063292062955466 5.391653944342108 0.8083939146763368 1.0658179053906032 -1.4534582439216712
Ni 4.561710783593589 4.5325086318055545 7.446475950665536 0.747356696958358 0.8428215002265871 0.29103627945207294
Ni 0.5407681933227575 7.7163616736371035 7.286735360347478 0.6885900204421108 -0.8605250881539374 0.22157895599119906
Ni 6.492963398074993 2.170126397995732 11.560432532723132 0.9913608147222928 -1.2207536103309555 2.5099456159399676
Ni 0.78081242745531 7.529871694015357 2.439391882178155 -0.5081327741918862 1.3507452437314607 1.3191404723419862
Ni 7.216360084364499 6.401428157418947 7.536255970114765 0.10263072488904905 -2.0805716451155396 0.4851000607421388
Ni 2.1048467201587626 5.727950689804159 3.088895574542729 0.7964796797372541 -1.6976359111489923 -0.4410385516465501
Ni 1.1861748538030246 1.3470004072815662 7.403282957921192 -0.19973666330512696 -0.21057746267437283 -0.713703527680287
Ni 0.8688063047023682 3.5832795465124776 4.132977541405048 0.4219769070294087 -0.09020843996529626 -0.5754766508541831
Ni 0.5930510492599204 7.765698850046349 12.049104305521885 0.4673851599608789 0.013296717108906132 0.09335855555850373
Ni 2.228176019566278 5.643727355108119 7.625117454113794 -0.7442045244826215 0.08661866573150889 -0.4694417853795915
Ni 6.476657120231348 2.048370431587074 3.012492523347944 0.5923893674491217 0.7452131682527939 1.0032035729934916
Ni 4.02112993512503 7.018529374976425 6.469798115909163 -0.1846597143673465 0.7329929720375182 0.09811612484814716
Ni 8.184096294817541 7.810043195147082 0.7191550532798707 -0.6336244628395088 -0.14698431130375977 -0.4146065827072665
P 0.11003872805185257 5.9323384690892045 8.534603056526494 0.24543930754856444 0.1504067067217474 0.87726554083707
P 8.488586249353565 1.9272510739062767 8.398528850387198 -0.9246699982629624 -0.21131742616419089 -0.07540917016893464
P 1.9157011727007947 3.412013609897012 10.788684504111526 -0.8648473696783752 1.3659520333788862 1.1575479242067483
P 3.6393374922058577 6.407539601206415 4.257831063995272 2.4927739892566874 0.4879943515707983 0.6823324695681734
P 6.9535589070929875 4.259976435408164 10.880195189859498 0.4263909769367044 1.1075222271079248 0.5841975756669487
P 5.779425052656937 7.882571118071271 10.763673966075936 0.8661457767748245 0.33812963339544994 1.0435076719291771
P 2.307888526704901 8.984258899276714 6.1880259985473876 -1.4128240153400766 -1.749281403239426 0.7962331109440868
P 7.225090718346596 4.091202367241755 2.0844652370157655 -1.332890474938227 0.5188707294346806 -0.27799795821087603
Ni 2.8665854406863107 1.7136597512984377 0.7331395281489023 1.0437781519817444 -0.4364763861971644 2.419887842619923
Ni 0.9268750245347497 3.8014908296025096 8.508914075475214 0.6073914972849087 -0.7228787664216518 0.5621290259026835
Ni 0.3544892040222446 -0.12319379269258487 9.189949907571794 -0.27342062325283883 0.6583785298557371 1.756007151999034
Ni 2.4443046826751638 1.7909258620399944 9.530101773601565 0.011979798069695496 -0.41162770258460074 1.4069595861394997
Ni 5.521725839618714 3.215628911762222 0.9863861178562567 -0.19879024023145764 -0.2737011306077351 -0.5443102525537077
Ni 3.720150423002641 6.840669990822396 10.975525527974636 0.34754964115776915 1.9891761268206773 -0.18882772970210704
Ni 7.048213530515555 6.399109082767453 12.00742916987297 0.5711988494144355 0.0814792876224145 -0.5427138546008653
Ni 7.707612850834211 4.077524374003137 8.817320083128624 -1.2099081829760194 0.9256135931231543 -1.0111164000826651
Ni 2.6815778499594405 8.587115091605687 12.941951684111412 1.1332170607708676 -0.18555497248810623 -0.42786576171001794
Ni 0.04047012627117788 4.908453368838802 10.870505095580407 -0.059562432944665164 1.0534745533339018 -0.09632355172409862
Ni 8.519097996238914 2.763318410616822 6.215180089113788 -0.5110661457885972 -0.8529573031090083 0.2823708904675911
Ni 3.389414000057939 3.452556491451374 12.652300169580794 0.390953719175017 -0.639969174110614 -0.9575760049623636
Ni 0.9599695839731354 3.2105087587081385 0.3016233963785689 0.7916544904344689 1.333560504422058 -0.32828385094962176
Ni 2.8088268402485017 8.615489652047502 8.685652118827168 0.1708166378366671 -1.1303055435510276 -0.1274197589082709
Ni 5.715991540130766 7.917721014259609 4.1395800833540095 -0.010804803924987843 0.42900141797635793 0.4172689600307781
Ni 3.157697517526851 8.581476557158917 4.131140470504649 -0.6636606041902828 -0.2982281692148219 0.813780890019863
Ni 5.370731343780429 3.401464093835312 5.333246912442921 -0.3854513012995491 -1.4973333480380664 -0.42226898434853083
Ni 5.865585496767756 5.975318652630235 9.678928162000963 -1.4162713504587285 -1.9482883874673802 -0.20626160890783832
Ni 8.133531373004564 8.939396172783294 2.97044451687271 -0.8610843030915171 -0.039390843092796675 -0.02110901406447332
Ni 4.814153427421759 0.3398653921022325 2.6690657601338477 -0.4722435164944448 1.5461331431495888 -1.8445700859411074
Ni 6.152395917490034 5.705451118479464 0.8413048076587633 -0.5379287745073961 0.6362672997789944 0.22632161288250696
Ni 7.749647215693848 8.837129527857586 11.574023219621928 -0.9665077602343548 0.4615515839982373 0.6693957069018471
Ni 9.072883928605394 5.146836054191637 6.244396791958458 -0.14682464579744392 0.08544418580743349 0.4736784491687584
Ni 7.273536642536835 6.299216078955628 3.0724428766916754 0.23155175093319477 0.2992884921585362 -0.3290811500399365
P 8.469642592494495 1.7335401324285042 3.932905969294902 1.3621092625940285 1.0246393742697644 1.1736800538819205
P 2.1989465845470497 3.5259665721841715 2.1615194479950484 -0.5250228650790054 -0.8114823237936735 0.19522283459517348
P 4.696881005339322 1.3595506936308301 8.916310921428964 0.1522563583359765 0.10707976179933816 -0.48905030363913843
P 8.388684151131343 1.5650479909844337 12.64544571246381 0.12773523326616068 0.547999785590153 0.41838738990593755
P 6.369588626615488 8.018277910030488 1.8454468523761094 -0.23897195465666587 -0.1894442802401834 0.3072344864784902
P 1.4688564122046026 3.6324712123553544 6.33118202206362 1.844765489781365 -0.7935576209944527 0.015357970513309034
P 6.6685037075775275 4.417537095553818 6.703651784883785 0.7352971946906627 -0.18271261794330468 -0.3268702584315467
P 1.9631194285160578 9.10977995159015 10.758562907432252 0.17773547644368745 -2.0190312625088973 -0.3963869743754464
