# total energy = -381173.7046116308 ev
CRYSTAL
PRIMVEC
9.16400130651882 0.00000000000000 0.00000000000000
0.00000000000000 9.16400130651882 0.00000000000000
0.00000000000000 0.00000000000000 13.41244222353931
PRIMCOORD
 96 1
Ni 7.8686331755848595 3.0738260171099334 9.674850527090877 0.031016760096488516 -0.9290372740927225 1.0704988558060402
Ni 5.840218114100841 6.50490146613593 10.644235094017272 0.24430647949570186 -1.2319435655095041 0.24808394426026306
Ni 4.997386574182306 3.3206950517494476 11.340434363385178 -0.008168394743405288 -0.030800273210308246 0.14860744872947954
Ni 6.762840614508121 0.4384672274281323 5.779890576258479 -1.3791106822480312 0.8759195683321366 0.2224734427810104
Ni 7.807490958014985 8.184846209077977 4.149984030348325 0.6987919006757772 -1.2696279674341553 0.37055947178938115
Ni 4.127603706045395 7.675116957296035 11.649162240506731 -1.1879087958867929 -0.7173984600333709 -0.8440872543128882
Ni 8.744445956665562 4.138902919813929 7.857639123064089 0.011841729829934445 0.4828619154402394 0.09144514058587477
Ni 3.6333432886846095 0.3067951892190526 8.846149877384084 -2.450009601705968 1.9985020322072935 1.2100025424620386
Ni 6.83875520239014 2.13579883029154 7.697065657131407 0.40396607227428494 1.0919724522987837 -0.8066643335797398
Ni 7.464033348257594 1.5799288312877289 0.8185744281218541 0.533247824091959 0.21003624545892213 0.5023192528339027
Ni 9.028795757171501 6.759138357928649 1.7283673265210655 -0.4530864839500197 -0.2940051322724098 -0.3116734960864503
Ni 0.6675718452871909 4.1530521380285395 5.632327243162122 1.644353397675768 0.06846976273662402 0.3093453621739059
Ni 2.3272898042633763 4.962187644673031 11.949385924297223 0.8839951462514195 -1.436986471518893 -1.3127247986236295
Ni 2.7357476761944963 8.115520538227242 7.093639989084266 -0.6273208892189842 0.4937207125316142 -0.07443009408511697
Ni 7.486796727820479 3.7488188707586474 5.894781495041007 1.5216415857661278 -0.925401220002032 0.35498398594862735
Ni 1.461145044695896 5.090208744710671 2.3843302147912424 -0.11500364463210516 1.0932621176444848 0.3170684418497765
Ni 4.51831090719821 8.81688738800397 2.0807121848694736 -0.5010696966975178 1.8059711426219864 1.4379051266784204
Ni 3.339737846729993 7.838731038904629 4.622840089558937 0.3162950540188617 1.3789314763576899 -0.1589322276942553
Ni 0.28729785976736427 5.557921049916193 12.794370088152684 -1.0819222671516333 -0.2412100999585652 0.3711243431539156
Ni 8.421048346047927 4.0065655751007165 3.7945545691171203 -0.5139195560769924 0.7068877903100342 -0.777510594833919
Ni 2.705616439478407 5.597738636148373 4.76580309393526 -0.030951454076191855 -0.7930737393794987 -0.36793951766803085
Ni 4.762064181350052 7.140534933624182 0.5957581480470353 -1.9073579678016053 -1.7214916347206675 1.6074778648056571
Ni 6.80086205645917 8.049255643855576 1.9252485661365768 0.37048311002549095 -0.08791398750416472 -1.2209996649034907
Ni 9.098332200055225 0.019956445923548408 10.82972914545048 0.9976204224787592 0.3643381734700177 0.47285980992220494
P 5.584560802085801 1.5677773653858025 9.46903713527732 -0.14527092815707884 0.569829994091367 1.0119527799410315
Ni 0.18833855747842537 2.4267467118301997 2.3147195434959005 0.9644634761108164 -0.015535890852070017 -0.2248455425576128
P 0.723002140763045 2.022669232584691 4.751129694838605 1.8731412127105806 0.8199474238418912 -0.693653036787315
Ni 5.853414276166282 5.400538489282947 1.906511848803938 -0.23141676801722727 -0.45474947347473943 0.4875361809874571
P 4.212095799269952 0.3149841409007731 6.153481255532247 1.1831229444623754 -0.6448779242661411 -0.8728183036989936
P 3.8414852532626296 4.5844383415483625 8.040356482062695 -1.309154564773868 0.0584799985137638 0.34983972274352654
P 6.239383688577546 0.6150841106719015 3.376180331233908 -2.83069562040639 -0.4402775051108095 -0.7131689953330556
Ni 0.8021745311549706 6.5599771147562755 10.528204173456313 -0.19020249856244661 -0.19626978780244908 0.5656216124369743
Ni 8.044279591076732 1.2580891009139308 4.040444888403448 1.614281260880736 2.0005059500111995 -0.3346799842839526
Ni 8.341330697570658 6.041725341640404 5.312842661156948 -0.950712445073311 0.11606473890676786 0.5245834635487417
Ni 2.317456830724336 0.8269897306390027 11.580262695722695 -1.8312995940844463 -0.622659736297889 -1.8400891673516182
Ni 0.9479426363703425 7.041270470087479 4.143975194607832 0.31544916107879867 0.6626175076377492 -0.9233163124485453
Ni 6.345566973197171 6.0388570091914575 12.904191481341739 2.403170786975558 0.9667371026363416 0.7890507342630346
Ni 3.9098395399613244 5.225991753963193 10.191230094713713 -1.0883299704501903 0.062322769298621704 -0.22674378802159015
Ni 7.046594754920828 7.5520352540315 9.078694661381592 0.7240087662610369 -0.16419861829951723 -0.958849986578781
Ni 0.7237416756787957 8.852938569646637 5.888960521329919 0.5997756326108639 0.06202837798665446 -1.1856400544572743
Ni 3.3482878600682264 2.537081289099577 9.718749759561907 -0.5778086414214694 0.7177111061777833 -0.09004106114949655
Ni 2.0270496252703025 6.099476878679575 8.576988492855408 2.1656088252925416 -0.6559714630761413 -0.6931223610948257
Ni 2.338698986049122 3.425302128122367 3.6044326969595732 -0.6801550023008802 -1.226344731265488 -0.019625487540411362
Ni 5.692017882904797 -0.09947431916954845 7.933822216188135 1.2511731031630775 0.4876822196470182 -1.1043767395004076
Ni 3.754454731640763 4.269499104254618 1.2386834114765857 -0.07035978067048526 -0.38779769004453857 0.6619868160322857
Ni 8.346022666305037 0.7909568769992027 8.670674828719033 -0.5748205053274229 0.031367715678004046 0.5349347248760786
Ni 6.843401351117348 5.6239660082534355 7.399537106162754 1.65713769392463 1.1721700449952974 0.8529848139128342
Ni 5.574975256585488 7.195143218171376 3.7346943953479093 -0.7791599575118839 0.9147385980818633 0.459515527404815
Ni 2.6717646181799783 1.7974730613373757 1.895915513945418 1.549288915169751 1.0014102285384947 -1.1465024650258642
Ni 5.658276029623581 2.711050692328967 2.328011011176258 0.1693606221164309 0.06949846111145451 0.8387545292460652
Ni 5.841235318260051 2.534542860702266 4.874256301710168 -0.984087163879015 0.011205124687200058 -0.3998196542060792
Ni 6.024872743002664 7.333015619750926 6.109448228640273 -0.09693830248996207 0.73559158600263 -0.5260901300012553
Ni 2.4960540546780647 1.3980967148276804 6.690447752377314 -1.3948167801293785 -1.1933446221903834 -0.4028095900723386
Ni 3.851474014826054 1.252224139995957 3.965308324243203 0.689742131768683 -0.2217843871337858 0.658644124812298
Ni 1.636947248212153 0.4211582615189629 3.236100321708827 -0.446854901218011 -0.7984077499979024 2.225947217171283
Ni 9.021629508049852 6.627066769257032 8.094369106516657 -0.6711869944743151 -3.4242862072524636 0.4726795755905988
P 4.449250992389072 5.380890870207735 12.783372370031339 -1.9523425029320958 -1.8285603407764122 -1.1542170600613026
Ni 0.07501743214159877 1.9094113388577612 6.741026625493832 -0.984179209372189 0.33478797061672666 0.5293220066749916
P 7.877128204914487 5.567644055438021 9.666937411852329 -0.32632775566451544 -1.068833038067843 -0.1347808272590324
Ni 3.295842279859535 2.475380067442208 13.10899958219795 -1.6372065022183417 0.4455184417947746 -1.5881609096446
P 7.885366642203953 8.466694237192343 13.380078075826686 0.22548137636939877 0.4907474888359032 0.34146743951943126
P 1.7207062213219626 7.983155701509727 1.81458316841542 0.8826239769355058 -0.7655169128071526 -0.6518867514838064
P 1.0814713012700183 1.8329377468882468 9.247932690670435 0.004723630727914446 0.20599755661317426 -0.01990445223341088
Ni 0.657764530952167 2.5308680961270986 11.367447090413163 -0.67772299582062 -2.009836483383506 2.6305671209794825
Ni 8.955969437772852 9.274244371588694 1.8277939928831555 -0.26902557950893663 -1.2927663532238318 0.3041841296879406
Ni 5.179282838652395 1.6907674286359946 0.33708038115923844 -0.22733925551374395 -1.2105522443179215 0.1361954482183719
Ni 1.8102660073397054 3.3367045622552287 7.675364385334762 1.0156361423298896 1.0412913810041486 1.4324528453145975
Ni 4.016590992669877 6.423525133399047 6.554190964250638 0.5441819545059596 -2.2636208204626564 0.6305705065045335
Ni 4.587517446030299 2.1381997986673356 7.4739093926033755 -0.9504231959676662 -0.0016946140936035332 0.028085702492622596
Ni 2.576312379239959 6.2949541932753466 0.277557442642811 -1.0115635149224127 1.0499781101448693 1.719145245975678
Ni 4.4895084506901 0.8474566114424434 11.482928170888064 1.7918033357620367 1.0720327759520634 -0.6961297804625818
Ni 1.2026285642333434 1.0613746461245246 0.23653112462144266 -0.8735819213378956 1.267758004104952 -0.6069024734636322
Ni 8.031752401115998 8.136863497567806 6.942387229010445 -0.7262073165742525 1.0368978799221433 -0.49884363558047645
Ni 7.932423789569256 7.2038856755397305 11.511751704599472 0.010801975711510429 -0.011625242943754173 0.5775283911768893
Ni 0.8401703139020048 8.46839874145913 8.516284314554095 2.304891397076669 1.5323885398699868 1.0027672567870214
Ni 3.1645679593127056 -0.19639554753949154 0.022239198680840924 0.12572077393929315 -0.3284489157725763 1.4310017146903677
Ni 6.014114205318757 3.7553986237884995 13.448387458918353 -0.5369090749936302 0.22852890494647093 -0.08289416569207013
Ni 5.963253997358205 5.180043450771445 4.789032921171152 -0.02154018806462097 -0.27147172705658407 -0.7835724847572827
Ni 7.04964636739846 1.9210129646736278 11.981831071375481 0.2740232898338442 0.6418265390343268 -0.7242543066129398
Ni 6.7132816947512435 9.152152380479066 10.648151788230306 -1.0232103551327216 0.5305157698727767 -0.023531250352720766
Ni 7.441343280706184 4.5335872975892455 11.603452201352276 0.286999390378538 -0.3853638837920653 -1.2960046576554713
Ni 0.76579986026167 7.844870919865632 12.896291195705201 0.38078166373802164 0.9911931787961767 0.06619047978414407
Ni 7.843743747689209 4.104262994392148 1.3726968520521377 0.725060604564319 0.9876031474520733 1.6266534092928435
Ni 5.798402775555977 4.232320750435526 9.224487509400834 0.4158669374769289 -0.3269113960821273 -0.09738695999160646
Ni 4.408498678010591 7.51306075593128 9.028223923481999 -0.15313618983776853 -3.12701320286206 0.34625149117163595
Ni 5.476847129226643 4.144245532650145 6.750978731051519 -2.3310788541053142 -0.6941320333062626 -0.07741643040695054
Ni 1.0009838766722656 4.076294462014561 10.025895013635752 0.6650970795264932 2.7045195040972323 -2.214363883209057
Ni 3.742156641715887 6.436638819451579 2.5587853100966527 -1.825750639241759 -0.25812975853203934 0.5506166543877098
P 8.622518917581752 3.4088160895420003 13.036599388865996 0.09506936760202336 -1.2807893833676136 -1.0366723941748983
Ni 5.715688498609682 8.720390452900435 13.118414677271582 2.7456833799300524 2.178316502667197 -1.71350270297792
P 7.418909805194936 6.1042879794326 3.158938513231594 1.460094518291266 -0.227683269116724 0.6363853134140975
Ni 1.417616037882811 3.7891038210639785 0.5220539173109765 -0.10141819263818662 -1.2699395851373032 -0.18289748026060115
P 4.420686799918254 4.076321954018864 3.6450053969099425 -0.1908804984660777 0.060465147264592636 -0.08985517039093557
P 1.1989446356567415 6.548329668933237 6.3824584937713675 0.47296162560739186 -0.021737648787407724 -0.9992165633212857
P 2.3316060489389474 8.035133917645268 10.284526960516377 0.6968502035683741 0.4855340629557638 -0.4803360636945921
Ni 3.2448537758789024 3.395940667526762 5.727716250492244 0.987306442147261 0.4533392233907741 0.225713804095179
