# total energy = -340860.57699473295 ev
CRYSTAL
PRIMVEC
9.36769155086900 0.00000000000000 0.00000000000000
0.00000000000000 9.36769155086900 0.00000000000000
0.00000000000000 0.00000000000000 13.71056348546993
PRIMCOORD
 96 1
Ni 1.2612565845001291 1.559477035985669 12.763464363006934 0.7972085874834787 1.301040934527798 1.112313477848981
Ni 6.005214692869931 0.22566112523859327 4.587471762523382 -1.1207053014571022 1.5800940734760658 3.317233699146635
Ni 3.943713714193464 6.952878444515343 8.957138145704693 -1.0234857202812953 -0.4341153421641556 0.3091124202274934
Ni 4.50481968570535 5.489251625573809 1.1927412905731543 0.3141479257688719 -0.2814892591935862 0.011184555861909772
Ni 0.2566634994867916 0.9417152676908546 2.6555306379154167 -0.6865087124330499 -0.590630475776486 -0.10192598551254058
Ni 3.418326749482721 7.14085053747934 2.4649402752422875 -2.46003176182866 -0.3369309851016584 -1.5518821298182242
Ni 4.136894243501923 8.012120766842214 13.942271212820398 1.9037293699100828 -1.2783195816708823 -1.7286462434875776
Ni 6.035828307930548 5.724455617906115 8.582634710693567 0.839795826026386 -0.34066756932595527 0.11130331296238251
Ni 1.9162455578900754 4.104800533221117 3.7747645918854023 0.18936534737313193 0.15299452205358166 -0.2781414257672758
Ni 7.0329722048483525 7.858331379311568 12.601214076723918 -1.5672709535694687 0.015571372075695764 1.082605409261587
Ni 7.094302479573524 1.5577814838663384 1.9891421210226348 1.2577476710568016 1.3489611552478444 -0.07689243958268048
Ni 5.470085329241488 6.78745438443106 3.0841915064485583 3.4302797058317376 0.602353420640369 -0.5219043740546818
Ni 2.5292579067125116 5.123836724629944 11.089939432921819 0.11344247079257237 1.3192829114571214 2.261928006141266
Ni 4.662318678977734 1.5511304230667553 8.894330586066712 0.9348317692873127 -0.02678600984459258 -0.20406485836683566
Ni 8.7222573387211 4.426505786713073 13.698785244638922 0.34622912257413274 -1.6511845616649887 -0.6769272393922019
Ni 5.986376265731956 8.987278692356325 2.552660273035778 -1.2784090560608952 -1.1771746972987405 -3.184523895484019
Ni 7.8237177600799335 0.12516078624950996 5.998357542862474 -0.6080520136870431 -0.2121206387917766 0.4957133174816108
Ni 2.326100786204677 1.8173321058016254 2.0358953313671986 -0.28792164508249124 -0.5936746619194485 -0.975586068386539
Ni 0.6731922710600173 5.0354619252168895 7.3360282585659276 0.8582699735711734 -1.6487332719110186 0.14065374110004164
Ni 1.7427746510074236 3.3919098601097284 9.844184503930354 -0.5685449567313564 -1.3426753222391328 -0.531754013155252
Ni 2.7277311815868366 1.1898279385891113 9.882409368145423 -0.5055197620490713 -1.0528549174720319 2.136410863572346
Ni 7.139857562205036 3.4146639821973164 6.3531729011377065 0.9558297116952182 1.6130689857401896 -0.6266050940988822
Ni 1.199710852875816 7.234827216270071 6.49987656699398 -0.17684638897051477 0.47380057656891944 0.19873521862380614
Ni 1.7830369880730699 1.7500627148131642 4.488948006391639 0.5276243072575945 3.3925603369040926 -0.6017078166365702
P 8.457723105031759 3.5760880381105826 3.437443397051326 -0.39149133684604187 0.982299990071605 -0.04792844825016262
P 5.131396451482429 3.6543176278814555 9.094846954406373 1.4349283034382834 0.17314888551426952 -1.576513555213659
P 0.28546915013287405 5.837973300679846 12.098036034469022 -1.2038666047676299 -1.4733040750030046 -1.1926715073827587
P 6.753964888151468 7.1310987708703735 1.2481277651894023 -0.42720730219041264 -0.8251022285699532 -0.8076300399271187
P 9.364506251987901 8.818810132610261 7.639566748383754 -0.8691508821497355 -1.080835461845358 0.021792156174426987
P 1.4037204332889492 5.749682810488196 2.3808671196590483 -0.18680761394828474 0.5623151737715606 0.2176215140053478
P 2.698232321786995 2.9046775019295525 11.849340693173957 -0.18618617831420192 1.4053986694102827 -1.2047592917852283
P 3.656903110671153 3.420453215400334 2.225018713587912 -0.7060303274057453 1.9996024643603243 -0.8879065654906838
Ni 3.5142050696006573 3.1620548194908906 5.6426232140739465 -0.5046648702479438 0.8313911469024584 1.5536325368504276
Ni 0.35808187222004273 7.2343494640154535 10.283196671313549 1.2520719608282629 0.1622893170919463 1.35166312756004
Ni 3.9420275297654004 2.0010044284740607 3.852996991963655 2.072812055774779 -1.5785460122626556 -1.5576516853121496
Ni 4.329287886743953 5.130366005443056 3.76246668679006 -1.8006147634060794 -2.1259259048806225 1.5319198277636843
Ni 4.075254834964941 0.6863623082123189 5.995204377981995 -1.8541865259849484 -0.7361741979789774 0.4608136773909483
Ni 8.900936681948213 1.5534067720446407 7.372032979950714 -0.44926556754203273 1.9778195641572776 1.7793717948669034
Ni 5.168951525771906 6.761702601138025 10.972673736872153 0.39836440981679133 -0.6234434085414489 0.991719226502976
Ni 8.451128250379778 1.562680786398989 12.496753077867139 -2.1847835984487793 -0.13534569862356688 0.8628421663228881
Ni 0.3412874753165316 0.6147491187833412 9.598422186770991 -0.18073081162658552 0.22362118323220845 -0.5481360540577012
Ni 8.861077155607049 1.8654726712228344 4.813339913738976 -1.3937065777843352 0.6431653124504085 -0.1100882096083588
Ni 7.062049518541179 5.337757322403583 4.402447682001116 -1.358599449668557 -0.5899100526706937 0.28126197367412853
Ni 7.398312164262082 5.06304977599826 1.866048784235756 -0.44348778451799103 -0.1306529211335879 -0.04214192347537258
Ni 5.787968564696501 1.754437426634862 6.934994585117477 1.019396123592954 -0.4114569813346914 -0.2270443499811445
Ni 8.571034698597616 6.901852630183892 2.9809230146900707 -0.13877863556451583 -0.01944525320880522 0.22812755574299423
Ni 3.3175022883757985 8.349048518643075 11.190383565763302 0.4300964508127496 -1.1543435583368375 0.17300027575154722
Ni 8.10343702131311 8.779643815422856 1.2912228920941953 0.675829635452649 0.6679546035799464 -0.24897380306438407
Ni 1.8568637629484441 8.355268665644376 8.615443175818045 1.5142244673664502 -0.06505096686306217 0.2937770754220037
Ni 1.8148684029983992 6.817918116431405 13.100237547901889 -0.645003908321044 1.4104424024817772 0.45719690657396744
Ni 1.630128163521524 7.146958272185436 4.125782288120986 -0.3515250808657494 -1.2957380342576459 1.0110480087385747
Ni 8.593788820685205 6.583285553266387 8.429501061551612 -0.5030782424871143 1.0282350620408227 -0.750471845548572
Ni -0.05909889066536749 3.4561722222014764 11.260636566420308 1.959883291393831 0.2695799093505099 2.270106942407632
Ni 1.0555701873501997 7.8091041617033845 1.8446052021564234 0.20729339260646237 0.6444907161300514 -0.7346816725938509
Ni 2.353623063147178 2.0020536098959667 7.800597361263805 -0.36499149078330045 0.3869859927765206 -1.2620938638406394
Ni 7.590939999785787 6.070001645672632 11.074460259872197 0.49698729909802797 -0.4205085500139984 -0.33969029301435044
P 6.178423304397106 1.3948023912027474 12.394554376451344 -0.41841721470260845 0.4462442642172056 0.3589676531867237
P 3.7318071700422344 6.218591964550083 12.833826965651763 2.6595961612219807 -1.806917822805972 -1.0352274341982557
P 4.038767677479903 8.950772799488753 8.048018696546556 -1.053397163128747 1.64715255768746 1.101116323581581
P 8.289891548291852 2.2431498800352268 9.780183500424954 -0.05004292349000414 0.38332962697085593 0.15903969980639707
P 1.776114264226743 5.676783437048256 9.186310281630165 -1.866927627700701 1.9699609873448072 -0.04499327688123864
P 3.914561458970502 -0.060505917893673704 1.802857149255828 -1.5879274534775556 -0.7212018929398611 2.5909878160249638
P -0.2150587722625815 2.382110212290182 1.0092085465005975 -0.14399026167244233 -0.061357320061558855 -0.8431899393095994
P 0.9168206281487524 2.808209017261794 6.222936699759726 0.8101769747186887 1.1269525679183947 0.3690731170518418
Ni 6.315575672237527 3.3030292053682553 0.31480594887379654 0.549515193793415 -0.9543047904102595 -0.18810010750746314
Ni 4.606637122086576 1.6037487449135992 0.9457330704752789 1.6795330309006946 0.8193043909412534 -0.06279662361124669
Ni 2.0852480760383596 4.503030456673349 0.7530059374241432 -1.6297860413845542 0.580563064238155 0.6869609694791201
Ni 6.236718447151764 5.4533827357123945 13.16178421629533 0.20554864200121373 1.0104898222422598 -0.26995426197079314
Ni 4.039367209720991 8.369451350222642 4.209512586203853 -0.5590164484156308 0.860540514772905 0.6201418549720417
Ni 4.559826768825283 5.003602407217759 6.765860919291455 2.143417633907483 0.12703460765471025 -1.1329674066539068
Ni 5.5531111769410755 -0.09493499360734749 10.818333529095007 -0.9642500745484296 0.35764122106581636 0.7813693064583769
Ni 5.711406423971157 3.4521722180304595 2.706903993592874 1.1242590802466315 0.4518312713866799 -1.258112767705704
Ni 8.495690357736985 7.429515943872521 5.37663886177647 -0.6179996118180583 -0.5951113943659752 0.010715072424658965
Ni 4.725213358144498 4.1194516023627346 11.026460209819994 0.13780315902512397 0.28432107221542646 1.759424148100383
Ni 3.25855140723245 4.413156826657572 8.477159190872568 0.0502367846683651 -0.7048116245072958 -0.6885213719877045
Ni 8.782622741245769 6.763622977847764 0.11817904594820094 -0.2116316149705 -0.17805043658094497 1.2888554482051997
Ni 6.064980563153511 8.436271092030285 7.585204162422992 0.6718220569551526 -0.35601422698535456 -0.5209358394938254
Ni 3.670898441424079 1.1410222670879442 12.442650913723599 1.2771481870706005 -0.5792584864941185 -0.5233269654338213
Ni -0.11305304528688832 5.1596213052699555 5.021055352817342 1.1704044684544423 -0.7612357689332954 -0.17394824148711333
Ni 7.064391441357933 0.6562451807888537 9.138597819699859 -0.6739645572194523 1.3311516378702495 -2.619027752881315
Ni 7.140269740620784 3.3455210529554518 11.797364058178903 -1.8922781906503479 0.8241542628343871 -0.6751989438471856
Ni 1.226127742248809 0.35641348640538667 6.111126747103971 0.3296799599662 -1.3189137010431609 0.66532642192848
Ni 4.121578068280348 7.376794577421739 6.6333483689355885 -0.4470973562461203 -0.034236809695682976 -1.7353231412871213
Ni 2.2554871294338903 9.222117344729217 0.329987229341127 -1.1223829462698411 0.4061250275988167 0.20613331086009015
Ni 7.898368891786806 8.970426215766958 10.825435175844532 0.823981998922581 -0.2029942510104762 0.8808568577327539
Ni 9.228552948629659 8.77922226931584 12.569282427502031 1.8038954910398806 -0.9443363663436382 1.7217451454923702
Ni 8.468374170002358 4.295695345860424 9.383701588163149 -0.7854247074746732 1.0943774621958509 -1.5157882123091444
Ni 3.9180837108869007 3.577802325612447 13.641489634542454 0.8093508792729673 -0.3601706723558894 -2.1440609239184365
P 5.821111456399214 2.8646774602193825 4.657807198863538 -0.276098427195318 -0.4410598918027888 2.722863553822059
P 2.6687240942958854 5.745935733981388 6.299852939214963 -0.4097682807783588 -1.3472140906497507 -0.7337247079972202
P 1.5240577953050714 9.336337604347975 11.343187472172657 -0.4797997315751479 -0.3070514239334067 -0.22965941900648834
P 5.8138140249022054 7.042967531430261 5.275043439678273 -0.25852416575698056 0.6292774987247227 -0.16816737313927813
P 6.904054037631641 7.647661370407585 9.498733089845633 -1.0043849948961026 -0.5338229798691387 0.47802104240817034
P 1.943430597946964 9.209114989250594 4.012231818427819 0.09572962689384158 -1.9594022379923544 -0.801324409424065
P 7.609975148440368 5.724774119409193 6.73813817375584 0.3226505639232443 -1.464533527899226 -0.7897660151625043
P 7.830837205442869 9.350698275060315 3.62072696053618 2.2854232610497283 -0.2537799662037758 -0.31162593067796657
