# total energy = -340856.40311117534 ev
CRYSTAL
PRIMVEC
9.37615435647199 0.00000000000000 0.00000000000000

0.00000000000000 9.37615435647199 0.00000000000000

0.00000000000000 0.00000000000000 13.72294965689909

PRIMCOORD
 96 1
Ni 4.447025645634885 5.289004310585332 11.919287197744806 -2.489431040926384 1.9069928711527027 3.1528885279669248
Ni 8.744848546332614 4.8361454293109265 5.98389267818452 0.4543962039003787 -0.2660245878990838 2.1015855283630454
Ni 6.639995645500478 8.169846501714005 10.070229853124756 -0.9909111287793837 -0.190193242591066 -0.44711561107856546
Ni 2.3711263095841164 4.231702259882245 6.099659118922567 -2.729825329851873 1.5210409760676515 -2.09515648490825
Ni 1.3131116711467734 6.538939453397628 4.89611531284125 2.0758621554550123 -3.851776330790618 0.813804801279263
Ni 4.372110171993971 5.530290267866344 5.167596237745941 -0.29089949676389254 2.8003481184627836 -1.2398635916875291
Ni 0.9007943438743634 8.34809657297651 0.5750367363898825 -0.41814570620877667 -0.9681717782003391 -0.026629943882702525
Ni 4.546131597622927 7.044754854712569 2.3599358693099703 1.2983124798530414 -0.9016797080153761 -0.2591900814757536
Ni 5.487413113803777 3.8258460406055743 0.47273070290576436 -0.3736239696473178 0.012010137086998671 -0.5190391366917447
Ni 2.1711141839635943 6.670346257287166 8.932940766866817 -3.1458732729913566 0.6383213540945459 1.4316090092570635
Ni 4.000795705519944 2.5897313493760956 8.545898739005398 0.5586523802079928 -0.33754213632309615 -0.042006426338772815
Ni 8.457778827125622 5.0827289138268705 10.945424482645956 -0.4472248829629202 -2.6940083201532636 1.0959561195368803
Ni 1.7745966144674423 8.206432256175438 6.15064008323142 -0.12545260787957105 0.31003081827670476 0.9756981684843713
Ni 2.5480637192308864 2.64910115902494 4.239554789190664 -2.272774976158099 0.8521250370157002 0.7985334769424893
Ni 6.948274225955998 3.162989429276656 12.09024824657822 1.139937924434469 0.19684211536615132 0.9267471925069651
Ni 2.970628245644993 9.120701071535327 1.346970839909235 0.4433679711106751 0.6969638463281028 1.2912550587856277
Ni 8.850124007914616 8.100603601483948 4.746027458928913 -0.5396087333129803 1.8757511395296018 0.10611611233448821
Ni 3.510497839733877 9.249520056810987 7.985796341340828 0.7175874361157255 0.004425382761205281 -0.19080876468787783
Ni 2.5125374702164405 7.853954483887217 3.633782081068331 1.742843360923566 1.5313022487843435 -0.6842571973947119
Ni 7.29732032573451 5.6879221756074 9.060028914040586 -0.25217611205176566 -0.539633930123961 -1.7718957982048322
Ni 6.117818854760831 4.88126348427464 6.807200606882007 0.22154373187788942 -0.2386965895080921 0.309317594259764
Ni 9.290268823825182 2.3430165986985774 1.916643478367958 -1.5912544609682595 2.4081504995783365 -2.4265845379138082
Ni 0.7243107401004626 8.070252989697261 11.487893146733997 -0.47807375002297664 -1.106886907516771 0.8792553175735889
Ni 3.0879520656285666 1.588029894253812 10.430580782261071 -0.2233936406024346 -0.7859880361773108 0.15968530381019597
P 2.9113615736945273 7.156565495910054 11.203855675859355 -2.013014366890856 0.030763763545417988 1.3239111542577522
P 5.035576233358766 6.9698393810716555 -0.10992228370170451 0.4297976886254082 -1.458883014481668 1.3985682767520107
P 0.9438787109491273 1.04516930691193 11.142266530464477 1.3925809488203245 -0.8751592931273443 1.3056761193069641
P 4.976347066025893 9.091803763680348 2.399237895700536 -0.16268295298593916 0.5231346469173571 1.4552580161345712
P 4.70328532148968 0.19577316621713636 10.221004041539034 0.4574532455591477 0.07039063390842071 -1.5118839921587317
P 0.821665226446938 6.249094392488795 7.110312926264168 0.6051908900891642 0.44908816142390395 0.3191870308546761
P 4.628444857083951 1.6455619776406265 13.20150537776524 -0.5243980870108129 1.6644144300917012 -0.46810172641192926
P 5.721929487609352 5.843285053984114 10.532075778389755 2.113742218330237 -0.20541237353366557 -2.137577887297254
Ni 0.46534604370181143 5.638631731936527 13.459043961079937 0.807212749884042 -1.4085976359635546 0.5886322143995346
Ni 6.155567252367629 1.547721806496329 4.605655176203901 -0.17953859109069725 -0.8873913164171621 -0.9681730637519197
Ni 0.9174735849331647 4.56230546395967 1.8264692510595566 2.5939972922752483 -0.16155038204339275 0.022337487154935724
Ni 6.600184493926094 3.595136385485633 9.797198112282619 -1.4763775717220058 -0.8973574264909384 1.7307098108848256
Ni 1.7062444489052067 1.7265719516403133 8.446393362839995 -0.4298000026182533 -1.1436868499539399 1.4777130027039778
Ni 4.365378093136126 7.3374408904040305 9.751184634573884 -0.46038404605269745 0.42340052684981266 -0.7102757329456606
Ni 1.0717038238585868 0.5572820504216178 4.333171940394052 0.7113198579394587 0.24856911142679775 0.6191280689955466
Ni 4.7268288451833405 3.414448514079619 5.138791753819501 0.27972702508684083 -2.7884652509822687 -0.19174207513542463
Ni 8.06002360524892 7.1195578145007055 7.220536184522052 0.8011829987501944 0.9145282818432702 -0.14408282138624864
Ni 5.3680827967790075 9.159912149228232 0.30559512506678105 0.5394812065961806 -0.0395016576390481 0.4381488888035808
Ni 2.4431726799792086 2.5869560076742544 12.387541724540911 0.2170964947398132 0.6589714262447296 -1.6265981305748762
Ni 2.6524859507626584 2.6681628809163014 0.8127419403062549 0.13119131013556115 -0.44257221468225716 1.657951448075177
Ni 0.6312374058521651 8.746339354881915 8.13451152624928 -1.0539702620233977 -0.5749950832320744 0.10818507904837496
Ni 8.89970511237183 0.746501284714474 6.449237784270891 0.47244200565849603 -0.3846246916331956 -0.8257491181253326
Ni 0.569155074735947 6.977827864618847 2.7588068535600483 -0.41421474658548657 0.029088175615207965 -1.6410842400061931
Ni 1.1602803544575497 5.748520261482398 11.325962272201405 2.220243481918286 -0.5084739595813889 -1.3262955953295288
Ni 6.600381393168455 2.7698941561358152 2.608252067158686 3.4710175498707323 2.46704958790739 0.8040613487392538
Ni 6.844011389048994 4.406136236304719 4.509923702183738 1.1443255119792035 -0.857277013530285 0.6302871709361597
Ni 0.15174368277904277 3.45541293264497 12.656910201859707 -0.898128500329008 -0.4231544722772777 -0.002572645823182666
Ni 6.174657102722185 0.9442068763530613 11.750070113629441 0.04048947547361414 -0.032586675686769685 -0.2842886763155943
Ni 3.559525751081604 4.859501429916623 9.112327228042373 0.5716444215922865 -0.3681848009096175 0.9360394164421685
Ni 7.553176826950186 1.1993882944520744 0.3969376212131871 -0.18813404606919212 0.7762373845484503 0.24048196354328907
Ni 2.53965330873578 6.4804322499534095 1.3751489967218808 -0.31871651897616077 -0.2194706513989446 -0.4045633395386517
Ni 6.834710243886067 6.699862391332422 5.0961546293095275 -0.8769786057242703 0.11704792875564357 0.12360449892723874
P 1.8965897593412762 3.3157832413482877 9.766966577656786 1.6378585339800438 2.277136081340272 1.165916864996734
P 4.04356972188413 4.1283207814886635 7.06848590149419 2.969173951121667 -0.005641771666809638 1.8213008310005214
P 2.465197266660373 4.713392815930845 13.654856507145547 0.2653327040383818 -0.4666269416386157 -0.2099773671965287
P 4.875665920098967 7.963974279594662 6.409330995921647 -0.4123512110141866 0.44369527254310687 -1.1997762367483402
P 2.506546107556047 4.850537826312028 3.7388447039454937 -1.0303587932520448 0.679424809003075 0.6669968676523674
P 8.828511972026966 6.061890093776094 4.34509747117301 -3.090624379820381 -1.1002776297303694 -2.0406645245079567
P 1.72177136058848 1.4402148201675782 2.429716960802478 1.4800606770005476 -0.6682083714619653 -0.14553446623111066
P 7.739621657156642 0.06698512225099093 8.07934504661711 -0.6238509283925128 -1.3295567825793038 -0.6866136134420304
Ni 6.954096817837225 5.889087568218891 0.4415868684569959 -0.2727737336974593 -0.850417053185658 0.9171441221995623
Ni 2.5301177597129 9.117644445201543 12.805240964437838 1.4153035872288204 -0.16641028123885535 -1.7081491519754906
Ni 4.619781290420096 3.248190544292299 11.345833156217324 0.6103760338345294 -2.3563666821378257 -0.30364085558996096
Ni 7.5822522817387314 2.676498282176223 5.858395664412112 0.4452867853999428 0.3218735765479037 1.8639014392798676
Ni 5.269989469465961 1.411270631540607 6.851471057488132 0.19882726411698015 0.09108184370918507 -0.09401367264399937
Ni 3.8187014109542123 3.8266523898838116 2.4375666772645777 1.4591141566558676 1.1347846623683036 0.5196603152155115
Ni 8.506253545363862 9.378873482887338 10.078298971599772 1.5183757705306624 0.5209998599625414 -3.0291698720593248
Ni 7.167104293453532 6.725862467478386 11.972285910480133 -0.22915368301466338 0.9996973596124461 0.19743346909324708
Ni 2.128368296062602 8.856827958309266 9.875294915110812 1.0349602965797982 0.8486519908654352 0.7097378581643196
Ni 8.464435896748283 0.15656771421687135 12.168948873749649 -1.016656356064288 0.23306870179835346 3.646148755922353
Ni 4.135831081161552 1.4542321709927553 3.4986520062673025 -0.6368504259759742 -2.272326318656454 1.9868220247662038
Ni 0.12980066864114154 3.2781473575942663 3.896110004049585 -0.24940806238832527 0.30356372249512237 2.266674005466683
Ni 5.0376483634807485 1.851837374399088 1.723232165443706 -1.0950770593660366 -1.7487764385785494 -5.63667702589555
Ni 0.6321178267501478 4.517346803620724 8.58333491067074 -1.0300605452853355 0.6306160150304881 -0.21487531871877832
Ni 5.728342777217661 6.973027273567014 7.990489106617083 0.1761313651813612 0.07815022324918154 -0.3927663469037236
Ni 3.61834236762096 0.012644681821293689 5.422198209503151 0.35024904236680326 1.0235641389277146 -0.20723785677817855
Ni 0.6610198226823277 2.864752710181513 6.750894924490464 -0.7321537639656746 -0.24220203155818934 -0.9644099971650617
Ni 9.061425023430465 0.24709729777696102 2.1237224115583375 0.3315926036078805 -1.2122921098271637 1.576525382288201
Ni 3.362260838699728 6.502241185083418 7.175867247354007 1.05118807129257 -0.22954629046739178 -1.6324203936836077
Ni 0.9280602008640728 1.2325048717862057 13.533463436153193 -1.385998153396484 -0.007950108085012115 0.6436687344493882
Ni 6.724943604347371 8.999111101300613 5.852083637271302 0.2422421407675054 -0.06941952824440303 1.05349923592425
Ni 4.876922324788314 8.29138021502233 11.965122528519977 -0.6765428594695897 -1.0516482987584403 -0.9780422432365155
Ni 8.27827235117377 4.979553710830047 2.5297295869208183 -2.0697223611058613 0.08275275501819943 -0.40118542420535425
Ni 7.885252087268116 7.705951886713022 1.837338089237848 -0.955560774304548 -0.4768635317649594 -0.37534840853759227
P 7.492100557200885 3.6370102910276008 8.010854113969783 1.8708513882351394 0.14881673652680824 -2.6159573414861077
P 8.688994794583062 7.2208202820003144 -0.1439867902454848 -2.6248505302106793 2.6552165440970463 -0.408924958941457
P 8.483150700926913 2.1902602912445386 10.620232257271681 -1.7846577258561909 0.9146555514497537 1.0242351968528103
P 8.854783956650476 6.791608062117946 9.834318307544745 1.8944255760106536 2.5811669732797995 0.6524644783641472
P 7.644341176163029 3.518111277105144 0.518304438973227 0.733438029994737 -0.05751094973227515 0.13915118841258617
P 1.8468586364136907 0.89549775425487 6.627979166023858 0.06433131508821824 -0.10889161819709633 -2.513039424373943
P 5.8702133694154925 5.235344578964938 3.004022357149308 -1.6473307351365372 1.033140726872556 -2.1022964383871408
P 8.342273981095282 1.261280289634011 4.205082419930566 -0.4727695642012439 -0.15016656568648332 -0.26735770488821053
