# total energy = -340891.23402946844 ev
CRYSTAL
PRIMVEC
9.08957113840499 0.00000000000000 0.00000000000000
0.00000000000000 9.08957113840499 0.00000000000000
0.00000000000000 0.00000000000000 13.30350614898411
PRIMCOORD
 96 1
Ni 6.4975526271438016 1.8390474672328614 11.314884407189147 -0.10738983684058924 0.1752088533670918 0.4769668901120431
Ni 4.747682941702719 0.40579571991543595 6.02694099382496 0.19421830459005907 -0.5132811511620451 -0.4567495346239037
Ni 2.75308564470707 1.678743791799184 4.774042697812815 0.24787877022799246 0.027355252084501274 0.13880048994138675
Ni 3.7911055716094575 4.4143956391893004 4.669344473414833 -1.01934393019878 0.41850514643072445 0.7839193265737402
Ni 5.365946476479499 4.592069484942424 2.933103690839778 0.3970204941943872 -0.3053681226937128 -0.9565429357121592
Ni 7.341073912237967 6.302790387774478 2.8128404849373374 -0.48537054079470604 0.09223164104291212 -0.5277356360244781
Ni 5.051111003243148 4.543731145979151 11.701896528483372 -0.00971002819891231 -0.39344331836609014 -0.030663233411811704
Ni 5.729629304659181 8.014047575299804 12.413993523355236 -0.9815356011017548 0.3670553152908646 1.0498431272289015
Ni 1.822795314155326 6.449686945876295 0.35645025647733514 -0.02730023047684976 0.2499261396753244 -0.5824093734182744
Ni 2.5248465150779236 1.5674601731592142 0.4546648898293406 0.12513533374946836 -0.1366227655637776 -1.167912298160208
Ni 0.6199341979398957 9.044832203628525 4.733227796826206 0.7206154243087719 0.3923750250025759 -0.1541036959573604
Ni 8.483160338348801 2.312523224396631 1.3578492104859403 0.8564594027249961 1.1508394018383212 2.068851528465134
Ni 7.387585247415678 0.612060811476942 5.0247339769480135 -0.6853638001953293 0.9719351018975132 0.48470076842119103
Ni 0.7233826063154162 7.446449309680845 2.375247627496267 -0.6064926396197232 -0.2303811276638613 1.276435220163976
Ni 7.680223988093112 4.080753843404057 3.8044963277133865 0.6286416649129367 -0.8351354444362391 0.7641367446301743
Ni 7.648355951913113 3.6026151362801215 12.697239101286405 0.17452519703650587 0.6388589717655707 0.4860007181795372
Ni 7.8845393666595776 8.497540039785411 7.266374908207489 0.30845344648725587 1.8010976165797692 -0.28890303515915405
Ni 6.625279279853828 0.891362424519775 0.5002954455701324 1.6737593616417108 -1.1115925405225566 -0.5467733693822197
Ni 1.8601170929787936 6.331331640941961 9.16989379410011 0.9177930686374709 1.3430987829297965 0.4731511159103786
Ni 0.25739938258666445 4.927011089391027 1.3683585725599037 -0.5657059446206645 -1.1086974783629486 0.7935164833438721
Ni 6.650784616283115 1.9667832095139604 7.108914450605272 -0.14985160554922577 -0.43666664783109954 0.3812976841424917
Ni 3.222534721885746 4.251346913291744 0.28087138196704464 0.7655467376038235 0.2964376529733024 0.6694237319263052
Ni 6.069779233332295 5.74853561248987 5.002250922900315 -0.4659491988453007 0.4925755431835775 -0.8732854731433992
Ni 5.129835778301612 2.9119258991980836 9.39604050446838 0.5969402200445977 0.29743292700703616 0.5267642732501444
P 0.22766466873736826 5.5469925531005 12.259459907638348 -0.15254226500751147 -0.07037854972356267 1.3281881843665513
P 3.714962234735568 6.191315888141986 12.610792735601896 1.3373055732867871 0.29130238862926605 0.7338674042226716
P 2.32303076855638 8.66746957098481 1.5711578106714856 1.588916299753386 -1.054408635112397 -1.5140393479388377
P 6.422354605661448 7.937458849443366 5.7278641099569105 -1.0572625596214245 -1.0875354995733528 1.0946849661339404
P 4.762298971987214 1.3824237748374084 12.56344515988552 -0.6183220281544836 -1.339678187284022 0.14153331549151754
P 4.165386839659612 6.2723585038239245 8.130078676910914 -1.1962988197227011 -1.1857642387399643 0.42401116385061816
P 4.715524039248401 1.1158266552825347 3.545038157278813 -0.5455232990252025 1.5184233359391464 0.997780087985075
P 0.17672034974762393 5.707087168399511 3.6476221474453436 0.9595953493852377 -0.08167649123488516 0.18371354840399326
Ni 1.3326583732157604 1.1347965901107318 2.5900460083805865 -0.08615355316963227 0.3021696703610732 0.6692900345619184
Ni 1.8653163276322335 6.574468577558849 4.969364854760203 -0.023106504110476333 -0.18229532790022798 -2.0166851308742237
Ni 5.958122942278355 5.283722216558142 9.12790815635937 -0.11381168120653302 0.9132172763413304 0.570953823283165
Ni 8.65944347972784 2.3750776525172124 10.099756005854342 0.712983618795127 -0.6248006939002917 0.4091769270512631
Ni 2.3697329847266135 5.428891756156195 6.933840222178868 0.23611854436827076 -0.5780431260297787 0.18423471101478595
Ni 0.5448088930261203 8.944110666574739 9.219795539287846 -0.22609766979715898 0.3718699630706886 -0.19664876840842263
Ni 1.5837941323764018 0.9584589113052578 11.393574641877535 -1.7227617596823428 0.8587793091074242 0.7579943791778623
Ni 4.152197872033492 7.164608979437478 1.2838573750848992 -0.3373685868597093 0.5530879987463378 0.9207994595639627
Ni 5.700715379077726 7.833074215247383 8.115790780142135 -1.097049866821691 0.27307892364270386 0.015469813500824972
Ni 5.650304617909934 2.675433439035155 5.096679749900647 -1.2852412484913802 -0.2706574586854048 -1.4480807816598413
Ni 0.8328410390840388 7.468027951406834 6.896843849999794 0.008711411731068867 0.04360873782888619 0.8303848171251311
Ni 4.942554255924913 4.4840399327463905 6.964212114960343 0.44808697385289925 0.8855840880050942 -0.040643741663291294
Ni 7.982224986975168 7.137113026943324 9.271838787420247 0.4663945139128355 -0.4505374922759208 0.016923515228216016
Ni 4.433156513882832 0.33122578779418715 10.588380442167452 1.371908250962321 -0.21072710087835966 0.06400941297242524
Ni 8.310558473254101 7.133049988673941 5.030282251130635 0.4685218446684834 0.2837816547721887 -0.6698407648590657
Ni 7.267139341134681 6.248798335604142 7.009364559262725 -0.3504339046840997 -1.6861777899107218 1.108266561473117
Ni 2.4050368787719982 5.571825261270425 2.638617040363315 -0.13278925075030035 -0.5782629553500687 -0.08600622895849058
Ni 2.4398317568373256 5.116355944401174 11.202071013737683 -1.0454066887241027 0.2963697758498444 0.47426543202047994
Ni 1.1131361422450903 3.6554709920664017 3.784581077493655 0.22202452816904988 -0.22532942417256677 0.16454057501996824
Ni 3.581327360828451 3.040997808426832 2.5746273689703947 0.7881523908184813 -0.946141537873177 0.3010224441305074
Ni 1.067470137177116 3.190075863586037 8.08382184972323 -0.3623118870686083 0.20139116818941447 -0.11433541492048696
Ni 3.8603317448972145 2.442185955745089 7.033391022478525 -0.9612174583696929 -0.050703439892138484 -0.5451769714293772
Ni 4.092588464940383 6.97648212695104 6.013477521152451 0.981142479428394 0.4775898684080227 -0.5964825636818889
Ni 0.6315743026552715 7.456011538449059 11.340919665611958 1.1009615431712716 -0.36073477238947554 -0.39354307716874803
P 9.3187191591835 5.637161098139176 7.991496349469064 -0.6591202931177681 -0.09396456457361882 1.2751509541349135
P 8.706345666461667 1.4216543635860899 7.807601601273958 -1.2811344254118582 -0.05302874559120545 2.211073899603876
P 1.7936359701549156 3.2989961937471715 10.330877438470562 -2.2137254782941103 -1.1024301572969983 -1.5191023642840418
P 4.210171156333559 6.3618907788875285 3.455904914385289 -0.03964075432007366 -0.25442839842105214 1.136205196864914
P 6.895321346845159 3.92000477898783 10.669731194308747 0.26950791846199396 -0.1756297429545943 -1.7583005760189008
P 6.209295059723287 7.755658338423351 10.38389236175061 -0.06728242729674219 0.06596576536784768 -0.9161971849052607
P 2.4864248981546893 8.535552626010386 5.8076187334178835 0.3395601951943894 0.3145546742889873 -0.6511048790124593
P 7.05894271572028 4.092070359389254 1.662618892716663 -0.11677436337928278 0.5675003175169259 -1.1529266233846531
Ni 5.402150238061055 2.906781201971078 0.5980546914114082 -0.6846055818730661 1.6574166586176293 0.4691386523168759
Ni 1.533528804345769 0.9089152952177776 7.06750054688499 0.40248768795654555 0.7243494374299074 -0.41131891309493035
Ni 6.872315642460796 0.5481793059797837 9.242318587448262 0.15512210991954575 0.606142455369156 -0.06165736780048091
Ni 2.8188759601294424 1.5250300553930312 9.301571683355329 -0.2911020996930019 0.3820667010980323 -0.9487596922223144
Ni 6.549944914805387 2.020902515679311 2.768007084579599 -0.45670711142174253 0.4130292109178177 0.2875938294294273
Ni 4.176567012078722 6.607590974546846 10.517845370645261 0.6167716529482281 1.5671750514215526 -0.8196833715472269
Ni 8.147100716658287 6.851964092829587 0.5561572225100705 0.7664692494180929 0.40153792244876657 -1.1177184509146365
Ni 7.717936618472695 3.783888452177935 8.32788864946083 0.014986188996187092 0.6319743288305956 -0.6335586425985799
Ni 3.0372165468606944 8.546923679422017 12.618548866598015 0.7622832363612033 -0.9919192583289239 -0.2494707973054607
Ni -0.027826812881189582 4.872700902233157 10.174641346091803 0.1591011491719518 -0.2866399501565902 -0.23114577374402773
Ni 9.025262357109545 2.4695364751020827 6.008820933892037 -0.20362339995404288 0.6194461144565976 -1.9395867459283243
Ni 3.314266673148882 2.73421569516067 11.570444969547856 1.5449131546995587 -0.35569438175209067 0.8784202232668032
Ni 1.1331422881755464 3.5084653591117148 12.788513847124596 -0.9730561028758339 -0.6324960056620204 -0.7574976420471019
Ni 3.0391162672148355 8.42677772898641 7.9265213685718905 1.4031823784852546 -0.8311111537681944 1.100204610400589
Ni 5.549755782706524 8.161816732224578 3.7257933676254957 0.29909308831827847 -0.33184971392400914 -0.6489322968411727
Ni 3.1134144211610186 8.565884524679142 3.6251118246844283 0.1958779516806691 -0.7080666411094838 -0.10753998926520833
Ni 3.1209133172957877 4.019744642365792 8.744115561139006 1.1440411479695654 1.4518973271924542 0.8438849084940951
Ni 7.204184971886912 6.055835831307163 11.395903389986298 0.04927982007173449 -0.3044736359039014 0.7107606430018791
Ni 0.6330622654398311 8.652180912440954 0.30996346314151885 -0.9767996290786661 1.5192843983878608 -1.1634684034562415
Ni 4.44462755257626 0.5734846718454765 1.3474452874364176 0.17640621610930263 -0.6681870313057265 1.1709248597342867
Ni 5.969575801829638 5.941207250512532 0.32957693960164525 -0.26322902743181764 -1.704601286723232 0.7089595852373983
Ni 7.858370491542003 8.866794775032503 11.357761731852095 0.8312764757014652 0.6997110700559369 0.709560709156507
Ni 9.08894389204311 4.9533072185036175 6.0274191052633705 0.28087656531025174 -0.7330297388127247 -1.446172508893535
Ni 7.8602156744697105 9.043177901693339 2.8254386304437493 0.641214873592257 -0.8336478041471191 -1.0864841754907029
P 8.780534745554979 1.8458282872529068 3.7342412149802287 -1.6158879432462234 -0.0914140302376232 0.8950370058878779
P 1.7124842796201079 3.0423067066612646 1.664361363491251 -1.0063482892700604 2.4635917112657766 -0.6540899297827122
P 4.891961703335672 1.0901031691475094 8.339116087649517 0.07224234240517881 -1.432543348145875 -0.44558580469760034
P 8.66887845450104 1.4746192942252392 12.82990139108877 0.12825973831106297 -0.9776558064313743 -3.128875709992095
P 6.469538569098519 7.91518940031587 1.4912832048723565 -0.823478062702969 0.3096158422264732 -0.6314505951166416
P 2.090519540523183 3.5317164819150344 5.8863489622189915 -0.2990828039056333 -0.6580484002098279 0.4993210894375272
P 6.9553125159233105 4.018726610405678 6.09871315597011 0.7193396429201419 0.45214623152393746 0.5587840206898506
P 2.503695083192339 8.562212337965873 10.144854821687396 -0.880793094374354 -1.5566911211710932 0.4672506912655437
