# total energy = -381173.05845609604 ev
CRYSTAL
PRIMVEC
9.15729015305776 0.00000000000000 0.00000000000000
0.00000000000000 9.15729015305776 0.00000000000000
0.00000000000000 0.00000000000000 13.40261977207449
PRIMCOORD
 96 1
Ni 7.941650490966768 6.627268045359538 12.536005677384608 -0.8585569086839729 1.4637112891082469 -1.2002372355451587
Ni 1.831796795685575 5.288005243148892 0.5588922945889004 -2.382888382577438 -1.2189834058044102 0.8818459611189006
Ni 0.9711031198831626 8.209812567806834 2.274290778612336 0.09224192545555727 1.8143148866009913 -2.2168393413327436
Ni 0.6883388286007668 4.907776252759832 11.589835110657178 0.112414029528058 0.9974170482187015 1.013545578349448
Ni 5.9117174141519575 0.3816108254319221 13.085741597822697 1.2801082981401888 -0.19771988998541432 0.6714402481357017
Ni 0.84422520568258 5.183804441606646 9.355618464016823 0.29961502226001946 0.8859147318716354 -1.2320435814224782
Ni 2.7598881250033167 6.557068261140991 7.798166747298156 1.097563316123 -0.3076610324929476 -0.6334041192985865
Ni 4.105304626013188 5.677180905750517 4.846307028712685 -0.6777600197061424 0.6331475232030902 0.1916230330590571
Ni 0.020112155763004985 1.5635614605264703 1.204581961303486 0.5060072432084511 -0.7637431087361815 1.9182635589705155
Ni 5.665871652748963 0.20928345009991572 8.784371153922097 -0.6234963732665714 -1.2885073208371616 0.5113237703253581
Ni 4.267297083986852 5.511818565101087 9.526581403156738 -0.41698819556556577 -1.0384765372631728 -0.3101226066595627
Ni 5.899538218611823 5.37373579100358 0.5960571555660691 -1.4769344726667402 0.22709011561741538 -1.4831496003385167
Ni 1.4326580016947277 1.215181524339355 8.313389757908265 0.24164693038566773 0.07298256300531301 1.098415122600334
Ni 4.61694072617738 7.7437889285339265 6.11089762632749 -0.1325956466822555 -0.26213656569858723 -0.6454811050677787
Ni 1.5479391239915312 8.518083574320425 6.976183683004622 -1.8020599804930384 -0.7278674778854949 -1.6316205234901322
Ni 8.195453937275307 3.3632436406035864 10.446859732749036 2.4194232442786783 -1.175551045652388 1.6243928953934412
Ni 6.0014130685246 7.7436515691857295 11.552012756266638 0.7121567520184574 -0.3730750391223833 -0.8807738111006445
Ni 6.72707334775948 4.413282599250626 9.316536066538825 -0.5974382427269388 1.9692392786874344 -2.9340783929701146
Ni 3.495712996004775 6.245985966634301 12.882235481907948 0.6945904609999198 -0.5556153931538818 -2.970571602800142
Ni 2.6230049558800643 2.1411025759555833 12.412433544830634 1.0761671098354113 0.009569388855989971 0.208790288866963
Ni 8.159300956829856 8.092819032302508 5.53558997390006 0.02700095406887608 -1.1030505644898163 0.5013494327214655
Ni 5.988904210548793 4.237343588790027 5.159995487919167 0.9265579593142945 0.4671578744414212 0.40038735378409107
Ni 3.971626508347866 3.3048842321996204 4.846307028712685 -1.177614098829004 -0.04673237105953242 0.4761521075202316
Ni 4.912309111250333 0.12353825058141937 2.4802885931033796 2.4624635111986044 -0.2827313591308034 -0.12173247871550646
P 9.053510313592337 1.4753492871143556 9.81229892042537 0.7098592142335323 -0.2952644586008076 -0.9861443035183596
Ni 3.2039800550141027 4.796423607821462 2.7411843604238246 1.0992268198683521 -0.5334941357748103 -0.4939091743933365
P 6.796394032149566 6.040130090136395 4.369200321498256 -0.020124538664016953 -0.2403888896088505 -0.1841056416360894
Ni 2.4757465773229987 0.4394583413316074 10.767690878061758 -1.627013877956056 -0.5822715622888295 -0.9935472808506501
P 2.243728323638503 6.281543723237565 10.900189536790565 0.5873086104921047 0.14042517002900332 -0.5368908201611851
P 4.970402958247784 3.4143504754227507 8.809180083664451 -1.4704360094265903 -0.39005666128204436 -0.5822854462459004
P 5.490335563043075 3.4239381579269015 12.894861553194215 0.45959883114724076 0.22398422299858198 0.7864446640987552
Ni 2.5334924473050187 0.6180795219980004 2.7242433741461944 0.9743164576454962 -0.5304237243796027 0.02964250545678121
Ni 4.773484596672563 2.228389863089838 6.905417978271503 0.2918374351971296 0.17659699196387005 0.17698291454837906
Ni 2.9614492325475967 6.987964536434985 1.5114134418479725 0.6226288830599535 1.4028347653378486 1.1700581408586173
Ni 3.8397706913686243 8.766786410165917 12.379637626855118 -2.296117507538781 -0.6158918214464361 1.6694015988936477
Ni 0.11367859656783859 3.320643928082756 8.080680128837844 1.581160309957051 -2.3598610684443293 0.8103163285100303
Ni 5.789989559779775 5.108815394780963 11.397707843147067 -0.9579045919463761 2.257050109223674 1.4279076491460763
Ni 6.810807606420372 6.6920650285490035 7.001903763090017 -0.4006994857078712 -0.1452411033604079 -2.27359772916971
Ni 1.0691044361767834 7.698570231107474 12.24732669256885 1.4241209284101344 0.04994033647386883 0.5582484599013547
Ni 5.740146430964023 4.267562645393367 2.7704684577304373 -1.8129432030644455 -0.10351826970032493 1.6552697874779558
Ni 4.117822641278875 1.3267356296550799 0.8243667068492455 -0.9469488642658208 1.2794876338370547 -1.163933258907802
Ni 8.506371400564161 7.027514871425841 3.3358715854238756 -1.1695791443396697 0.5088076887717238 0.8990862362565871
Ni 3.5741543411151424 3.871967722586002 0.3784643806292228 2.0772127559456353 0.10383091584473732 -0.14021433956977788
Ni 3.746613581421418 7.820966567640882 3.6425638751621894 -2.490522988438982 0.31319533204761546 2.149850019796388
Ni 7.946915932647653 0.2585432595503245 3.2764307010851055 0.4223651436067629 0.3187661412671736 0.330121932599625
Ni 5.1547758326876805 4.947839395983958 7.350693030134759 -0.5244338253447549 0.23850889897731825 -1.3386844559121849
Ni 8.712904916513173 7.865443524587071 10.49187880125611 -0.6132312438951375 0.5771218997670899 0.9495112256763584
Ni 2.463219404767432 2.0122961365063152 6.277907363426296 -0.8749145241063899 -0.39785430294959223 -0.33601978614129874
Ni 7.048109616365513 7.2355684974949 9.134394823642637 -1.2745829974465857 0.21522318897650033 0.08442371496271912
Ni 1.3923384543539676 4.894489025144242 6.7534454268843165 0.30499634117659086 -0.357038811595127 -0.8163478794160909
Ni 7.575679400920556 5.357161096321143 2.0707452863511033 1.1976666466045052 0.8111987311149835 0.6011344606316035
Ni 7.249249488575322 3.0848895001273022 1.635361023287019 -0.7784853000423625 -0.33855875051306855 -1.8609755238823238
Ni 1.735224016613203 3.0389199049307054 10.272102928411918 -2.3261323087333166 -1.8974137121047001 -0.4114497822458398
Ni 5.968703229073953 1.641398424504771 4.2975362866279285 -0.4549122243048488 -0.664382569957972 -0.13078661849797474
Ni 8.331476321149859 9.040735894210016 13.271568649895505 -0.308855567021681 -1.4257826323832736 -0.5188601879117193
Ni 1.4205886936331509 7.746600216527025 9.233493183263857 0.7142403740203634 0.4527301290518655 0.721437405989435
P 4.941969573171006 0.7502888103666026 11.06781647522727 1.037567138075026 0.04042571211521425 -1.1770266017566502
Ni -0.0911434219026385 6.631571971603044 7.576607950114369 0.4606213588744841 0.5565343054237254 0.19044392514929137
P 1.975831808204951 0.6996673119110675 0.5030996745382422 -0.4332601932527119 -0.7703493011987894 -0.08898510908115642
Ni 6.138442754285928 8.050924431102423 4.197981893970693 0.005743587351996559 0.4823821475903434 0.7359492264523647
P 1.7325043015189026 6.860385173829609 5.448164411688619 0.555307889215792 -1.3126648919199717 0.7570520698692511
P 5.024531698727283 7.216466390805637 8.164393325732014 -1.0210814817151768 0.04671077379297762 0.4370145180888216
P 6.954540428373714 0.9963497680817714 1.5453219705438843 -0.3779341669868975 -1.1496024441074266 -0.4584572613436298
Ni 8.131417009145865 9.11204371050402 8.175450753261872 1.060045007462568 0.4952523186847922 -0.09489401836642368
Ni 7.577263612069761 2.169435230843685 12.917284093193896 -1.3670419240089553 -0.4759451337157481 -1.3182619263917748
Ni 0.5515719570589881 1.3666156270816092 11.970294864751208 -1.1464626129268642 -1.3942326254911344 -1.2941673473364164
Ni 4.382111184499786 2.4467912267230707 2.846971204573252 -1.1026343028880043 -0.17642652782427679 -1.1160271792551426
Ni 7.7984762636960925 4.444783676437138 12.715413469251676 -0.6747099200259089 -0.7801236069767339 0.4908716731185933
Ni 6.400524390645807 0.3210344371480564 6.2822231941466455 -0.021008741041183172 -0.11812522098022236 0.7715968004526453
Ni 9.057145757674618 0.991468932575838 5.863511608766713 0.49113135453788315 0.8025294854757599 1.0901449121717421
Ni 7.244176349981912 2.500480417288339 5.987178061406451 -0.3396031326171829 -0.3456709360778176 1.188956520425017
Ni 8.853716562994858 5.48875135189387 5.201811336426285 -0.680956158045937 0.45147260249568055 -0.05316655672065037
Ni 7.889792758377459 3.1951341129902158 3.7761614086765687 0.47618450342006374 0.3091463587892224 1.0723623913773401
Ni 7.208417133001293 0.8243685383072215 10.64059410463305 0.0060477488559766805 -0.6064029081193943 0.7101019263719576
Ni 2.7669300809208828 3.825119027560944 8.35757826022324 0.697409932726586 -0.1708318073453187 -0.44804455065073806
Ni 0.5682171628735009 3.2587864349447067 13.212141501491555 0.9336740015337855 1.4958544494996948 0.8337329076617577
Ni 3.566434745746471 9.206556099353437 7.554051713682445 0.5360631820535671 0.6849421392768784 0.8174717086078889
Ni 7.737479555806744 4.4642520747215935 7.2264780558312225 -1.2689929049533177 1.6160818044245844 -1.7577249060210889
Ni 5.8420395954565585 2.960982210763727 10.841016961045272 -0.9626953284668001 -3.071387900188272 0.1930919042950997
Ni 5.260368542291656 6.517902532325085 2.6366172672863875 -0.023399609870862925 -0.2191978573535322 -0.6763310005690997
Ni 3.298785477139673 4.110505966664915 11.319208807110458 1.386222096481832 1.7457029418595484 0.5796176696057501
Ni 1.0019448721983293 8.630013128521222 4.447766205750989 1.1164118162880707 -0.11812959185559653 0.7033198704531178
Ni 6.758986502990583 2.149179305629567 8.38253462233266 1.0506807926388486 0.4872369045794834 -0.04733658030243461
Ni 0.017633277392543095 6.798408635923122 0.8965371398499261 1.3546209246367833 -1.08889381337346 0.5210235141116252
Ni 1.414261006326209 3.887782362208416 4.2381759864401 1.1542939360458249 0.991117588363235 -1.102192330254579
Ni 3.9759579064610118 7.601649475019669 10.259517149201121 -0.667627816368147 1.2865977625192746 -0.4359547093657395
Ni 3.8433420344217466 1.769591325532093 9.572821138404791 -0.39934477145218966 0.7229520428617485 -1.0833592567084762
Ni 2.2174835308429963 2.6711997725174523 1.7022266382603313 -1.6196612942457267 0.9799690279455833 0.5125581569530915
P 7.635155998689858 5.787929169556819 10.51373816792818 2.319913581517114 0.7441122218791314 2.199802954675747
Ni 1.455093361900238 6.189915880700284 3.315446250346982 0.6260199110193735 -0.26230008785964504 0.65707266656012
P 0.06347741771778641 3.1917825448942088 5.627746192063404 0.3578548797385192 0.08951964142838775 1.4212505488408749
Ni 7.126953882230591 7.571494519445487 1.4693292847473751 -2.049225269593774 1.7429436339468565 -0.6734361955198079
P -0.0009395379416674915 4.035471133389833 2.0638159650990584 3.006012717216571 -0.992617569947529 -0.466557521853261
P 5.081966220853389 7.451552336599866 0.15239287099266952 1.3907816908280564 -0.22319206611458983 1.731892004118385
P 3.4741750502074846 0.9597572377220902 4.62602109482219 0.8121641803520463 0.08844029232127995 0.16128581552809643
Ni 0.7811708547572405 1.7377331140402683 3.718449420667105 -0.5994586155910773 0.025215322923363023 0.02574985527059436
