# total energy = -340872.84615165513 ev
CRYSTAL
PRIMVEC
9.18431834257056 0.00000000000000 0.00000000000000
0.00000000000000 9.18431834257056 0.00000000000000
0.00000000000000 0.00000000000000 13.44217825947587
PRIMCOORD
 96 1
Ni 1.152879902518836 5.470271724324201 10.929929132179906 -1.0298581994665423 0.045617283618482725 2.0614004715037275
Ni 2.578552422280293 0.5325940164834342 1.0720266762501105 -0.27948379872778323 -0.038614627048404467 1.6815978838495231
Ni 0.061313589436738695 7.95785347547837 11.76401584164569 0.2028505263437603 0.5891510630174821 -0.35095558151552464
Ni 6.035392003482362 5.941188452372755 2.4067147484082403 0.09374730635649016 1.1477772179732297 1.9555748938264643
Ni 5.738417076590565 3.762190606232889 7.19281538818253 0.4135259480485781 0.10248520045012026 -0.2311871685049244
Ni 6.773296859712284 2.7315907153620316 1.5141404641958232 -1.4311932618758836 1.8930433509511462 0.2874179659731953
Ni 6.078640957579578 5.739464088857944 10.731750833896976 -0.5405659550199271 0.2274109892919438 0.24758257914381232
Ni 4.455487229281631 5.595784615955663 13.05126599220528 -0.41363470571230054 -2.3148976163597617 1.1823806669797121
Ni 6.430060522375026 5.51979356770755 5.674857002938031 -0.6254864071134066 0.2956573231638521 -0.9985221083574223
Ni 8.289949234918 2.0876230650158054 9.49195238141313 -0.5576655908146912 -2.4572002059171356 -0.13947386185932753
Ni 5.7719949436917375 1.869017924769059 8.67263772923551 0.4586544649561004 -0.36818325824772075 0.4368959902330863
Ni 8.288718536287925 6.504481052222072 10.191832323700964 -1.6563817895952118 2.3427519195678688 0.2030708698846825
Ni 7.840128885625299 4.493317435679259 3.171883253021595 1.0414587598199485 -0.9123855244686545 0.43842142573867715
Ni 4.33166425218699 7.374557430731253 11.884713395279027 0.32050549255578353 1.6562010410429735 -1.6123760734382233
Ni 1.6752104434865265 5.363706081005027 4.393522471689129 1.2569115483087514 0.8825730690929121 3.2083824472691713
Ni 0.9530383242216781 8.746804771902031 7.910237378108012 0.32267421807232816 -0.2094909144784134 -0.3182506350833358
Ni 8.493436987514713 6.421252761283664 4.630978424907744 0.443565688943778 0.8247343037075732 -0.6779145430061357
Ni 6.860951991991713 8.931896335274551 10.498085248772632 0.9564976842965205 -0.4924019937201907 -0.8770215431470638
Ni 2.751603344577965 7.082229768815712 2.95666069714393 -0.031478787334571594 0.31117804450727055 -1.1829509376608853
Ni 6.044897772751978 2.0355479811909567 12.766936952953419 0.7539271510870241 -1.0775123110093958 -1.7859404492233564
Ni 4.316464205673741 7.740745379087611 0.9528867829724523 -1.3543208768978612 0.26237567829258684 0.8708866338939195
Ni 6.573244042098024 4.226760970450231 12.378431111529268 0.6776252939004911 0.26746312011782325 0.08220125339010359
Ni 5.129928447199434 7.618391892894554 6.440121024459989 0.6770375397178211 -0.14718305757812716 2.1645814124692913
Ni 1.4704828079416048 4.071793970560165 6.824177063747783 0.8314510536061165 0.7844183776973458 0.737327337746814
P 3.3791953556896757 5.428675947491266 10.96737910780675 0.5337939264034162 0.1288832308276748 0.8496097267930142
P 6.827594548525777 7.725086116667617 5.063896873536801 -1.0330700215356208 0.20053241973354496 0.6386591970499388
P 6.52284968849186 2.787504844167266 10.590863393707703 -0.9834431025371128 0.15915617077960334 0.4624090469025262
P 6.977996942302801 3.3208290139424244 5.327175455623485 -1.2353718744647626 0.2424267459744857 -0.7575192393136566
P 8.242585706296353 6.5195892555539725 2.2992168967983737 -0.560030491502442 -1.7269742551017937 -0.001408450311752413
P 3.0238632713687625 1.7914288051654748 10.937120453279526 0.7690503798817078 0.4070357123385441 -1.3233650519462952
P 0.06056414907693135 3.6837748979971647 8.368333716472067 0.8034383704432744 0.3927918008250203 0.15838535405184984
P 3.8064682039612134 4.829637981460942 4.844264926522573 0.12900587244846815 -0.03254116716081493 -0.5174532802618638
Ni 2.262134293896926 7.560943982960792 10.361822112764276 -0.15147782829873913 -0.5366789612606951 0.08331248417641135
Ni 6.279400967690226 0.7492043228312817 6.375813347311275 0.44871278036235623 -0.5778091556421016 0.1255294838640935
Ni 2.361288192481241 4.647219054665677 9.233997030117433 -0.2840472497287495 0.09619705344856337 -2.1500374532168456
Ni 4.4500041913551 2.5741163966211396 5.029350979304211 1.0778910345050532 -0.05700444240950183 4.126361406665203
Ni 4.0828794425489825 2.5822169652161158 0.5249921563631825 0.40855754829970925 1.1651984987734707 0.8133818548092314
Ni 8.939078472056037 2.473052159864766 0.9544481170553843 0.9916217816931632 -0.9835821992181383 0.25451401615632296
Ni 1.5019942034624258 1.7984823614930732 6.038535795579937 0.30663181989748484 -1.1153126696866211 0.8024860338323341
Ni 2.3595339877174766 4.495916597711434 13.053214904513505 -1.174686640769564 -1.289737850810153 -0.9138667369998713
Ni 3.5003089589345224 3.0683888456867283 7.208986217122639 0.8612961619920071 -1.6018276084984153 -0.6693532836996859
Ni 2.2242306129542184 7.8022803105914 12.962319544796085 0.7510200047425581 0.00393173095423839 -1.0489293571653806
Ni 3.8325516674643123 5.380889940235413 7.055825772609706 0.2636666291898685 1.141994806963498 0.13640010803001026
Ni 0.9916032760700979 6.553543679698676 6.417483517121103 -0.869046238251071 -0.5199742469115045 -0.645005965203573
Ni 1.947424448686649 2.1342059265959876 12.688112542560692 -0.4430676662614369 -0.5539999690376459 1.7228144672971488
Ni 0.44333071009858616 6.036824757111406 8.528094011996734 1.9552231669140006 -0.2318345722809362 0.7566522633276711
Ni 4.6152759961925165 0.3089641357850873 10.562473747920933 -0.4601187082064527 0.6054767967606991 -1.776316295870031
Ni 7.933707903101734 7.8481376110389265 7.718619438268838 -0.7564288344629553 0.14944228592594908 -0.3127374185745904
Ni 7.972208564723209 4.849797559767033 0.748394265971784 -0.7998061730073258 -0.19175287376870204 0.5729140323333295
Ni 3.1273980897034224 9.038416057003051 8.650203195327403 1.1153777185966016 0.4505534331155208 -0.5198091820885499
Ni 2.062265162645363 2.8829115409525445 1.6635638096596674 0.1571496818725358 -0.30144461926959054 0.5769874310717548
Ni 4.295266799418405 3.4218565134262584 11.601218292113815 0.13901749104819927 0.10918369551621841 0.948849166612327
Ni 8.139748896139945 4.28619269310113 10.123734278457981 -0.6632942219897996 0.47713863980321697 0.6415092649042242
Ni 8.986735898858003 4.2165847459567685 5.412009165371875 -1.0425167687708174 -0.37971337037450736 -0.8555088658862685
Ni 4.6890536237701195 6.962016228748085 4.221798683361948 0.757137944714838 -0.7200729215417405 0.0033396058961942484
Ni 6.306164070735306 6.850270630000831 0.3517805084981495 1.4198341281093225 0.5651847820098717 -1.5654853224239555
P 5.834907522915762 8.945323808387766 12.369075046645252 -0.25996886862330715 -0.635312392064893 0.5986734006856206
P 2.4259917137415696 6.138715582499919 0.8175971846863966 1.7031632687251248 0.7614802808439337 2.257518564219661
P 5.516781111359305 8.906621091767322 8.478923009566138 0.7250078969495126 0.6310361332870422 -0.7324682098822998
P 0.8270202950927978 0.15636209781475643 13.336280181590004 -1.3402466581929822 0.6324070454926398 0.4932717979196537
P 3.503945948915941 0.7552705649593792 6.660262701130704 -0.9402143737554646 1.6707851095047355 0.887307241343788
P 7.606020616366851 0.9148618690303644 2.109104266701509 2.6378752246051214 -0.6114751804359791 0.9004959721199202
P 0.4977037103207855 2.760916243166748 3.1645036534002076 -0.26560575519411034 0.8385069320116333 0.007693254879199653
P 2.518468613041817 6.8770888389547205 8.192321770007704 -0.3000312838618317 -0.14675265490892792 -0.6539253791803898
Ni 2.394700741855986 2.975397624570927 4.2818310604188685 -1.643505447853176 1.4827549360032592 -0.7728895511221399
Ni 5.754471264690361 0.6435984407572033 1.2212176584651417 -2.9012415489457517 -0.5502590139379749 -0.03498654337751393
Ni 2.660614304815571 7.960020974558205 5.882270133105597 0.179941997176703 0.46146416649075367 0.18373206034675454
Ni 7.949192663477165 2.4168900544698895 7.069537041153289 0.018350734593045818 0.24603528926135046 0.6016648792137768
Ni 6.825326021946458 8.231931897259875 2.8389480469044344 -0.8368159174624556 -0.4484582411493889 0.7596229159202208
Ni 4.657294251659656 7.204721019780794 9.443990035249088 -1.184797761061637 0.2862923370091844 -0.39254728891438206
Ni 8.79122013440238 1.4032903364667204 11.995517601417454 -0.8025361703439792 -0.0738035162447116 0.4371610709690149
Ni 1.9367430866957673 0.22295207801999173 3.5550263710867807 0.9723775887515704 2.0095624037865134 0.20186965048772973
Ni 3.969783749035898 0.5824565980695872 12.720373378441318 -1.0377106056314256 0.06563794971478372 0.5287622775167797
Ni 0.34657208168385123 6.483715308919077 0.40242283869395495 0.013346596510235077 0.41455464642340867 -0.4559949158460663
Ni 3.730256732077863 4.724642856542834 2.3125516082984263 -0.9413662279717206 0.6485926541135669 -0.6087269282668807
Ni 3.9844970266879978 1.901870230737575 3.060622586271862 -0.34156874098398593 -1.4679476957870976 -3.322754628964865
Ni 5.4492947417041036 3.8732381968018923 3.5052767566136867 1.456301369797421 0.6296436238148897 0.3868705502445789
Ni 4.483370819139169 3.812419642112624 9.350903297224683 1.0390097840588235 0.2673204238923719 -0.47428265841166056
Ni 8.459115190644614 1.718569609401361 4.744268825965289 0.8803179545101484 0.01904467533627688 -0.7193309011693934
Ni 1.3312760979710168 0.6658281643709006 10.28758067712086 0.04126749129021925 -1.0048611632015727 0.6623226021051497
Ni 7.757111834003992 5.2197418942405625 7.5811999966073 -0.612502593259229 -0.2261444638746944 -0.07048267940159474
Ni 2.024765591700591 2.2451708583017767 8.66551345365827 -0.6115037196810694 -0.3085143816321783 0.28293859004560307
Ni 6.3177454959034085 1.6509362906560017 3.7384583281723236 -0.1224690997712149 -0.8522451075333322 0.2908010235128153
Ni 9.161568578873844 8.366546448163016 2.098203399507203 1.1158952816629686 1.8634340127251456 -0.3400003680556015
Ni 0.8535198082074075 2.903787496073159 10.781460037370277 1.0420526846502054 2.6579982206072414 -0.2525998298527456
Ni 4.373627401745321 9.27919214122743 4.911408721111343 0.7090045795427209 0.6976207631858115 -0.9197851593668352
Ni 1.2806429520933462 5.040858929927233 2.386067482809185 -2.0460751540005666 -0.4821116675377761 -2.8115103057271904
Ni 7.570413014957867 9.028570467962444 0.01277630495745101 2.3222072626472974 -0.38212377958821286 0.5841446109418262
P 5.8202126138999315 5.6948742243130335 8.594538879975438 0.9652155237854924 -1.9146002511863154 -1.7317014853741337
P 1.0419700767218565 7.696761679539604 4.152234820944634 -0.17631982704308344 -1.587504249897208 1.0818222512386595
P 8.94060306886643 0.5475837421113947 6.458079121709147 -1.1423313643673103 -0.4700683632199969 0.45107845238105543
P 8.758239247979976 9.025585564568603 9.571059668804413 -0.5437638931319344 -1.2180272125387281 -0.13515749387216075
P 7.806045881026707 6.31150015957168 12.320750838346694 -0.03921215142308731 -0.30336317644854205 -0.7474852521164222
P 5.632769865084881 4.480790025743263 1.0787753132156306 -0.950072754606783 -1.3000834557105352 -1.219344645798571
P 4.528667876180466 8.948979167005453 2.860750699724859 -1.0428548688365264 -0.9814767228393612 -1.5404026684237149
P 0.08316491914327845 3.8178843114028864 12.775606949272758 1.2989963932939435 -0.4088730226575991 -1.6618212154432281
