# total energy = -340861.58575406676 ev
CRYSTAL
PRIMVEC
9.35802157653379 0.00000000000000 0.00000000000000
0.00000000000000 9.35802157653379 0.00000000000000
0.00000000000000 0.00000000000000 13.69641050057651
PRIMCOORD
 96 1
Ni 3.558125693316208 6.811133091976728 10.351528141744886 -0.7627079826034477 -0.7307401714475996 -0.4622421823073587
Ni 5.780786838442754 1.8314864837279143 1.5111108706362002 0.052774720598870395 0.5610473628027306 -0.4730377302609659
Ni 8.602670181443482 2.704112641015086 2.352618798657353 -0.7761787633963729 2.7919771207902686 0.8429683102170966
Ni 6.885108252818722 7.4407782181111655 10.538100890225468 0.047834345874459554 0.3864946549623989 1.151163103726327
Ni 8.5423203000684 8.23664988213761 5.5622901350353695 -1.296697827067754 0.9605345733700553 2.6002856963871217
Ni 1.4954492856665405 7.892078168366194 10.764214087422772 -0.7013632609473792 -0.47481616231762747 -0.305528559530977
Ni 2.4450170966466755 8.781071505452562 3.041205423914281 -1.1470807061268375 -0.1200841444788061 0.26053168310531255
Ni 7.906732830210413 8.28054836151899 3.2505284587355305 -0.8469041549363931 0.39896604795653223 -1.2288039914392581
Ni 3.4861531490991586 6.984106763450911 1.9695987172913219 0.16436111201931047 5.076944782359818 0.13603141183668185
Ni 7.774307466380551 1.580298467621551 10.12548232230319 -0.3277148658200291 0.3000577662243929 -0.8448560141581127
Ni 6.6964505371230105 6.321774067826141 12.749961006807572 -0.786082138553014 0.41926259342203925 0.5877420984850975
Ni 2.042743821616341 7.7695442333801 8.213079833103743 -1.2486827326410561 0.7968293497671889 0.7454473957507871
Ni 7.904262312504875 3.0561988461408522 6.806075081295501 0.5581487010986969 0.8579982079670256 1.7483642907417956
Ni 5.756034871279305 6.306829307311952 1.8302240866124704 1.7940916175755812 0.9566146694903589 1.794867062289025
Ni 7.873764520071724 5.809048063710664 6.913920665559571 0.646397446234461 -0.8474898522365341 -0.8170580181092381
Ni 4.567837509195963 7.7739612195809125 12.257136707254103 0.7041336246036648 0.45269490493855585 0.5485096353470359
Ni 1.8512225513073912 7.550809836223772 5.395796893527422 1.2275014705777505 -0.40591753957370086 1.072012207126773
Ni 3.1996479594295213 5.033558170754914 2.1505416799701904 -0.6484021353693157 -5.183509809306266 0.03503822255105578
Ni 8.901556033705651 1.5890575758502805 5.1387704077373995 1.7430097112981016 0.2598590825183202 -1.4670948608684993
Ni 9.027683448990711 6.340639839395712 11.156069076992589 0.013975231233169478 0.030722111674205157 -1.131512162264619
Ni 7.03988993027939 9.11575179038021 12.422726899676505 -0.3108029205560389 -0.1297301522090024 0.2360205853378258
Ni 5.514738284016709 4.182230870656405 12.08512410459946 2.076590034759972 2.0484045734646914 0.9788012328897273
Ni 1.1985286179428685 2.637577107354545 7.011246897729715 0.08864598057418283 -0.6065031811426844 0.22536156296208282
Ni 4.9515163952834715 1.1535071759680635 7.0566370457560295 1.029083526084047 -1.5950910611055302 -1.0054648582238426
P 0.6656192328148658 8.570937130157562 4.145163747051708 -1.4870515064960843 1.5570590460334732 -1.883875054188317
P 4.3997206509383515 6.249361696593333 0.2430306286672784 -0.2472606770280193 -0.06289766796548522 -2.787562022441709
P 0.5926304074507651 4.764636703694019 2.9157330701420543 -0.8123045625846527 -1.4048505102162967 1.2404994254993154
P 0.9258302533594139 0.6787550877514764 8.517948268582392 0.6044306148843719 -0.15440322947565022 -1.206662422345212
P 8.481904912542037 8.974295935694876 10.709085982107124 0.7975325464818007 -1.0056129537659326 0.1159580381255745
P 3.7063006075188816 4.434831948026164 10.058657625774842 -0.2661207471573159 1.2976961864252812 -0.4836147344458639
P 2.9749431444848073 -0.050060736612807924 11.878198594915178 1.4033960371579572 -0.284568155229226 0.5662811003978441
P 6.897619927713819 4.526811942449435 3.0426708900987034 -1.5711147527955909 -0.6481290842135871 1.4478838351576868
Ni 1.175414304561499 5.6584213478456755 9.336459794294486 0.07593110411067568 0.04265717254889427 -0.23883131531374352
Ni 4.0350666227878165 6.713603790737606 4.531046447228816 0.8147018591722355 0.4722172912421997 0.4675368550473948
Ni 1.5134728352910414 3.347776083524135 4.729480488102469 -0.7928845061868279 2.317695490819873 1.7762741297781859
Ni 4.544489245274296 4.400488008710527 4.076832409043845 -0.040539097764626955 0.9499133462107834 0.06056644872914729
Ni 7.9500323962086314 0.9940745617662862 0.6844531871109566 -1.2864887477452362 -0.5465969917053555 -0.24739026062734812
Ni 5.3918768182742 4.31684601154345 0.656090895209639 -0.5792872828495249 -1.1006987764281881 1.1347430104970908
Ni 2.2275741064727894 7.24967805877475 13.089755450546122 0.6405546143004387 -0.25883449790854773 0.12582876027206719
Ni 3.74074748507225 7.561197240212971 6.7948987960844205 0.049098300188547696 2.0320035063988486 -0.15132536188127488
Ni 8.815181494227902 1.7637156912146037 12.315264058496359 -0.08775432199784887 0.8228013483509186 0.8080642992510598
Ni 3.703081448084391 1.8888979463168623 13.315116262805828 0.32849159608505357 -0.5529807837445122 1.168690313976813
Ni 7.680203201051381 4.200872049707291 0.30583699071548104 0.4543838626052045 -1.6496709532339395 0.7526120318200265
Ni 0.056806934392819745 8.849459927392257 12.818923075472076 1.2329725209946507 1.1767064994130703 -0.32026920817526133
Ni 1.1918563485335907 5.614747460982983 6.528558271384084 -0.602459350090614 -0.1904207852208398 0.499254754975966
Ni 9.028834485648973 6.785304952327911 13.390281763996853 0.05374608337320422 -1.7858322057802662 1.501761559012749
Ni 3.3003028398870144 5.381760796911747 7.949971569068153 -0.5141571260090951 0.06429351987174733 1.6383894667828494
Ni 8.160269709741362 5.680019661725918 1.8626299796522856 0.5356844585579097 1.7561845581171627 0.6132703246631889
Ni 5.58745946996271 8.749160651756016 0.7627657909700618 2.6330688043554136 -1.5988050196220078 -0.7404010915761313
Ni 8.389784547794587 0.8086163536596801 7.228280942359163 0.374152074236646 -0.990310004860275 1.615312530358728
Ni 2.0153622503799498 3.119178331588875 11.774763446236792 -0.6203254317377574 0.6468430184123118 0.3858279679126775
Ni 0.12775664684768953 0.6543250365314753 2.3313891908286184 1.8589227551183534 -1.945239059118095 0.5800660699970785
Ni 9.158939060119085 6.422354084110739 4.415407502566364 0.017886136251801455 -1.5434645951784902 0.08997061292287731
Ni 3.9043537769129304 0.29535881391664737 1.5415581297526468 -2.9030780879338582 1.7672315599599435 0.5594607350419011
Ni 2.0277616290157043 2.002625982966167 3.2439815868158517 1.0955084904765005 -2.3210824050142347 -2.116979237210296
Ni 3.1258131689117055 4.4233590135299865 13.51044063309785 -0.21689466314165226 0.3067133238676976 -0.6359906490788402
P 5.34574177172758 7.976655967694459 3.470177134603339 0.459247618455409 0.7246091188491972 -0.3083763133924173
P 6.075246346482499 2.0124519056586516 12.825031056178156 0.0228661059648961 -0.5149060883599778 0.4103344376944739
P 3.6407944562356485 2.7088665159939267 1.9463421619814516 1.247401551935787 -0.1501143722923092 -0.8324674106857729
P 6.569115937050017 5.22777455128809 10.489751735765477 -0.0018054286398549552 0.6273815672535905 -0.21686920922035555
P 3.0794816039112356 4.660435133045619 5.90945308499112 0.23089791939927978 1.243534355670897 -1.3536716733496366
P 7.536136458336328 7.690197568132881 0.9430892526182234 -0.038133573646927876 0.9220053069466055 0.07565933850652776
P 6.974945260292871 7.510710713616822 7.7650842002798734 0.03747717100985159 -1.2572033685175574 -2.126035176764977
P 1.2884872796979714 5.406802862745165 12.311744506568127 -0.09777108280390258 -0.6591120655876519 -0.2753003567740549
Ni 1.3613020458600908 0.33813620230892094 6.105243484759415 0.6063656271235557 0.5875374386734591 0.7173287831377001
Ni 5.48831123098473 6.4592059732183635 9.010252262134243 -0.5987929569826203 -0.39538347281159647 -0.8710648113429966
Ni 6.34865030589549 4.310136310047724 5.6355802886953725 -0.15560059221786104 -0.8806115744911672 -0.9778879770468384
Ni 4.259996030251215 2.7994053750889667 11.316261562549252 -1.590713500863125 -2.5494788981478993 -2.4970584755646548
Ni 5.029581011569861 2.180559405894652 3.845636870309124 -0.4091915823392824 -0.8752845058512991 -0.11652496637263803
Ni 6.808943314919546 6.4458052862701365 4.497394065710297 -1.0373156841858522 -0.42923358859182204 -0.22146608456241862
Ni 5.779570295633209 8.540701362329543 5.744658324405729 1.479415587217381 -1.1155576958178919 0.4388412868849152
Ni 5.370896133820342 0.6467674982777125 10.948773925454638 -0.7660691857661969 0.04178222614310868 -0.39065829942178526
Ni 2.0530376453894204 5.675247070703855 4.107183280537689 1.0022201260342998 -1.3204123970758743 0.7583653893640359
Ni 8.933027060386438 7.3973476398103815 8.743048927841288 -0.015048152582374083 1.0163691638411723 0.6546776839653822
Ni 1.0408365957609027 5.0822666732448045 0.8947765944425167 -0.3436189386447953 -1.4451489527250274 -1.7203552071233792
Ni 7.962263330455372 4.391654036308902 11.867980571117155 1.2290472177983154 -1.2696855601449684 -0.6615163041537705
Ni 5.1585158333384875 5.960442137347828 6.700914313431882 1.9226123228575147 -0.719100273215826 -1.3046132252600888
Ni 6.683742343774064 9.1376214868872 8.869808945387312 -0.855401650884443 2.1428892722078383 0.47096439267170503
Ni 6.642922653502998 1.5182828583995531 5.537198471687407 -1.0375637956409163 -0.1360640648468302 1.1867931942251109
Ni 3.633036656319391 1.242127640632666 8.8016282715274 -1.104593483496904 -0.15934231864848042 1.7641791462868648
Ni 1.415868669879024 0.8235788944149317 10.783622624245833 -0.8074336076455966 1.5775875050041281 -0.9630974490012251
Ni 4.037565214558191 3.209698474640691 7.131734233389289 -1.6474289512772984 -0.2892323934741148 -0.36460016888215274
Ni 5.873440610422082 4.030565414392497 8.056475213033078 1.4666289769756742 1.1882137287217214 0.9714782168657526
Ni 1.9771534481386008 3.3433590973233223 9.234886891916867 -0.08174719657182049 -0.7259874872539626 -0.06489258690832694
Ni 0.9730190131395327 6.861759988897056 2.370314817525438 0.11502395634707932 2.557288109779673 -1.0051897501855849
Ni 3.864161074089861 0.05922130396868748 4.794675017266026 -0.16428012226973 0.2347401759635054 0.08973895652804545
Ni 8.590448605218354 3.9843274296081463 4.744354127652407 -0.37239909610128125 0.8219302585998748 -1.2226186885641523
Ni 8.220563442986771 4.0612035771498265 9.513992693897983 -0.6511357322503948 0.03333666647891678 0.09523546086624243
P 0.10348661779725166 4.306954582699682 7.88981727034476 0.7398264500195838 0.45615920933807247 -0.8259386084283195
P 7.384508434158867 1.3657938962337983 3.637575296801158 -0.49495844159345714 -0.7958659574126551 -2.666982683494039
P 1.745841869935893 8.84447210187312 0.8073539565442361 0.36747106267204455 0.17804400882304175 1.5359112083112645
P 0.2385949264232423 2.8080428290367414 10.658314035851815 -0.4072126042360406 0.6380169354802495 -0.5509336714074964
P 5.848052297789024 2.10981276250876 8.915281444003812 -0.20133486103018228 -1.4224533108997244 0.48948224897023435
P 0.48280373001145765 2.3796887477740687 0.575824336437971 -0.5627484046542373 -0.14096715857540237 -0.46457982930159986
P 3.198927391765405 2.0993130622602187 5.288909570676408 0.5235547651739112 -1.3001585319228448 0.5840826473556393
P 4.172676330590665 8.392442225932363 8.80970892318927 -0.2444286068958629 0.18973532911804097 0.19672924393737087
