# total energy = -381171.4410409634 ev
CRYSTAL
PRIMVEC
9.19630565864130 0.00000000000000 0.00000000000000

0.00000000000000 9.19630565864130 0.00000000000000

0.00000000000000 0.00000000000000 13.45972290823935

PRIMCOORD
 96 1
Ni 1.5163972207188348 7.165411853150721 7.713982516933945 0.8327831421539786 2.3977814976391865 0.7848158702460807
Ni 0.5855103840618512 5.741336344211696 3.0775519410951206 -0.9998878783566972 -1.3364041445184403 -0.44498853743323363
Ni 1.1856428940057522 3.8961436098696383 1.0751318094070077 0.1050961557104061 0.5202683811131557 -0.4826336014795172
Ni 9.091256187483708 5.884734337217232 0.8691051360983681 -0.26415950966588697 0.5188321628872613 0.041982257969056726
Ni 5.529729352673353 6.817488023908213 5.2099085136716985 -1.465799024875211 -0.23009599232327468 0.8205768298957737
Ni 4.46091632483462 2.5497860794395457 3.927035839594784 -0.36893839124619043 -0.8814075880299014 -0.055700635996413755
Ni 5.870958271449112 5.351964765692207 12.158006148037284 -2.900861539898514 -0.43721866367982765 0.7645332087376445
Ni 4.924143433516839 8.39516942505345 6.87771646845332 0.265163268340053 1.419619440995355 -0.35286693960562454
Ni 4.079030539062294 6.35946602418778 0.12322589670221737 2.418626459408996 -0.32494630193595647 0.5120966439356407
Ni 6.744441768637067 6.515867593292196 0.49305624548160026 1.091562875565191 0.7032406804757502 0.13499705703489653
Ni 8.730218426475286 2.7511024050269364 11.035425080327746 -0.9555265786325028 0.939217299949518 -1.109898183539269
Ni 4.107355160267774 8.582580936594514 3.9801748521634934 1.5043493743445835 0.20958861639854226 1.5783493228708174
Ni 4.832511444655993 1.825135591858567 8.157076153796307 -1.9635126606163023 0.7530416631582773 0.428091761677895
Ni 6.068715626774646 0.3758658841356026 2.7878857881105983 -0.8190989597986668 0.45090541713830085 0.7955150018311397
Ni 2.179671564817549 4.226401336081066 4.149753807542367 -1.217942623244722 0.0957018589796997 2.593705729176759
Ni 4.027972650447741 7.7249242813204 11.711574252247132 -0.666470305724936 0.15885920836447479 1.6513151737055818
Ni 3.164274022403497 0.06538849160952097 8.356468612255066 -0.13605840841987535 0.08286896888108954 -1.3436420570277763
Ni 3.824348052158215 1.1813758082137578 1.7810172354393559 -0.9797348004475901 -1.4962174892660682 0.9213710157967164
Ni 7.129086446085251 0.8789451830755967 11.80237305582187 -0.21496864976353303 -0.6587855354861686 -0.8471427533097604
Ni 1.3851475473926624 7.732189362733494 11.437587800287071 2.5518242584516244 0.05142874809393723 -1.489007087560558
Ni 4.511854661476553 4.361329531641717 9.29105788154105 1.6439947287847685 -2.561498805426911 0.8620865191037862
Ni 6.26194839975177 7.425087933988103 8.659272607400027 0.8895705834566678 0.4930380846422928 -0.2220186146317789
Ni 0.3305851146902966 0.4899405371489975 12.248037979726131 0.2252900862941991 -0.38221248264727725 1.6686945455242939
Ni 3.7220759377341426 7.9584644616818165 1.7741659877776408 0.40234319195888124 0.1010358695981034 0.14763634306546186
P 7.33050393103409 0.116288203767992 9.677662291709654 0.4462134109792702 -0.37509772597936686 1.088503777023893
Ni 2.3799303152625275 0.8164470903118166 3.812318364820914 -0.6365529493402133 0.4587873909895389 -0.5634654853259199
P 1.7954683100375024 3.701062379469688 6.448042080702333 -0.2821659735456366 0.41419726308398985 -0.8017208735315354
Ni 8.090854476900677 7.795303607971548 2.4011875756250167 -1.0847196273911124 -0.5755630399204024 -0.026738958656741047
P 6.34511059116773 3.386291231865412 3.3445657541597287 0.7226280838634265 0.10672597800434523 -0.35924019012182
P 5.463230866979579 5.703797024808849 7.549275764254637 1.7363760080316677 -0.979572820948429 -0.682799896122895
P 3.830104939455173 2.73939550801571 0.40638566348450733 0.3740854826647686 1.1708330713514288 -0.7746121902402014
Ni 6.83047320739592 5.584557726578248 10.25175914090848 1.534804605510647 -1.5103439013651214 -2.3379056472191606
Ni 7.64110915220782 1.1195674383689425 1.2820063820906944 1.2647223026024217 -1.297712127264881 -1.2746285059725404
Ni 6.700419053795953 2.90571989084763 12.670726853753845 -1.6746595048584771 0.8273874250597041 0.6912562544203643
Ni 4.157337081128744 3.966053924935891 6.974895668843758 -1.4270818108106715 -0.8498089872880139 -0.502799792014747
Ni 1.1571895245220654 0.36848676853323986 7.370826972137879 -0.7249369345022613 0.5927089555720696 -0.8914243488359552
Ni 5.531715754679972 4.285064569415403 5.253315995669096 1.5413940858027066 0.9881574772936466 -0.4229618966504974
Ni 2.5979931133223784 -0.22651788141579887 13.23949444386547 1.5621084355319226 0.8576678212108003 -0.4572663263593222
Ni 6.483965609213685 3.6316210759883303 7.64677775497115 -0.32168331491396857 0.36869593621808117 0.5171164657477352
Ni 3.305253387039863 5.764952456957045 5.397039537892383 0.17335174555369498 0.4854415032419575 1.9848882980786011
Ni 3.0825004731310526 3.473076767682332 2.416545405953962 0.6424670008318033 -0.5563448151207386 -3.0091551195002952
Ni 3.474566569187296 1.418401388392343 6.022230141297547 -0.13615405345747522 -0.1494451141394265 0.1629117811672936
Ni 7.769480381885514 3.947532565485295 1.6137667846349066 0.5327436307620309 -0.3690314651806289 0.29989398695301905
Ni 8.569089956299566 3.4162435991596483 6.654432927712186 0.8463611379487296 0.8815335720848044 -1.2665220748153219
Ni 0.48539480329774143 2.995576992730339 3.152980039513091 0.9652710596137762 0.7906671868205352 -1.2144168694796502
Ni 4.318796618305566 5.4213968728679784 3.4662154040844726 -0.09465644843432085 0.09295874901692378 -1.428852786668165
Ni 6.7318428299839805 5.82460889129469 3.6008125326440195 1.0797550842969854 -0.04717357236200908 -1.7242288311461724
Ni 7.513786301366952 5.904791479700722 6.685323318176215 -0.5066456481233985 -0.008170708736250443 -1.1463929360311935
Ni 0.5277060856692651 8.728517109941839 4.855312764726405 -0.7917197964547655 -0.7360271308781517 0.4612160550356896
Ni 6.994976721721772 8.514105245199708 5.619542312289249 -0.23390276766387458 -1.1123936962676133 -1.0150669000899808
Ni 8.094505410218396 4.225987502329688 4.4177102419295595 0.6699394952204591 -0.6488896165286954 0.534743434800879
Ni 1.9576267664388756 3.1107883091141875 10.44043790335932 0.035660943736719235 -0.5116839818782543 -0.7247777832165776
Ni 0.9341515251400827 5.782820878711021 5.817144250050375 -0.35410158334367403 -0.352400027271535 0.01571098297735359
Ni 4.754425613923614 8.988928895226119 10.00244453757506 2.54847205414994 1.1177629309993267 -0.5792924250558474
Ni 4.560622670000145 6.347538415842486 10.003697074395902 1.6584391863448726 1.7409690267189886 0.14632765155636737
Ni 2.058427471969157 5.854064658087272 13.095354308999127 -2.4959693562655336 -0.001064693819088489 0.17923494380734936
P 4.151598586442958 2.2652799735194367 10.273524037339325 -0.6399696883312462 -0.44098841513490505 0.11136244833509207
Ni 2.049608214911996 2.1998298666624883 12.761607504448298 -0.03611448633437006 -0.37098293248004494 -0.3457663240051013
P 8.189300928200893 4.05136805185902 9.096767533421515 -0.269400189239536 -0.46800710981559396 0.0017828029320356392
Ni 8.749705398012432 6.999758800626593 12.157965684292705 -1.4862287534844727 -0.17226314047520658 1.3414324509709672
P 2.8155501145749895 7.622146370089086 9.638884229944345 -0.6698417933003302 -0.24996316356084688 0.7968092951625309
P 5.765072008929664 7.563244032809508 2.8990764796921624 -0.7553607982097572 -0.7787984604074071 -0.4813231101982098
P 7.851493035103199 8.590452974176296 13.246479957588743 -0.4514155240055 -0.2391743004754591 0.6690591494980348
Ni 8.872476077588132 2.4548434205676704 13.331612917291825 0.3236034147548169 0.6391042550071574 0.3955847901891252
Ni 2.578083111728267 5.55798959973973 10.723468921863402 -1.9409149778214445 1.5494789196933703 -0.8883536803304313
Ni 3.632494725019019 6.5872952987801705 7.713201750589677 0.4786468489176274 0.6770797058096661 0.03952376912623516
Ni 2.1911025726611895 7.183868838462214 3.7398643516295196 0.15007014931793508 1.3153396105386572 0.5166485249723812
Ni 0.3859165265107549 0.8735736209827002 10.108225042580267 0.08929055613671719 -1.877437011872457 -1.583855597401027
Ni 8.511888935553435 8.032954536929994 7.4210581128802335 -0.575024650918429 0.5850352410768958 -1.0312442811807918
Ni 3.39132161102106 4.096843782982754 12.018630619095148 2.5212731251376446 -1.42072090158965 2.042814480971424
Ni 0.1401415811974641 5.467829019772676 10.535665647704368 0.33476534490890736 -1.268587956205415 0.16682474306845463
Ni 2.62240010834814 0.4912344573449751 10.745139096346712 0.29096274590166016 1.067297318149607 0.7063622568238674
Ni 5.60878999179787 4.844062004472255 1.409528792762782 -1.3896786875718647 -1.2083264403111964 0.029559201714355547
Ni 2.6974603545426623 8.149582084374117 5.979360643176942 0.15757288545288345 0.5609316631604727 -0.6599291621723087
Ni 6.740597712902037 0.8917924219795108 7.810515217041673 1.281615735923651 -0.8754400575925568 -0.8858023746634873
Ni 2.2658409481601947 2.455753854820704 8.096642631636628 -0.09598545165838954 -1.7750937363168398 -0.0009749623187596114
Ni 5.672538782121373 8.582534955066583 0.3280524521318585 0.6616623428133314 -0.5845004516193482 0.9793522202971907
Ni 0.8381301396229468 8.126030345767873 0.6583892665713278 -1.6862073575970766 -0.7812726329795125 0.6710142163418766
Ni 6.623869006096467 7.557054919149999 11.305077313465032 -0.8032023431730683 1.742279003779664 0.4164832309046892
Ni 5.988349112256889 1.9921221086926924 5.571369304737084 0.9406386057770768 -1.1555046685244743 0.8525711234141833
Ni 8.068728165660293 1.53071586851654 3.507603377375142 -0.7765412889421143 -0.6142504291882711 1.4504387403690568
Ni 1.3786825445655673 1.446836365264857 1.5021181170351499 -0.36432068996852096 -0.5817059195933466 0.20735638463391384
Ni 7.995838247584112 4.839169569900399 12.51886090256454 0.48904953230819004 -0.7820115680280662 0.4927192678502934
Ni 9.331399315256013 5.750082030824168 8.252236765110576 -1.8617419697347033 -2.7236569962576316 -0.40862542542316727
Ni 2.515483859603039 4.659850807275186 8.546789834883603 -3.0882913608118296 1.4026046516049133 -0.9752291992677526
Ni 8.743939314409888 7.580910135840589 9.578719239907784 -0.18774683793310248 0.7123752957871666 1.5858584867636687
Ni 6.285803616442359 2.8598763075004485 10.072839497945706 0.750233761395837 -0.46490481674118644 0.4672406639632147
Ni 0.7109774204354242 1.8779959563680146 5.153270306827442 0.6054320595656928 0.8785215247313579 1.6371154851664322
P 0.7982052985510407 4.105929732901914 12.176082406297509 1.7641110120530907 0.24953610332575732 0.6282973941996406
Ni 5.758073620378571 2.300731731554218 1.449463749770833 0.10689027149635139 1.7646020927568964 -0.276518288341556
P 8.608422555291721 6.769161438052759 4.612552368384269 -1.2577728678677822 -0.25560827766176625 0.4983348142648579
Ni 4.712150197143876 0.9811998245190553 12.752427752212157 -1.124927824178882 2.18268095028348 -1.702070292771262
P 8.096418241780325 0.9480563391864092 6.004450004077199 1.6294201734047036 2.343898374467486 0.48791773269659194
P 0.6137807470643727 8.93872626303108 2.6473119805505827 1.322964731184083 1.5533067780798926 0.6614245157709125
P 2.731091244071376 6.055730443286937 2.0284879795027413 -0.4844814533215333 -1.7134322547513008 -1.3322518129129635
Ni 8.901950236991887 2.0472631569875164 8.36738462698588 -0.5005235943860605 0.17814813850107386 0.4826533989738591
