# total energy = -340853.7602539537 ev
CRYSTAL
PRIMVEC
9.41762201063108 0.00000000000000 0.00000000000000

0.00000000000000 9.41762201063108 0.00000000000000

0.00000000000000 0.00000000000000 13.78364176038301

PRIMCOORD
 96 1
Ni 2.753241728117642 9.224353348292155 1.8491170753201662 -0.5087565238188141 -0.6609714873938939 -1.0321110000564613
Ni 2.182298407552798 2.882404410864806 7.87163064126864 1.1576083451310388 -0.36952383143601525 -2.362007425363371
Ni 3.0724426008141337 2.854707185202436 0.900759736534584 0.7380716721120063 -0.4049114669066898 -0.15324803282528446
Ni 5.770713670587248 5.831118296700286 2.9680040005326007 0.953741461707622 -0.033224823491400844 0.08296332836710874
Ni 3.1385260528620265 6.995098678531748 6.7102353966164765 -0.834701185112298 -1.4056485806375598 0.2833121713349379
Ni 3.905629017534831 6.494514410304059 13.065292721802907 -1.1696123115704502 0.7481005171029181 -0.35580262519518074
Ni 4.407917875305156 9.478177090574443 4.064038124727589 0.06010262171885133 -0.3204337587775836 0.0020815651193770604
Ni 9.289269015239016 3.316453181199043 0.686070921569529 -0.2198527173287117 -0.28901873480141194 -0.3082019925980821
Ni 5.216759739718057 7.463427592154331 11.217058077643761 0.9577927489588601 0.31582197103718507 1.43969564291994
Ni 0.47597790603434026 9.199641508734842 2.587258027725209 -1.6463274906830034 -0.18435889529747604 0.8340401544895314
Ni 5.509045049360128 1.002769532158407 7.543718468423323 1.0486773890555747 2.5960027527410516 -0.48083742881104286
Ni 5.280601797781712 8.837110158217008 9.144494740862982 -0.32818254948506703 -1.4696883326272883 1.935711579243634
Ni 3.467747275135112 3.395099740704808 12.389535979609585 1.7333691028845437 0.7426050412059856 -0.9885629402621813
Ni 5.266578958947551 3.4945969148370564 10.864900237519366 0.028892514664634113 -1.361858837146119 -1.967063354082038
Ni 9.273701686432522 1.962519368014295 12.547152123048257 0.9344080514863327 -0.8329052695541397 -1.8777504293478178
Ni 1.2250442414692762 7.285396869977707 9.318637868767784 -0.985467074945677 0.9187896282227853 1.565226155225298
Ni 9.137551128322734 3.202217428977161 8.599503560644209 -1.1980533405199623 1.7410191632306338 4.940018112402376
Ni 7.556049902385346 2.1449387019415695 4.095506166151678 2.1301507415952474 0.6419363251393138 0.3253378809474204
Ni 7.084547250222055 2.5794771886084966 6.381867410876887 -0.2649118144508793 1.0950724313803462 0.6392122413399313
Ni 0.31522663630427133 2.970628691723387 6.7173890221224735 0.23254908184945755 -0.3528566551929794 -5.639177166609585
Ni 2.6558541012646764 8.628001284158092 8.257297321457393 0.8766955272662128 0.470410577050764 0.46807318716683904
Ni 3.799435914315216 1.1658168180790525 9.483296509775418 1.0170595050399773 1.495458756723173 0.13734113178704088
Ni 8.81478097697067 8.71790190169396 8.941007245246047 2.086125227943917 -2.9367718806418774 -1.9771392502608014
Ni 8.579067321376154 4.0544462769421 2.8521804372781876 -0.8381685748356081 -3.525893890193637 -1.8064809923788696
P 6.634469687613983 4.4545256855068125 1.5897228097535225 1.5774301534906576 -0.27631002898549184 -0.09401341553368324
P 4.574534439881374 0.42867695886949103 1.099817182865024 1.9577389913573187 2.7076688483594915 0.48956323871981494
P 1.375227056035009 7.5302832891883895 11.441980080437695 -0.6550276111056331 -0.7547748437993002 1.5550785252683346
P 0.2863503243947303 1.9190758787315634 2.6244463326199954 -0.10770402564689838 1.4809325380825398 -0.7202840091112821
P 5.379628090824836 2.1168082656772036 3.7881714969011524 0.35634795617568954 -1.5475745035818058 1.5772445198424125
P 7.000673910626996 7.94253026509611 2.5795393449122614 0.7183633950498015 -1.2966636313957087 -1.4708129331500346
P 3.879645799036878 7.484381800620422 4.85880252809999 0.3140173137282785 0.6513339643041298 -0.7081563726098127
P 1.9529039761743494 2.2011430687396065 12.949786532402564 -1.4795189455644648 -1.1097148638838694 0.6091329054560478
Ni 3.475808759380943 8.902393112413387 13.393674833975169 -1.042292311464837 0.09528893981199718 -2.5396032909054003
Ni 5.4444307463103065 6.127227160786056 7.738508790324107 0.532601705867528 0.749517966275735 0.1725433907197867
Ni 4.401739915415828 2.733737833406058 5.73280962643699 0.10908599359608954 -3.305596629128339 -2.0986629553996115
Ni 0.6029622928632092 8.822249151044202 6.7682366456506164 0.29622399430059954 -0.7579727819113075 -0.45394420396462465
Ni 7.285189682298492 6.779397469225073 9.280126388012553 0.05156758766464667 0.21220085721040874 -0.31553426459343725
Ni 1.4985225604116679 3.775373890660896 2.306099638219178 0.18626485407093726 0.5836321900817819 -0.8637147987358286
Ni 5.171856519059036 8.296971878502765 6.650593597867823 -0.3299794934844898 -0.8382655054247886 -0.2996016525235808
Ni 0.07445383428819036 5.28464195752641 9.780692762758857 0.6214878274769748 1.0459263086729986 -0.7009092041290961
Ni 0.8148229960069756 6.1840154201346085 7.28131903974588 -0.7545061635189457 0.5446475812884685 0.3534392671693268
Ni 3.461136104643788 6.1475786414580655 3.0986866874354626 -1.8069214223503978 0.37113051380150275 -0.1535488518951549
Ni 8.580969680976223 5.687753840305092 1.385476253820918 0.4010013332190061 0.881970659622223 -1.9644907082588556
Ni 1.0150124404756737 7.005467480114294 0.29115048621727707 0.8673359404281836 1.1158487446957492 0.8656225572815027
Ni 4.658567879046736 7.7857268624172695 1.388936288063813 -0.20749933796968134 -1.0033113022159494 1.5178162984827668
Ni 7.006136131260853 1.8879600563621406 9.658170445130542 -0.18205621530622837 -1.186443524195176 1.333492113077968
Ni 8.09750664914914 6.774867593147684 5.996848663066769 -0.2151871935322423 -0.6689100255146804 1.6602469289775728
Ni 7.460018413069061 1.0672802413686202 13.618788956253466 0.37025453895445265 2.868478238471802 -0.4343822226722971
Ni 7.455271931690675 4.495501757882526 10.172354700974358 -0.9373774185273017 0.2177842648354572 2.0788641755061295
Ni 3.0143264567942465 1.671590195908907 3.1520704765096363 -0.5003441313854029 1.084640437413745 -0.24743396938109
Ni 2.156673058682581 8.569357753318384 3.8758636821290207 1.462535523632591 -0.5743445941322689 2.7375892900680077
Ni 2.510022227962464 -0.1495847955825434 10.974893351128225 0.5058336937450644 -0.2307230843843123 0.3363946529822142
Ni 8.832081148185146 4.381482610961642 4.9000017981119495 0.2702995611253538 -0.8845412485628766 4.073566888571991
Ni 8.428733824861903 1.249558310969157 7.916468880337361 -0.27160105354559677 -1.2820245413262954 -1.9676397954107983
Ni 4.489964196274408 3.6676080446036003 2.9248750598174045 -1.7386411499167602 2.6363117367727438 -0.10982184332084957
Ni 7.5886537089964055 3.5398485875020307 12.657862859436943 -2.6540196955754682 0.5617274195888906 0.7465431999181272
P 9.367171582623964 1.134004091697724 5.623367443702407 -0.552302783840881 -0.4291027194409126 -0.024739154617892875
P 6.52019626490497 3.5485787228944203 8.649331255733305 -1.9637273477302695 0.5030784995974303 -3.0549341255076228
P 1.8088520333890323 4.736856568924766 6.119785356053514 0.9354732595260534 -0.8039348504637186 -0.14902756698603367
P 4.335477528554066 6.856518374002071 9.507969737083423 -0.7625704285843189 -0.65461340638635 -2.252660979017043
P 6.965452005160398 8.719079104416775 7.881762118782267 0.46365397505322087 -0.32516741680782707 -1.0912710553563851
P 5.351864941809987 4.989540778971369 12.259446602879022 0.4400612753349454 0.782255308607756 -1.0398358795045446
P 9.251287746590142 3.996113527621215 11.544006827780727 1.8116599654766479 -0.1532395481848522 -0.71254575992676
P 8.389132725266435 5.17066989871444 7.863884647352522 -0.8556536189942489 0.6906911259455137 0.2688890539310724
Ni 8.199706680732971 8.906951241356124 0.9572598166565918 0.3439056166472787 -2.973999911755401 0.9921424300833237
Ni 4.312686883840386 4.296450903887333 7.056687099702848 -1.3741975612171302 1.0732846460812933 3.5591027728454385
Ni 6.3754850885948775 0.40979745248208743 5.280788266693006 0.49365386384942084 1.3334185795275553 0.7749176372957622
Ni 6.545473161769236 0.6083585901445892 2.77084232146698 -0.16474009262528402 -1.6628879661448457 -1.3581446215193254
Ni 2.6794546614516537 5.688168215663523 8.769966281956405 1.8712442527981836 0.5092121232989939 -3.121748354918694
Ni 7.4070348729206446 9.078125934875079 10.576574096074665 -4.234608449299765 -1.3682405723027469 1.7372008179258083
Ni 8.284973828351843 8.584915664503095 4.561902583784489 1.6953080343467641 1.2696022564025424 -0.38643474825874097
Ni 2.30242017338875 1.0415042105498824 5.3326981979582175 -0.6642277895476625 0.628408208745892 0.8718083743772405
Ni 5.984408926454248 8.78213949987248 13.343474201063485 -0.40315926010227343 0.22237959751562345 -0.7051934333267468
Ni 6.209113382185006 7.601103804992888 4.474335652926328 -1.3997980353940538 -0.7831186850493158 1.1157932088674654
Ni 8.989967577368976 8.778363033537692 12.179019171094183 0.9679241809659073 -0.7624763262086158 1.1099346932041594
Ni 4.808854287452077 4.810342271693714 0.4583669533010411 0.09536350180367448 -2.349321602365586 2.1390138484128323
Ni 6.425530330747152 6.622255032162063 0.5244108513374475 1.1644639346002914 -0.6264706254035469 0.3281488680336542
Ni 4.359454793612344 5.319976874454398 5.043489625352494 0.759215396069157 -0.19572882769731453 0.07814173860874929
Ni 2.2368170200517654 3.6188059285266188 4.322687456411236 0.6393143141354344 0.3544121726055574 2.4991562386339474
Ni 0.898264066762218 0.764481098768553 0.6616576206227207 0.3209112126346344 1.2760171587899507 -1.7525461900336268
Ni 8.399115404355898 6.062066635672849 3.6557804534069427 -0.8431953386262381 4.1191322359066165 -0.39374439454627674
Ni 1.8222344739419831 4.950947364906631 12.93669132931398 -0.7385743227800377 0.06360317867294207 1.2024440133884904
Ni 5.501567457664812 1.9123234439135013 12.863086964510572 -1.1539188120945933 0.10284181245859061 -0.32423127814680286
Ni 1.6862534330242795 1.8865945012036762 9.79475233031797 -2.3437497647047634 -0.2871400297214603 1.7748409968760854
Ni 1.0972565315023588 6.634620369562502 4.959560721788918 -0.06289149731789814 -0.39820628697237226 -0.4472973880720683
Ni 2.1222422334457134 4.837248417126354 10.605547409488565 -0.24595867038714417 -1.2977383525171264 3.349509271350889
Ni 8.996522242129604 5.809278831786638 12.669744131077762 -1.195069061080658 1.0235877930767985 -0.5358001582001676
Ni 5.803957875479519 2.430528082496273 1.4714864517984299 0.18117715513538474 -0.2026121850807091 -1.2673926503457336
P 4.947745373500577 0.32013415901513875 11.45707276110635 -0.7864891441834455 0.08989373693835487 -0.8712039080240223
P 1.1442975523060106 7.111010767430917 2.7088301073156678 -0.9873239256487577 -1.1104070048548875 -0.7831019728787674
P 2.8683156486781667 5.601243566610929 1.1614423327610754 -1.249546623303248 -0.28179110670472113 -1.4339402284934013
P 9.059130591739748 0.7943622709222882 10.283713369741683 2.245450320201217 3.2206867185578205 1.0835032384855083
P 3.399582528673284 0.9135413328178105 7.26367606709852 -0.21835710661979169 0.7992017066541075 -0.8382855600294467
P 6.617226022130201 5.301829117279497 5.252325388379718 0.11748990138906862 0.03664953290223366 -0.5199089408912079
P 3.3517692628834657 3.672382778847335 9.304371113529456 2.276496905094376 -0.313064462896706 2.128705781618605
P 7.141702796820126 7.222948619937865 12.326476525916059 1.7003674511475424 0.1718839027589169 -0.6184778370060575
