# total energy = -340860.98207060416 ev
CRYSTAL
PRIMVEC
9.35665318303784 0.00000000000000 0.00000000000000
0.00000000000000 9.35665318303784 0.00000000000000
0.00000000000000 0.00000000000000 13.69440771837315
PRIMCOORD
 96 1
Ni 8.225452505936738 7.98664264734351 8.25287966334356 0.2518089585203341 -0.2436053396636192 1.504604941998815
Ni 7.162939043088675 0.8241489809452343 7.196822291175641 0.2586002704105546 1.0307138625986185 -0.19564243863109532
Ni 7.065442717165334 5.023278311850887 6.839069721951886 -0.1382052795595491 -1.2803332696668015 -0.2516930017677601
Ni 2.5110637217561265 5.361540036877818 10.758915119691702 -0.33113931812054587 -0.5455713786543185 -2.102998606660488
Ni 0.012375109468926164 4.0325771620029816 5.126706755877433 -0.15467525219011424 0.669801169870382 1.3594124324881556
Ni 0.91156912708097 6.3211677415825935 5.474805130371084 -0.9693143764452145 -0.31614053071886844 2.0398484563645645
Ni 2.307200962714116 5.34458578135257 3.8907733407075304 -0.7307594547213092 -0.49219270592286196 -0.8978302523622989
Ni 3.240517758734013 1.90236665045642 3.786613206403901 1.2382152574508287 1.3525889818084191 1.6379899173515853
Ni 6.68584329847916 6.34427867488688 12.951116265416758 -0.8592058551218815 -0.6677388880247145 -0.2646824720488925
Ni 2.806125779145047 2.0824073705540136 7.476284000751512 -0.8765636296740389 0.33134989146945515 0.6411307985188829
Ni 0.26285084322157976 3.750361789402232 9.91905163976487 -0.6251997291109231 0.7918023288662428 -0.11639743965583825
Ni 4.408929822042765 4.066953505711461 9.758662698298446 0.274284771025347 2.0365759562608794 -0.5486091370393777
Ni 5.466699461738896 1.4161575256694252 4.275558216574772 0.5828572595889703 -0.9422846260209321 -0.45508063156191303
Ni 6.735564553369431 2.666421590818617 5.5237628823635285 0.8195671576843371 1.1983209923590523 1.2294207990876505
Ni 3.2383376585478194 2.9968143705382992 11.340612632633981 -1.5614173230021688 0.17675254370512786 -0.05768424208534581
Ni 8.809073746768638 1.206325221911571 5.2851925540911875 0.8342239883655633 1.5868707300782672 -0.5754329421004413
Ni 6.932943151771818 4.869192947618106 4.209715448290458 0.6424140361066807 -0.21984191869543426 -0.4243418077171595
Ni 1.4190113048831121 1.6707894847555864 10.075043889911582 0.5425608739627689 0.3234365501596494 -0.001404079436378227
Ni 6.923521002040071 8.473207324950572 0.6870019659273309 -0.04678096490928072 0.250379168052343 -0.6033767196985609
Ni 0.2024293197779554 9.320920101213018 11.153383195913843 1.0461425384488627 -1.9245193100722404 0.06137480356305559
Ni 5.727834294770999 7.43287848674399 10.782196344083491 0.6043745648354558 0.26253508668858655 -0.5811011961298121
Ni 3.504197601425536 7.330320211461289 11.443512425757008 -1.023652841986779 1.8271135810275563 0.8639595677567832
Ni 6.699008109474758 0.39997353094126814 12.08643800564527 0.49159338177596623 -0.6115672259291531 1.1602159579572149
Ni 7.667038088716881 1.41325696318994 2.6981406450297616 1.5543457608673683 -0.24066322631615972 -1.5351853858888336
P 2.066613340020559 7.6503271061737825 7.191275667182613 0.03641659095582116 -0.4532145248874517 -0.6825317300631728
P 7.956561007435301 2.2333114727125207 8.640595978645713 0.26504114093989195 -0.43135423447925064 0.5656722631692516
P 8.278794785599787 6.6006416148075715 4.551856441717371 0.020470352039209907 0.09198018715373837 1.9102491733064717
P 4.828238876738407 8.667152031643376 4.94372243269582 0.017783292125350018 -0.9951516492232927 -0.31287265860087404
P 7.970259147660999 4.537059830410733 11.05109907056872 0.46107413014118653 -0.39321628995694863 3.182423047090932
P 1.0253207665385355 8.945811876043464 1.8318595905720307 -1.546061409371389 -0.75613829980573 -0.4368764498490605
P 5.734140679000589 6.356610743751271 7.883870104703455 2.32208487813682 -0.9037224494770177 0.5459372466341694
P 4.896280458515235 8.441329207635713 13.418574657271856 -0.0027027436431437324 0.6255779383859484 -0.9263049627632242
Ni 0.30462642824869424 3.4183596653390937 7.477406799130668 0.3041813014744632 -2.6476485019418012 -0.31605105632885566
Ni 1.1128054735810726 3.20750748638684 3.2577078019188845 0.20960815678256803 1.9020296136101567 -0.11167560870013671
Ni 5.149377926483217 6.899109493946598 3.6502577642433023 -0.549711368964621 0.6125406455860161 -1.997650997060908
Ni 7.19288968985265 3.4654329873851903 1.5750072976910898 1.1671944461575772 0.5730837251419743 1.4787969797967757
Ni 4.048736102009662 6.411403304654063 0.21594406960172446 1.8384043234500274 1.4985049997486644 0.6508385127249501
Ni 0.20030535951071948 0.2170818386259354 13.69481861382613 -0.026492646973889856 0.010761866502194368 -0.96663425850989
Ni 6.635364154682957 3.630287859404705 9.71840101975256 0.803543528562571 -1.6281747310333763 -2.5834215736419313
Ni 2.0685314539182826 4.900509665743387 7.355485865799429 0.9163609641766347 0.5507161560800515 0.6589945661731812
Ni 0.20469082284663787 0.9744205733501502 7.803100667633584 -1.4582880612101465 1.111353685038873 -1.492828003968545
Ni 1.4420286716558013 9.008987998177284 8.832482221643398 2.2468014349124723 -2.548929453402333 1.1127464516213414
Ni 3.9969657400774308 2.2080765791409993 13.27717972171948 -0.8441479323474946 1.6516607299704587 2.8230764132982347
Ni 0.5307655071331511 7.383774770962254 3.3772053620817784 0.7979097273155613 1.2502549622241823 -1.2112821805054106
Ni 8.312525520240252 1.739897724992611 10.901981153498387 -0.9159598720834741 1.8262406915043001 -0.816788309387619
Ni 2.4961024333538786 3.4538307374672494 1.1078539327289967 0.16408394709852386 0.12933343099121597 1.1097668001677274
Ni 4.549738095442031 9.289650166353535 2.713436901615124 0.9112727510204499 -0.15722218698168408 -0.16861165976554832
Ni 2.6728496115392826 8.278055610000175 2.8562970890522976 -0.24705601721638096 -2.081021588168764 1.3352875144154939
Ni 6.393457243893892 6.900541061880021 5.543824482403092 -0.14990894114972245 0.7426166111702114 1.1877645569994446
Ni 0.734168854505024 5.491372956120839 12.266615332878995 -2.619931238532191 -0.8398649887014247 0.804031523942583
Ni 4.978665789585773 3.5252220010752238 1.8605910654293056 -0.8044189891889889 -1.1895116215975385 2.5077990019106102
Ni 5.923603548829931 8.332923024128245 7.532677485009915 -0.7773100487873388 0.8205472622094191 0.060348676291386384
Ni 5.554951414340523 4.227934723322889 13.649517441888467 -0.14329246427446934 1.4417579247656072 -2.6908070396071464
Ni 9.183863845730762 5.326415160916569 2.9215513238528703 0.2502727243814657 -2.624003865939668 -0.6914334034281769
Ni 6.477629695717921 0.391716284527895 9.690409656160211 0.45150705527804175 -0.4897930953424339 -0.46392419799547197
Ni 4.6756131503985285 1.805637570092169 9.130541215039349 -0.4496386346107353 -0.5266370036436607 -0.4466911219466371
P 7.84643319974646 8.033678542776968 10.444190991353135 -0.8220973803053584 0.4027108597109451 0.18194591498060922
P 3.7863849040668063 5.12932661876213 2.313012379991562 -0.7383917744555863 1.6733410431573696 -0.1492913621703816
P 4.757586788730044 2.9021250405628476 6.620205440899041 0.11885181473360176 -0.8912022055228199 -0.19858789441266445
P 4.715687695881223 5.537566752769931 11.573363122641032 0.30933019266525436 -0.9404036069481352 0.392221273033531
P 8.132016967484676 3.0385450436302475 3.7218801371843195 0.4717187543392263 2.0738896051096734 1.1122522855937425
P 0.5720872944820234 4.516634256563261 0.5156741612519844 -0.038515125356062704 -0.08447616546720936 1.2653691921578012
P 3.848138814920362 1.7489830352106113 1.8424999765451617 0.21585465191291214 1.5396668186989548 -0.3665863460742461
P 1.0481135736353933 7.08094669145084 11.046457234936229 1.152796782675008 2.427040908724936 -0.6368278002681549
Ni 1.510219959883182 8.589547950337407 5.0616583674463715 0.10201957366761139 1.7687505677076314 1.7480591007965507
Ni 2.060625081998396 6.164640290875149 1.460699873035842 -0.9686068088552288 -0.7526570261253489 0.7042644937545742
Ni 1.1152569167088955 6.449643946117469 8.75349242000449 -0.9957473738257625 0.8133918821115605 1.0483827406332913
Ni 7.939784528320085 3.7986795463185596 13.173377011566549 0.35978346421979973 0.6281359289211118 -1.6866179627719342
Ni 4.611361013151352 5.005322894437557 6.794685502023867 -1.6466576203289125 -0.2987249063455823 -0.7372754014629561
Ni 2.854340612876619 0.29607538292610863 0.8467771109464827 -0.43070091716596787 -1.1520460205519127 -2.2341271818789132
Ni 2.788647551042859 4.87060580224521 13.001237985062263 0.48989851057204664 -1.1728606433044189 -0.1614395674971413
Ni 3.9215511156108165 6.735199643896205 8.667889335912353 -2.1927167372529266 1.1819021846813969 0.8525287002120221
Ni 3.1975987906907917 6.941766475701349 5.3760138436504485 1.6769321029427375 0.4163503048712507 0.43101124931753515
Ni 8.47904587652218 7.702434307619761 12.64923695053573 0.5517204289748499 0.3181562755973166 -2.7369501138221124
Ni 1.708721356664725 7.688258978082922 13.387009052172527 0.3046965505479849 -0.24391772869771539 -1.066821406954453
Ni 0.7101110279009841 2.974910445491606 12.351205091433943 -0.4281110449516047 1.0581562750802873 -0.18951318580490586
Ni 5.767702993884181 1.3724806687202742 0.7781161187304884 1.1078950370663114 -0.8668497448203846 0.5062918643284054
Ni 1.2894684418880398 1.0810396361041301 3.4015130113251804 -2.4896868656909312 -2.6469113666654605 -0.6748562157957861
Ni 4.462711864404316 0.6620805202366573 6.481193644906424 0.2222476999234495 0.9139549258383034 0.46427361091509073
Ni 2.653294206435657 3.6508631397027305 5.594138013438367 0.16069214780815552 -0.8330284253955654 -1.1904608728846853
Ni 0.3275577138123145 2.2396178569421106 1.140715434290932 -0.57103584147401 0.8817420885511846 -0.021188461152157056
Ni 9.076337187620299 6.915446210363311 0.9327563324956354 1.4527028538128852 -0.7834655268657733 -0.23959081918758734
Ni 4.459390252532647 1.0020881967431752 11.627031013834037 -0.019650941461708094 -3.3052955529481527 -2.423846827267671
Ni 7.669012342533564 7.1115242339765095 2.57149460185291 -2.065169451627856 2.0201880018211598 2.1470387755998375
Ni 5.808834841173914 2.9379329522047497 11.585825248984342 -0.1692086699195989 -0.6281385000242731 1.7048224015951026
Ni 4.604633579529578 4.771256858996264 4.302810404567509 -0.38916654536760714 -1.0027520872783697 0.7652921983908563
Ni 8.504271413440541 8.503747440863602 6.092819556887148 0.11557365820296225 -1.6159113402849912 -1.0931227638531433
Ni 7.373950285144643 5.751169787751116 9.473955648961287 0.2938331254709198 2.6129157264463063 -1.8445582588665652
P 2.331986736933975 3.559523491558426 9.314018633842474 0.48945088151166677 -0.029017470278272606 -1.030834447336883
P 8.922775795964457 5.263697514787571 7.67392177844642 0.8235125154853302 2.2938688207139206 0.8666281157278818
P 1.8202245923680314 1.5393846477817477 5.5482211737228 -0.9457067643286036 -0.11793084558122915 0.5703347016419275
P 6.610222827643033 9.11872282643342 2.7361015225636947 -0.6368889925233935 -2.4230487568464074 0.483097171379497
P 3.9035302016253692 9.042250900159766 9.839226288998805 0.5615818951499618 -0.2704090901200246 -0.3113739625681605
P 6.527257384076596 5.977338807925683 1.3716179852989563 -1.1589149797576042 -2.061807734244475 -1.3869006106060953
P 7.789975154581255 1.5891059026720196 13.693941895425072 0.3381322044986112 0.3347352630019203 -0.03719177855894885
P 2.004400953162181 1.4379491708782028 12.582777578808198 0.9145845890025024 -1.7651805909681857 -0.3296956436954838
