# total energy = -340866.976100771 ev
CRYSTAL
PRIMVEC
9.32025587952492 0.00000000000000 0.00000000000000

0.00000000000000 9.32025587952492 0.00000000000000

0.00000000000000 0.00000000000000 13.64113658558717

PRIMCOORD
 96 1
Ni 7.1546943818057995 7.579026988872632 9.68688486128316 1.2309608898812605 -1.1019653018454376 0.8051995761087553
Ni 8.563283284705655 6.351782303502635 12.913668337925262 -0.2213421573900446 -0.22035588221737534 0.6404792809778131
Ni 2.979695106569004 1.5511981372332242 2.711871963368562 0.24859790778220411 -0.13259718934415227 -0.4312524187940638
Ni 2.667168288343625 1.0559290631046783 10.153493216733285 1.1609592638811426 0.2699028399075674 0.8212633144398372
Ni 2.799478639993615 2.3326922676572903 6.706569025676407 -0.4552768067331191 -0.2589273147326702 -1.256053056963198
Ni 3.6981563468684655 7.367960475526219 6.405987047312582 -0.13923963436133438 -0.0303349035381155 0.10473028773055511
Ni 5.655354147966527 7.111224708651703 1.204984186364585 -0.4040635170840977 -1.110336042407636 -0.10583689053117257
Ni 0.97968005022439 1.0933685307419008 3.907081065426969 0.38806996986931874 0.8691107729404193 0.5174926181402313
Ni 7.91966369865735 5.9721682838700545 5.796323949300795 -0.9909296407221451 -1.0569671398681926 -0.4760834590658252
Ni 4.360090235607122 5.65039577186919 13.127656751471893 0.5887761961765666 -0.6779649366280969 -0.24199480064338966
Ni 7.407664765328203 1.5391004451761878 1.165621017925689 0.03230436855966049 0.3743590480411295 -0.07838059409243274
Ni 7.676740550911129 1.112866505921654 7.60584788905178 -0.3761652480119328 -1.5045589192522282 0.5449496859099195
Ni 2.318208590109806 6.690471079820541 4.461933603000374 -0.05003983816621059 0.7142210907466539 -0.5990690934621425
Ni 8.959925411725143 5.131434607440962 8.474815416442643 -1.217177205833607 2.8149648399346936 -0.687714559815693
Ni 5.73533126317564 6.186748533661385 6.887000790161284 0.37238238393073286 -0.7070459131544532 0.47907468048366525
Ni 5.90583602318444 3.2720249304279743 2.432828164183941 1.8941707796873704 -1.6579889861813315 0.2445563907229788
Ni 2.8770884102239247 8.203642573299753 8.938436629901796 0.1893172677440159 -1.8869981731983307 0.11598837714287766
Ni 8.406628424848439 3.2759301176174183 9.437947352454962 -0.8933724737012614 -1.128758767889198 0.016501597199449002
Ni 8.062300893758184 6.928939145283816 1.6017828936818828 0.007133525720987714 0.9111575655988243 0.56600110726358
Ni 1.3108100990706042 5.101479305228856 0.18425586544867004 0.410868455821073 -0.3276071365975713 0.2270960291546863
Ni 6.409120517319959 5.412552163545993 11.747460143882785 -0.0020489121092287297 0.7518563846009245 0.22760742157346606
Ni 0.8808033202592999 1.6652687482394395 8.40116675493671 0.7804305966941915 1.8689454294616779 0.36793437546170826
Ni 0.4829094828829098 4.097389505006486 6.628146529138413 0.0629683733024206 -1.5199300023916598 0.7809805556603905
Ni 3.0709870123461 0.7593147176443056 4.881208107232574 0.4530985681348777 0.13259744645446842 0.7734971027991517
P 8.700151241452634 2.225527966215223 6.154866734570858 1.8416017473414026 -1.1719281041878205 -1.3068349155017558
P 8.568474667198544 2.7653758239406914 2.5351095836008306 0.6899035970472118 -2.848678173026739 0.634976605992029
P 6.819211773490682 5.163086196212685 0.8541641650686828 -0.4399653731870294 0.8695787137157733 -0.44396703814725474
P 5.274053162030153 3.7386528584153242 7.349475612154324 -2.257289736038306 0.20674214808868266 1.7430297659027594
P 4.926100051425118 1.5019219447019831 3.745242279281522 0.6179155367446842 0.37696511820540884 0.7083728594959929
P 0.8113758026151787 7.641873473880795 0.45122154511348156 -0.07058629485899456 -0.7492955658522837 -0.16732559396427313
P 7.84046948493729 7.594918025049248 7.375585376814247 -1.1488221142979762 -0.5785552897795068 2.3782313434214006
P 9.120317694167005 7.462933882353029 3.6005369194137717 0.07924062809988289 -0.18753960701830283 -0.28734983173942125
Ni 5.241711874327599 1.439690596578076 7.034938414748127 -0.5569683076373505 0.9506890480345435 0.505945022511948
Ni 6.300614099039515 7.734992149799015 12.52499130153131 -0.3689892990887839 -0.06759713032368359 -0.3416235054813213
Ni 0.5134491651350599 5.021511510275565 4.489461910596416 -0.8574526198762007 0.8111665923254675 -1.3430509604109966
Ni 6.090768539205792 3.410365487594839 13.612790047393945 -0.05240705284680652 0.6147664495927413 -0.7243170415300751
Ni 0.7461405360398211 4.582285134405077 11.54709887637359 -0.4771435248992234 0.06365948583217423 -0.9506036874095887
Ni 5.1483322312463615 9.04729348980115 5.490762158251243 -1.0809509043772996 -1.3970662382851875 -0.19523800410382505
Ni 4.974136649932025 3.687699019836112 10.534872492818563 -0.05536022193785949 0.31267365521619056 0.6148003881544702
Ni 7.254216073473776 3.431764794962293 6.940637930391668 0.36493184118995864 1.8329841808757208 1.3080765012183406
Ni 0.7489189043003778 6.541682515877145 6.6100307478970715 0.7441937258493442 0.8547997556343858 0.6359435978909886
Ni 9.042130068075727 8.52619798678967 11.433741264937764 -0.322489869975664 -0.04819250054482668 -1.3261510993318644
Ni 1.6834712078599263 6.6559768130230905 12.067031211458477 0.5310611008532854 1.9034753449177475 0.5839890592005684
Ni 8.180509698349395 8.77784489398534 13.63258347468326 0.7431999944775071 0.14944742813227166 0.8264903671667314
Ni 6.627065379463054 8.178981176394577 3.794159641963614 1.4401227031550292 -0.3901224815229733 -0.8649209032287878
Ni 1.7776617131976837 8.329344863571901 2.452035347382046 0.026662082672218597 1.7455612740753617 0.2794318624439252
Ni 6.64417736915236 0.8779485259010024 12.346647274350575 -1.018838451317271 -0.136623536894726 -1.303070563363317
Ni 8.796457444861998 3.5654918254972365 13.563668571109352 -0.13806952531263317 -0.2805996574997813 0.7135965697887775
Ni 2.562212887531386 5.7095607558276384 7.869735088218564 0.7010920095638635 -0.9842712548653629 0.8642547303996986
Ni 6.407927524574736 5.419719440273159 3.1635157160707834 -1.3758358681515013 1.1419760379104202 1.1405166797560746
Ni 5.460840408960095 3.8367019496634156 5.234376832995636 0.44862073486918225 -0.006684868219343326 -0.6110134103082122
Ni 0.8746239906492729 0.6764417989512781 6.328082756998295 -0.6524904465060762 1.1280483720857346 0.13994900172353317
Ni 3.2314818176020057 5.3268990125412445 10.675921516327318 0.23476820098796342 0.955823026826999 -0.8794401798908854
Ni 0.01891732324203899 8.849601543559395 8.675885955419895 -0.19551414058334715 -1.75639127481133 -0.15033702982607658
Ni 0.7849603335642911 2.3714738521328895 10.798678605759696 0.09140477426624258 -0.9204148225310341 0.7413251460522975
Ni 3.964985950798275 2.981913327454654 1.2196878219494698 -2.0593654433515693 2.624209297082255 -0.06035870359371541
P 3.2797234617369972 0.6762283650929528 8.081268546381663 0.9231047106583715 1.7323851417047198 -1.2064083973528772
P 1.9176799164125191 8.399554350679493 5.699294494039638 0.5511018215542445 -1.5272134234269503 -0.09565660756406107
P 1.8874543267815724 8.602148751483652 10.923303474458814 -0.8339565936367895 -1.1210323457792177 0.4739918666441192
P 4.7431900309171535 1.813246449926316 11.561940451744643 0.11606782423056139 -0.8353015377004581 -0.06349879188459387
P 1.6385755355650542 2.8649813979110665 12.919124415683498 -2.097159888491524 -0.24943454475088656 0.6894634241859997
P 4.842758323864241 6.5599315767767425 9.026244624052605 -0.0013991943403717836 0.31581580038959806 -0.6379932813311657
P 3.0720029202307044 4.952858505890258 1.4560551017504522 0.16425029747305908 -0.8648658816211364 -0.360285857777515
P 5.432544112284316 6.7140699675620015 4.686248859997848 -1.4977280123733239 -0.7952260098358112 1.1128660079183414
Ni 3.4653643172008257 3.4585698507065428 12.354682266894773 1.4217033201075773 0.5313192396106786 -0.24505055675057796
Ni 5.222251180171134 9.06845047051723 10.639335784123396 -0.35494670495278874 0.11154731065238854 -0.30090957270172697
Ni 0.9489977680581622 1.637149536424279 1.468249724468038 -0.7785534342761365 -0.020675011850848267 -0.5950327186092398
Ni 1.5081105945678321 3.8320884230314944 2.586209750196449 -0.41541776575465234 -0.3666567943008653 -1.721562597167919
Ni 1.0561434289885856 6.155199467703706 2.3066207160462366 0.0010477245382240021 0.12774011836216712 0.22637329205604884
Ni 6.071466289398302 1.9503194523013798 9.43232723819426 0.7920792366767133 -0.85750712726322 0.003731956238606476
Ni 4.036640077558286 4.048327678359152 3.4099022708804823 -1.4754612305553236 -0.6594000291417159 0.29151656152260114
Ni 6.490691396274645 4.980772672077332 9.351626871133353 0.2154553595919644 0.028650316746840983 -0.9142148643679094
Ni 8.437720798270837 0.3140572042313614 3.202161224811381 -1.3797627140097335 -0.6228813653903919 -1.2718841104581837
Ni 4.361162065026659 8.74556884807354 3.0073660140791234 0.0007312217390697083 0.13715087015310573 -0.6506618779377698
Ni 7.975408148729102 3.443927728810084 4.5965991832965996 -0.4487009532878143 0.350498439373448 -1.215989870393725
Ni 3.947827359829859 6.265877505590691 2.8426761616777076 1.5818120846084371 0.8051355556400392 2.34284216528883
Ni 4.979738123681083 1.4197732098863296 0.29456948133301225 0.5678186200882931 -2.8289025330617084 -0.4169655698577464
Ni 1.0639817641349396 6.619199083549234 9.642960359644945 -0.05142334877729854 0.49211814393118475 0.6287090278157624
Ni 7.384252282703183 3.3556835466868016 11.56584191083176 0.473265787111372 -1.3359161491384282 -0.34880356816952834
Ni 2.0938047906820225 3.124252274369183 4.5836673283434894 0.4579916345611209 -0.27282284176783983 1.4706319274874804
Ni 8.717216629862827 8.16972616236327 5.636968079306345 0.18474738898514634 2.1500413098715874 -2.1191500196093696
Ni 1.354894909108957 0.6235595994424811 12.873999465095403 -0.7197818726638829 -0.41052367088714464 -0.4574306198513283
Ni 7.030138482999765 0.7595505201166037 5.228156494259992 1.306495529884466 1.9190228057340433 -0.4004462320464845
Ni 3.7683751542318795 9.142621066349198 12.608134507643179 -0.1593250922572998 -1.0006226996401928 -1.2600228402442235
Ni 8.368881388769088 4.725574747413456 2.3234130209608455 1.5325739164079155 0.6455723792300042 0.017893335340653058
Ni 5.765081519759662 8.622895640943561 8.301518307789554 -1.3290001387448853 0.13212539191405634 -1.747943658264609
Ni 3.2147426381455824 7.0384241904255775 0.9363231521657402 -1.5522292287449977 2.2706990674656766 -1.810894548065533
Ni 3.4253710994683586 2.8749633918964945 8.712102605493262 0.7685019635774054 1.479811537104219 1.4908742226762839
P 3.0018679951696887 0.18597079251992943 0.9015157247726681 -0.18712437385775516 0.5935288803702037 1.286374590764875
P 2.241372401112728 5.019013681715253 5.779435645751219 1.313135660908803 -0.6657493683985115 0.43902409231968265
P 8.511574505404855 1.49214499634464 12.892770460321037 1.7755925303301292 0.6757527594681265 -0.5218251840773143
P 4.389672727586347 7.174108474683154 11.504579869313345 0.06427320815677318 -0.4732148792687786 0.7920725518084939
P 1.2905385426576197 3.9450592438507064 9.029299803911078 1.177747796193391 -0.4912403693119217 0.6524919891679729
P 6.6254343346941935 8.899474232463248 1.6305796880953074 0.25689074391861566 0.7068209416278407 0.5287957018578764
P 8.301980592478328 1.1303326653321981 9.708055822382974 -0.20232010776158701 -0.2692289537689944 0.7362474744190739
P 8.48067785735472 6.088373233459522 10.820231697348213 -0.6586618654241108 0.059294523995259175 -1.0415631466082966
