# total energy = -340858.1707783178 ev
CRYSTAL
PRIMVEC
9.41136981383861 0.00000000000000 0.00000000000000

0.00000000000000 9.41136981383861 0.00000000000000

0.00000000000000 0.00000000000000 13.77449103839240

PRIMCOORD
 96 1
Ni 0.6132843678774857 3.308538732528389 5.032427763929835 5.222794208728186 0.35034674428693213 1.4790669456287107
Ni 4.440039459872644 5.826268315559946 10.996864395909062 -0.30476134234764934 -1.684422497782512 -0.8060102449355085
Ni 1.9131714370043509 2.5985167792813435 10.241457995262746 -1.1494808309278979 -1.5818365100884693 -0.3873783431189328
Ni 0.7022923954325131 0.9417110489224005 6.50197265086603 -0.8878245472998386 0.09544449155325498 0.19312738551872546
Ni 7.16381215654546 6.172569069661431 2.3656587915074074 0.09339403678212949 1.239913213978542 -0.564247614907583
Ni 3.561036366287187 9.17495595060483 11.931504682885697 0.33416139277632123 0.9787665229970498 1.4771944111963462
Ni 5.6438853849769295 7.498207528161394 9.189238645039671 0.7077203135136585 -0.4836039358125865 0.5719624670533375
Ni 5.718762241146932 2.5884842593369966 2.9946573231288665 1.2571331774012542 0.1813144520441974 -0.33970032031667946
Ni 9.374702858014599 1.0904859788288108 4.091808433875675 -1.8494754936625244 0.6345235776150104 -0.8851408298200885
Ni 7.813196655757397 5.162475009561147 0.4391457970235948 0.4980900452439035 -1.059803323765407 -1.5290443059881023
Ni 3.5286424322830205 0.31011309703018286 3.151741551214323 0.5713628857961257 -1.0157140467556764 -1.2335826437748239
Ni 0.9993462760698485 7.813046073844537 10.803691330132619 3.1257541336439782 0.14221182961578088 1.3273299501313138
Ni 5.598795513444692 8.786209919815724 4.999203747131025 -1.5843081115574134 -0.02609849685926473 -0.6847215386256401
Ni 2.8009082815357305 5.474010164530908 4.218451587139379 0.45474510259936524 0.49557087836647556 -0.7824962209739685
Ni 5.220514925599407 0.9528070536263262 7.146082077443064 0.6835162054636293 -0.6400766462227557 -3.588918827765606
Ni 2.6086434129212277 9.008299418546207 7.341803742094675 0.3027653949635431 0.21678230593350406 0.9488915898144884
Ni 6.206092368012053 2.9728163578053715 0.7006999917040109 -2.366877094750846 0.43223046643661694 -1.5799359506316468
Ni 7.54897245553457 6.064338319792775 6.373649568136974 -1.9382122341783008 -0.18919411190259028 -1.301088499936282
Ni 2.5600995687627472 3.3638117059178345 12.389258639791057 -0.046790735101293605 0.7866495810207097 1.17556621516104
Ni 8.974474956369864 0.3590258668751724 9.61068259706953 1.8750988506575839 2.2765077037276535 0.5367450386119401
Ni 6.645923312739163 0.13824454851266763 8.851074019917442 -1.351099541747086 -1.5531445414704157 1.000969027236018
Ni 5.495703371352408 7.599605623733993 11.90334962972856 1.8229105986898024 1.860475958538086 -2.148354151977151
Ni 6.798218094858694 4.70971284306712 4.100004795620077 -0.18652813503465296 -1.3971246023269486 1.0589342908968924
Ni 0.5789516917452372 4.686419703421474 9.335041464440993 1.0651782149240752 -0.015451044447747584 0.856097648510203
P 5.324218806712688 2.517428419205835 12.32516627199275 -1.7792098153677425 -0.5907657158027696 0.2898273467456363
P 5.051157330478845 4.526313484572293 2.142581098973776 0.12999369028303417 0.29145742614989156 -0.5022966271260834
P 6.215324921544327 4.429432846385515 6.438844007310031 -1.4481255188548479 -2.5240532589859432 -0.1952212919332767
P 5.236024862624064 9.458332287869633 10.47157445108566 1.178459734658751 -1.1682534835497105 1.6685258811569137
P 1.6925595232938144 8.832457389803078 13.000157225486655 -0.8560778510158611 -0.06440819107274069 -0.10953439398741782
P 4.629377392555916 7.9910433062154835 -0.14126842155030234 -0.7689783889931918 1.064132290158064 2.9499382428205068
P 6.201480796930693 4.6889043049836765 9.751347749831433 -0.6030103374980776 -0.009624924684273747 -0.07495151380622576
P 4.851203372938891 1.4887374928672503 4.480882921462208 -0.6479370228074389 -0.37872529542962513 2.2304479332551135
Ni 1.811575702671121 3.7510801516869936 2.939242238059159 -0.9585496817295427 -0.4522799288883243 0.7970383804542015
Ni 3.957763238457912 3.4667156206190417 10.631068930913845 2.2407739977714702 -0.025793049803703966 -0.5250927990849925
Ni 0.27534090993977206 2.5983191405207138 8.416957658783396 -1.4585654832412493 -2.563258468430495 0.3112680331179155
Ni 0.13360850787046763 6.075481381344469 7.244445006334564 1.4087295335557286 -1.084836612584951 2.8459188651140472
Ni 6.842743284217704 3.860967302597118 11.909590308879682 0.13374698667787932 1.5849202912201157 -1.709403850318198
Ni 1.594173065978429 9.283967844146451 4.497591866968018 1.4470122311860112 -3.7797661590009035 0.9746650992341666
Ni 2.990970889674644 3.7400876720481597 8.388196513426996 -0.7383105275956897 0.20087489067462824 -0.6047103509083198
Ni 2.5666687047112973 6.642996376807933 12.50825693756621 1.6238056554314033 0.43240581567221653 0.5187339467465001
Ni 0.021181228317773707 5.571351959825822 5.131769475254932 0.867454725394235 -0.9948613716763833 -2.5419087991101255
Ni 8.160843235705075 2.961852112275199 1.6648816265730553 1.0036789699680135 -0.9765875130678601 1.514381818879921
Ni 4.133539387614164 3.739108889614565 5.351210614592976 0.7830549216909158 -0.7915195075185014 0.15819612085917914
Ni 7.711883262510781 8.333410107843482 4.192114810580035 0.9502753575358924 -0.8109830155597518 0.3582829684148733
Ni 2.7834878364916538 1.4187827829738833 0.010668728526183361 1.0699280709042347 -1.8597251964149908 -0.14933481381380734
Ni 7.16096051157066 2.061315805150657 10.055928843837895 0.14316673732988247 1.3075535388353352 0.6329356643026002
Ni 8.192832480818428 2.641639674576837 13.215865815659665 0.5148060724470036 -1.5640568175075449 -1.058807535511041
Ni 8.096328297413802 5.888524525158307 9.532553171581736 -1.0631059057760788 1.6934550402984254 0.6062319297591688
Ni 5.05503481473501 6.01992606686841 5.746346024172153 -0.42653984380974275 0.6845382189702405 0.00010747211214175038
Ni 4.337926100213955 5.971005767927777 8.105722726502401 1.344311315180659 -0.8257609451998746 -0.09693444583522015
Ni 3.4009207360684526 7.94303591012157 10.084924332296186 0.3292793820936716 -0.11139021624923397 -1.152010282217971
Ni 2.9265312423398018 1.9131337915261355 6.636067726542428 0.41278521322781164 0.4899620168201303 1.359159435937085
Ni 4.232565818059206 1.106551186657141 9.015046429379323 -1.2758587788352158 1.500885841276015 1.350468078810674
Ni 3.188129670457121 7.497746371053257 5.611258990144784 0.11555926002525904 0.9698239690917814 -1.040946081849588
Ni 0.6952602201019166 1.2946374071897575 12.051040369862372 0.08969190534019393 -0.6846919709392852 -0.4205412030241467
Ni 0.9550846050583449 2.6200782269290905 0.240426611169099 -0.9068090588221414 0.5107097908904431 1.8499789156615043
P 3.098260502587921 7.520164253330399 3.1554468074076523 -0.2422817357561892 -0.8925204101136113 2.194712941747349
P 2.145302867048734 5.560519473469403 10.752119848388682 0.9719687833489261 -0.24528118470414534 -1.035025859710411
P 8.903852039238176 7.58923429448571 1.7170592005162566 0.6435545774690272 -0.2863219046955391 1.3206132002327708
P 5.040786001230562 8.0084355171509 6.983363262405749 -1.5840407168286397 -0.23702768644610148 1.0691456842122553
P 8.601916481213287 7.885588910365199 10.097280519383366 -3.8727925280309687 -1.3400281144242727 -0.6269586207835589
P 6.049129546593839 6.757608035234064 4.010153509353029 -0.24382362632201235 1.660318405645457 -0.10996711064946223
P 6.903371326883258 0.4613387475684016 0.3416778893766599 0.3623962192522984 0.9182558672065024 -0.8360875239368633
P 8.535218105185534 3.004730311962294 3.7742104746393585 -2.6396503142276733 0.5318982520426 -1.8353326265032393
Ni 7.739797384607341 0.21218497341206738 2.3223655504229894 0.14660815891126364 0.2590612692073732 -1.2698837921987034
Ni 8.050777268773428 3.2200059791358284 5.885577825351014 -1.9128593572358086 0.6339903308193597 1.6213651643107108
Ni 5.35555866732683 3.1011592044104903 8.431145298385745 0.4012347893860509 1.1746871549901963 -0.7178414611080606
Ni 4.91169024506114 0.7467611165742002 1.1447152313347397 0.1651229298859995 0.40540280472081147 -0.5771622660867222
Ni 4.435616116182359 5.078694997793253 13.736707006094989 0.6810993684920206 -0.46529793841454703 -0.36039050167617936
Ni 7.433786703565659 9.597338216179203 11.894272363793924 -0.1986467726750579 -0.18520221713437782 0.10390522072609845
Ni 0.4891653439281108 6.88361686218984 13.373653073050791 0.14307906271208262 0.6034767356115349 2.58319120279868
Ni 7.65560327257908 4.343337637707387 7.974589408824582 0.4386636236564704 -1.447521566722262 0.93482662708099
Ni 2.597152130696043 1.883243281823279 4.4448354937972585 -0.34513948905437974 1.8026716459351084 -0.44695645979288184
Ni 7.352491293359966 7.62210820833712 0.34762963948248066 -1.2789219911415715 0.6203429152392542 -1.0728802115540232
Ni 7.176649264616838 8.210902310361718 6.766402018945131 0.49351630983029204 2.126906780736653 0.774139621479157
Ni 0.4243097140589905 4.687294960789977 11.817025724770275 -0.32113309883745345 0.9473640974263685 -0.6882285233376341
Ni 0.21559471260140772 8.151770675455216 7.8241994879027414 0.23816951336002856 2.049517604023212 0.6144306635198773
Ni 2.2704176138969006 6.446016412046979 8.71865981484335 -1.82794019069391 -0.031745153622080816 0.019652741233920995
Ni 2.7003854433316334 5.44287735404695 6.519011935443177 -1.3662945043199695 -1.2660980999040259 0.36967295541936984
Ni 7.072295999004346 1.2804827073808482 5.279652207327642 -0.3170401597150024 -0.8316757680224128 -0.37471026073296115
Ni 0.8032801552925678 9.355644834668164 1.193751290120884 -0.4441776114961641 0.43191884873346903 0.3500014451323714
Ni 0.8970399833353069 6.6475608910415245 3.275201779294932 0.8791838409057051 2.219027350122998 -0.648055036442542
Ni 2.6488299609159376 5.332820798484858 1.5136512703500598 -0.39124091139813266 0.8934285237501776 -0.49462599795470297
Ni 2.891229195143512 8.050683155077891 1.1537868504476438 -0.027527258885991304 0.07026310719162092 -1.3504948182835514
Ni 5.239667062641383 8.03478735190153 2.210695886119376 -0.03392390644095448 -0.6250925141090977 0.3836019067956361
Ni 3.600008847609457 2.917044581829575 1.7318943423439055 0.9841858942404081 -0.07746759535986013 -0.9418269696582232
Ni 9.186475466938676 4.858026615865393 2.5967672056812927 -0.6393248556583958 -0.3442090068203104 -0.43602310070982975
Ni 8.290127219265573 6.702080954866666 11.917028114238049 -1.810974509373849 0.06375744486261922 -1.120787062537631
P 0.6454976035862192 4.677940059453504 0.09895960972121157 0.564139628574809 0.9626295082258712 2.53000870523843
P 7.975495723712612 1.07094797563513 7.77772520390914 2.6032496641114524 2.1936924709026346 -2.9090954977725314
P 1.8142673543635066 1.730393228900075 2.172443374567971 0.020083401013436378 -1.027631624128869 0.38624165841132835
P 2.3318644457136357 0.3943580304540341 9.464879777668209 -2.331271429732095 -0.22326868498879612 0.2458907932636862
P 8.956009849305316 2.9227666945182835 11.06762377789928 -0.07011501164953086 -1.383723241319378 -1.2080197077040549
P 6.306925781411425 5.830832829793537 12.66163590945834 0.2709911878757397 -0.4879640125534951 0.7412464702955621
P 9.101020231390207 7.642916746420563 5.73153817531621 1.1148699257222476 1.1443841331312807 -0.48924647881034444
P 0.8769090638597369 4.113267297595287 7.221125514854168 1.5723018311251569 0.17143575947790474 -1.722724221576188
