# total energy = -340887.3980273513 ev
CRYSTAL
PRIMVEC
9.10400921777963 0.00000000000000 0.00000000000000
0.00000000000000 9.10400921777963 0.00000000000000
0.00000000000000 0.00000000000000 13.32463773757972
PRIMCOORD
 96 1
Ni 6.488591188665637 2.157650166985759 11.253322769212973 0.544134903318108 0.5683217849769567 -0.393618924712006
Ni 5.099219249282247 0.19604300169122885 5.483075228399071 -1.927021507668804 -0.6768948434923697 1.3819928888918327
Ni 3.0620151232636674 1.768717792370575 4.784677554179611 0.02678035341763775 -0.4312179660117025 -0.8151674859547445
Ni 3.5228054420477064 4.62183232182979 4.953833685667638 1.7926086052721513 -0.5449049487149131 -1.2807029943013943
Ni 3.8620390307490706 2.6416830211128977 2.2230160422344554 0.6500831226161643 0.24464123712730126 0.7060830350205517
Ni 5.534991750940223 4.9211357264282025 2.464671950535946 -1.4804360580620957 -1.654228490697635 -0.18609387571071176
Ni 5.958228032007737 2.9771475500288944 13.582070042436133 -0.4148950604819629 0.7743949320230727 -0.3535328553243976
Ni 6.102062272464311 8.447910516462432 12.335296929468557 -0.41784283025637714 0.23078941884587348 0.04767725147130499
Ni 2.1845980340502225 6.852979154630217 0.3447533494450077 -0.6739756129630458 -0.4672074967324341 -1.2847504248978907
Ni 0.6461798089756612 0.20553393122322317 13.402320485908847 0.23596067863416784 0.3168486125294866 -0.1994291593670372
Ni 8.30582424576139 9.149984389573996 6.552564150515394 -0.12636457817087918 0.319996671240165 -0.2108926799219465
Ni 9.078699997981175 2.439319105873406 1.281435717380157 -0.09613843229648604 0.8227221583735509 0.33459693765184306
Ni 6.967243573389028 1.017154525555489 4.461302239005136 1.288774458455619 -0.5910415951719756 -0.3874752737081133
Ni 1.05697546154872 7.306158521770373 2.4870705442314525 -1.1413358332232602 1.2821849781635597 0.3180637158835103
Ni 7.54910810977114 3.7835351599055342 3.9559514370678115 0.6623938216627173 0.7856998155129307 -0.5052924765296137
Ni 8.103587786649907 4.2234590897329 12.316069262157695 -0.45971633056171146 -1.4464393894016767 0.4558087679771892
Ni 8.619985393281832 7.7369966504726255 8.457107386499093 -1.564756671788047 -0.5082916683672536 1.2552755553672255
Ni 7.2503418417121885 1.1036517164269308 0.2385213979534181 1.1515760228940295 -0.7858461112828078 -0.5554953226362498
Ni 1.728396135874457 6.76914943843779 9.206951816387905 -0.30763275035817345 0.4531201654014326 -1.7159686480199092
Ni 0.464550274560263 4.948984890397863 1.366281440992986 -1.1764295916025995 -0.19720052714683456 -0.4442210631395898
Ni 6.418481214252315 1.8106417544759312 6.745984287172409 0.8071795826532615 0.8801274357658971 -0.2579749781217299
Ni 4.0051995745290325 4.241066243416236 0.3055696940918148 -1.7953226617692049 0.252440678567062 1.4099266391876233
Ni 6.25533737040259 5.738129506956903 4.654668662008205 0.6225373517874117 0.09587695110498326 0.6959374619461175
Ni 5.248224566932272 3.210829256721681 9.00547007963441 0.18862358411110094 -0.6616006363374606 0.4573750840230445
P 0.40625639361415955 5.80391507702711 12.530196467611374 0.6506438802156408 0.5929652945572497 -0.8784389923198808
P 4.197285063445626 6.278825713992562 12.880674418005752 -0.4174252831029843 0.3505568034152092 -1.9031572994566965
P 2.3188548568879397 8.740604410422735 1.3834707206566392 0.8679056968887247 0.812501251976491 -0.6192350268870561
P 6.728263333374782 7.794078787801742 5.616987919691168 0.08890746176568559 0.09558615933744183 0.21454364641097243
P 4.803575656359481 1.3979023959507566 12.36820883292286 0.4021920110929976 -0.6828770292177336 2.1658803337863732
P 4.429000304163439 6.633563430265137 8.239955829207979 -0.23288563925326988 -0.03217067119527363 0.7184711242722595
P 4.828065440955227 0.9934841017826495 3.4815679222317626 0.17860065265746014 0.5190108545569706 -0.7879605865226494
P 0.5322722673752712 5.5584891985393385 3.6548017394151175 0.2596132850561013 0.5371402171678298 -0.3771504947433376
Ni 1.172168489240158 0.0441052826961148 4.437117438715694 -0.4744232977545829 0.08366061154444945 1.531709768635407
Ni 2.1735548709592782 6.52311359133741 4.965839142525039 -0.655539003524413 0.44102980989580176 -1.1439035939504363
Ni 6.553903350260388 6.061959112187635 9.182367350097069 -1.1800682167964518 0.11464189041731224 0.5836946678886012
Ni 9.110199869617338 2.8287339929731905 9.916261555966646 -1.2271361168185317 0.0069327225640912855 0.4700855896111776
Ni 2.7235826873669224 5.53913407510047 7.142578595882679 -1.010866231745072 0.7946187152691154 0.18975486950206677
Ni 0.9411633612355307 0.33523055588101147 9.275320193852094 -0.48854379631636513 -0.555039980266386 -2.522780305810791
Ni 1.6923442596665939 1.4169297750604621 11.056517761956442 1.010186432069228 0.5703061623968372 2.3501680095262816
Ni 4.413705568802526 7.065384791954878 1.5062838040011028 0.04054166886778825 1.333658463452503 1.1437845518740688
Ni 6.038461664588519 8.031547762298183 7.822175580820103 -0.030595099178037634 1.4446699562060796 -0.18204233134915745
Ni 5.322358513386977 2.8361446564159176 4.6349348117889715 -0.16024349030651114 0.8838326525316264 0.47945314686900653
Ni 1.2275299688411723 7.840545650469655 6.879577427743573 0.03293326039291102 -0.5065651725944502 -0.6290296443799747
Ni 5.069385411319326 4.889098718252579 7.102658426189785 0.9144066686637413 -2.0619566011175134 0.3573103200889588
Ni 0.6982037588247051 7.687916937180558 11.428381940229581 0.11580942836285217 0.10760220996171146 -0.46303099675724124
Ni 4.330449405186135 0.874444630228125 10.373243667726 0.3486552155171221 -1.7052111523930893 -0.9022273529887301
Ni 8.636682146050827 7.591760392607968 4.532735025946993 -0.7401560654448608 -0.8488733628476218 0.4407449316655313
Ni 7.3420920458593715 6.044643286796889 6.931103388292472 -1.3392107607293 0.7858476539447047 -0.6903005753753144
Ni 2.5380976050792943 5.55190699992866 2.2966083001451283 1.635662040549357 -1.71269846190907 1.50168314036633
Ni 2.522666309581232 5.965074246883574 11.140143548344057 -0.37637659269179047 -0.7878484864248173 2.8612079300626334
Ni 1.200063173255535 3.4903041294057693 4.05757858073467 0.7060799496967582 -0.06532607490131975 -0.3771648929210407
Ni 1.777940153632839 1.3140817837674743 2.700357449641195 -0.3011281164704362 1.0327458054269827 -1.267591396620101
Ni 1.1587673877810734 3.9237733167504647 7.990145459916745 -0.43463161967894176 -1.2076404699877654 0.15903841425481643
Ni 4.090085355782093 2.3770021632868343 6.821321783635872 -0.34350966676044065 0.9714141963970367 -0.16920172794106345
Ni 4.46204785735398 6.789196466571556 5.9963665471112675 0.01763005437693738 1.8939671483169962 -0.9488514806051723
Ni 8.567528092597563 7.3967707247746315 0.3232860958848709 -0.5820123950901718 -0.6298976488072248 0.5533996164494857
P 0.15853630482225023 5.768609729569006 7.664877421241355 1.459220857437061 1.8592989075108495 1.3896025829182908
P 8.950652109379257 1.8239882318801552 7.876379940858991 -0.0802893810793714 0.07219760521017243 -0.2050182234190405
P 1.9393906517818915 3.6924586524349623 10.11602536619478 0.734827711253412 0.3723792986069393 0.9031521787958444
P 4.385974756951731 6.149394016000847 3.6436356722007375 -1.5825677318275388 1.9646133498796488 0.3498119548293846
P 6.867217824930493 4.226718325006238 10.418374061851662 0.4691479082882566 0.08204441609726515 -0.5796217833708083
P 7.141922196823439 8.172851088212893 10.322170176431525 -0.620036696852745 -0.576432329899233 -0.854260081080832
P 2.9376998784105433 8.500322297100984 5.620385535903485 -0.5574989833298399 1.032298433476919 0.8415470043895377
P 7.23454638584839 4.330240012975837 1.542286518559592 2.4365449915606296 -0.7895842381690015 -1.1128300124740835
Ni 2.4963193071202325 1.7391297626545255 0.20919010129521254 0.7652302348046692 -0.15101502972970765 -0.0782893199302071
Ni 1.7081306115212491 1.3594561653381791 6.7906221544034135 -0.40504413582981214 0.1380965218958267 0.04776646875100161
Ni 7.153830240783006 1.1487529777233334 8.880990962616703 -0.446736630472592 -0.6676347583466825 1.1092775192361348
Ni 2.7885033765685066 1.984710409297736 8.966601422997579 0.342986447267119 0.7952548061912175 -0.560924464071621
Ni 6.391724531379864 2.29245323037208 2.4889623573314514 0.623919576846919 -0.15624568200102767 -0.9911988352231318
Ni 4.633221437268183 7.1688063358238985 10.738831542095676 -0.019448338532598763 0.09251780482476324 -0.2462008683049373
Ni 7.286084181609176 6.4060360337532885 11.552833745219857 0.3971955863196708 -0.33046157532723086 -0.3468392453543059
Ni 7.549244669908291 3.835755756352075 8.130987212567883 0.5225463785140548 -0.6007169134782107 0.5241458617906909
Ni 3.30422728652382 8.821074747241246 12.567771444548928 0.4169606847617399 -0.8424607744530588 -0.7444912024851049
Ni -0.28808999653648715 5.426690458170338 9.766306690162963 0.7012745578883148 -0.5891975999847014 0.8748101373180418
Ni 8.65123035266198 2.3264567045226783 5.561970571635774 0.6245376700468921 0.3419536351272304 1.5577100493539107
Ni 3.684183108123612 2.933521138213722 11.429528134980735 -0.9124454311723125 0.6287236831037817 -0.6420412261482942
Ni 1.5406168432826923 3.808598497077314 12.48359941761271 -0.7023737044897645 0.33808515331075967 -0.5674995461859775
Ni 3.081579638912834 8.663193020676406 8.115757115671888 1.5942816778303575 0.03698377631320082 -0.056561441334812265
Ni 6.071964418236231 8.049491764319825 3.4914412201477796 -0.9161863862719835 -0.2990470655716914 -0.8809774424710183
Ni 3.246143708188929 8.367940900146808 3.3844581879018594 1.1039383664114086 -0.24733755301254176 -0.10753330439698901
Ni 3.5552248186073534 4.984627086194273 9.362689548799477 0.9398778163516522 -0.8470023710771541 -0.07792268061940773
Ni 5.151266869555063 4.619592735580514 11.763896541195868 1.7429711447506822 1.0759706775538889 -1.6448807309341478
Ni 8.335903891971183 0.10405700370723134 2.270891295116852 0.3744343813637551 -0.30541543099188045 0.40553881607804354
Ni 5.06739163331692 0.538679669010396 1.1667825574309225 -0.5934260362437521 -0.17144964343497568 0.281232920208406
Ni 6.261027376117216 6.081277819589929 0.35670327184663425 0.6560233993599992 -0.7294386790273567 -0.1978888114631108
Ni 8.48205055075018 0.6455734819667107 10.912518738934374 -0.9540340532473763 -0.3042823458287018 1.0322912343880675
Ni 0.04370015428923351 5.048346046188929 5.687394684802564 0.42117986504941013 -0.9494991414915003 -0.46419107850361346
Ni 7.822829248676599 6.262192689287571 2.6152668281824085 -0.8004443208119569 -0.2840179391527109 -0.5027072323009407
P 8.656893046349174 1.9456268980451206 3.4210872582894143 0.7817071494137698 -0.6453669480874176 -0.0006476608863279169
P 2.100094621181185 3.487390846479881 1.3156604189529397 -0.012352608028081951 0.6406016654882903 1.2588745855723933
P 4.9187049559869145 1.000985805316811 8.179688199079585 0.5131785641459098 0.03902677488515859 0.7367660659267053
P 9.070815926062991 2.0628410157663932 12.447689563947483 -0.3901165679857024 0.12177798724146124 -0.7238838106473984
P 6.71567248872946 7.988194470757314 1.3185618666669414 -0.5127767007218008 0.6891037268537358 -0.02149802197277588
P 2.302968360932707 3.5809436444374576 6.183284600438067 -1.1996091150428565 -1.8047015318809436 0.004234092686005612
P 6.946914320971815 3.9951760604621493 6.087307404845602 -0.8636345803171965 -0.20533755443167215 -1.3003138265537864
P 2.603937799204362 8.47707065774874 10.29413529067534 0.28323606668136386 -0.4631587805843572 1.2604750972902938
