# total energy = -340864.2380077875 ev
CRYSTAL
PRIMVEC
9.27660024738058 0.00000000000000 0.00000000000000
0.00000000000000 9.27660024738058 0.00000000000000
0.00000000000000 0.00000000000000 13.57724215516507
PRIMCOORD
 96 1
Ni 8.703399157991145 6.587258206259328 7.874678709392686 6.325730873347958 -2.3368494380405043 1.7000450348111176
Ni 5.52142321595077 0.3088857428330316 7.461943281634233 1.1519321206818676 0.3412756352235993 0.7784747585194012
Ni 3.113143567889285 -0.0656569938718559 10.754846026961198 -1.779904784552238 0.5385838915928918 -1.4968062718900028
Ni 4.358480773807492 3.6615761770284294 7.909694164846958 0.845318812727144 0.222436676005804 -0.768865003343779
Ni 7.904479787824004 2.364763116101543 5.199731126417525 1.1773708724699465 0.20159634222168504 -1.2267291111881002
Ni 7.730691957992937 5.264990154136943 10.114570436651857 1.237505375867998 0.27870398313896516 0.046580161752384296
Ni 1.9759900745519423 5.97709909879116 7.292187062289158 -0.3561795489186253 -0.7180072972619634 -0.2221260867439207
Ni 5.115061740251511 1.5791371141498347 11.513311070924095 -0.727595712281347 0.33563874865279614 -0.49453703778532254
Ni 4.630377928304588 3.8334344739991972 3.1467703162801595 -0.4280128288108435 -0.6287349959576914 -0.8494690874500919
Ni 3.582270521150037 6.598659148015621 11.107283552835273 -0.359628169588858 -0.5835018351515047 1.2243706382582527
Ni 1.6128853860045067 0.37182840346006146 2.8028449988321014 -0.3578808478804482 2.2650984334494475 1.6089642195431968
Ni 8.963171795909336 4.027361803059647 3.327212251499176 -0.5578810492596069 -0.12564801171982878 0.8223038398892096
Ni 7.916066261586095 1.5723095363364654 12.956802952654861 0.7545264752339199 1.4818169975700222 -0.4079268566942459
Ni 2.8067281837134552 8.527607582497458 1.09544868141402 1.0266178381523738 0.7884246706432615 -0.6113623090071988
Ni 5.706955221748856 1.3930856187355136 5.320296317405325 -0.11425416806059031 -1.6625380390045947 0.8235238283392398
Ni 4.241085397138753 3.2675896861159024 0.6912338110218446 1.1782275640432869 -0.27799178756328896 0.3161166194594685
Ni 9.217452686455903 8.58840642079749 12.681809268980997 0.7172917592521776 -0.022393022983219497 1.5848513856553932
Ni 2.1928213297281665 4.4915164985650105 12.587542312155046 -0.05678666997174091 -1.8364626263426242 0.18284760085927218
Ni 6.745990113819881 4.2249441126343195 8.324125355138406 -0.338313724381798 1.9950832363337319 -1.3040123584512961
Ni 0.27736385504793665 8.705068946043328 10.383223564027572 2.5811124658927804 -0.908467677471487 -0.6251549919159168
Ni 4.673532672853224 6.256964852937284 3.85516305485824 -0.09972434987553148 0.29556142101593613 0.19216476449514
Ni 3.43265751167446 5.345121427441137 0.9679714955502126 -0.5115878226200222 1.7213157712644356 1.3054146381154614
Ni 5.729246892245496 3.5823354573520665 5.2012246590641995 0.2660325583188837 1.7446117656778986 1.131516276029677
Ni 3.984995569535654 7.97177224632697 8.173838864481782 0.1300505116628986 -0.6598224613911152 0.1916214903971603
P 1.4078632429973312 3.09133428060772 0.9980833400912422 0.5348943585564465 -0.5402851905547147 -1.779477467206832
P 6.399750284599492 3.044997662159648 1.6979972660043503 0.28772932656602707 0.8549061993052631 -0.3911468090224296
P 8.760478079574925 3.068764312102383 10.752781983396694 -1.49208984025094 0.20164185074763982 3.5957142534208844
P 5.718625184913556 0.1272990751382412 9.746979584204222 -0.28012297497367883 -1.1761087179280714 0.4813184822125195
P 7.956345260044858 6.0585662025371 2.31084658755659 0.45747381438443796 -0.21669411709507194 0.7617996118565654
P 2.222413684652961 9.235913121032814 12.747822484303985 -0.6504317642048346 -1.0290130778574278 -1.2732676210692717
P 2.187385241958282 7.5161891294894785 9.568805777756088 0.3587339399093628 -0.5496620037839243 0.10051085033256885
P 4.786948387997594 6.050430624082854 6.891644797951756 -1.8252261341968563 -0.16628249741173942 1.5871810622298341
Ni 5.287263271433004 4.632428056968657 10.721391823335717 0.12333299043340694 -1.6115800598994892 0.132772538579752
Ni 5.664718860628922 1.3622316461712918 0.30040043654785603 -0.4462100685451605 0.15551368893100959 0.7269272254594126
Ni 1.0022253421206844 5.282699184090371 1.8709307209487176 0.6321059693124533 1.485957502100957 -0.6469533187379309
Ni 4.049607090554837 1.428253210434541 9.124123593919263 -1.9624466812456332 0.02740178905172055 -0.6542817340785442
Ni 2.113311588643396 3.3382773803249735 2.973796044294516 0.8328731307646238 -0.5680173663626604 0.06561583822759667
Ni 1.311201067976528 9.057718906064041 5.280108229629401 0.15907003882370024 -0.1022525156140239 -1.698784165820823
Ni 6.714171374825509 3.4367855988034677 12.294193019487548 0.2136594440338062 0.4352530553130246 -0.12634863733127918
Ni 8.740783857159458 6.335927274604949 4.624761874489081 -1.2742407836158185 -0.829992723893035 -0.9143927847066704
Ni 8.465862530967854 8.144038713710493 6.238213133111272 0.7897729571410398 1.2013446096767246 -1.4855224714460675
Ni 1.3128430262278412 1.4457952615827498 8.788522169911337 0.6612573940654288 -1.0351045354671464 0.888489177467031
Ni 1.3930670655349338 4.429595191629899 5.26908299018485 -1.8825241965873771 -0.0303942960211412 -1.1731709754559858
Ni 5.059244436307155 7.9504267890599 5.710316134033889 0.44644995247010855 -0.24569513231311235 0.24170143777268696
Ni 4.440402430967637 8.331797103578156 12.208791709558659 0.49035590982443944 0.22634192459748115 1.8980613729910278
Ni 1.6884340187654878 8.332019741985114 7.531948218061968 0.5806281131481354 -0.32678309803437916 -0.3716437059924954
Ni 6.109819419138821 5.063047842426017 0.6036200319238141 0.07587068318638546 -0.2969729566514821 1.007840814655187
Ni 2.175260725379377 3.621640412780391 8.552916003408376 -1.57118854345632 0.3853350874366589 -1.1013911745095226
Ni 1.7220802480169708 6.591460506190655 13.08550186677685 -0.5399085239415863 2.074295839409156 0.5430036179271422
Ni 1.1533226076426462 5.599096190178138 10.457123744917038 0.5930123457451012 0.5028334734661598 -0.986656724378404
Ni 6.622212436151687 9.134000390247923 12.153383503687088 0.6208396523700146 -1.3137743229340666 -1.3940889008244184
Ni 7.7523899260710225 0.8415703953200342 10.3782262594514 0.476377079046844 1.4726289033128508 0.06641673686233723
Ni 8.170968684352086 6.844247864090548 0.38843630095907716 0.13141216789711563 -0.274292741445147 -0.29057116689019635
Ni 8.531550137620666 2.7625901195340905 8.798705094049565 -0.05601893856778094 -0.8071402447748938 -2.2341107268186815
Ni 7.591533677044081 7.8912977388120495 9.425226269109064 -0.455206615616816 0.7964709379865058 1.0683522417766826
Ni 2.5823272227006693 7.803856504479412 3.7350310811039793 0.8270873773207821 -2.010998879122724 -0.13367679556157622
P 6.5669424516244375 5.953573640455963 5.575521565861405 1.1662526510695979 -0.44148335249345255 -1.1936528974594216
P 9.242211932629658 9.13913962680853 8.29625195424733 -2.045100705902439 -0.11439017941782235 0.09804799061437307
P 7.194838418846902 9.209799491216732 4.668982500411025 0.29085450245857003 -0.20146495885014337 0.6778484656548907
P 1.072644014921348 7.6837709137266 1.8947446815529312 0.8597676411626225 -1.9780923582026904 -0.4460532312523221
P 2.845133308913659 5.287504463040542 3.4118120631630164 -0.6592311076640195 0.5159332440729114 0.40928439916340476
P 0.19701272631687228 4.596175103035711 8.346745417285309 0.3172484190710665 1.3233763648002048 0.36507659429793904
P 4.3500483441439695 4.966942263422608 12.629618188089964 0.6807250158717374 0.1673379352594473 0.12576576824461566
P 3.730056040368503 1.2661910033699122 2.4083724140643836 -0.15512776634650058 1.1970729788845642 -0.861764102767361
Ni 0.6630403674207672 1.2855698213755224 11.831779541856598 0.6176388860445299 0.5376739781841128 -0.17233436003277416
Ni 8.61658873247822 8.399386413290399 2.675314008686612 -1.5912768295657627 0.6920406979948727 0.3617043353915964
Ni 6.679662421747065 4.925577902729924 3.5778344508914053 0.7013051540159342 0.3496677159420365 -0.18423393968383753
Ni 6.3848613411341955 1.2623597674501819 3.010292045155058 -0.17961778106806486 0.21287268646645277 -0.6938067887563599
Ni 1.0366415291962294 1.6062711699978052 6.462128927928895 -2.4785928126602994 0.6578020885269767 -0.40577947133393993
Ni 3.515506828863596 4.563846151025395 5.702970921924342 2.4091861399317027 0.45887712248986773 -0.14481789978006027
Ni 3.4798939603506533 5.5900607814957715 9.108319977665381 0.38276912648169564 -0.10185270907244395 -0.6857476658973093
Ni 4.60403238348126 0.016321250550057682 3.8460664206139596 -1.7034756577592214 -0.7906216782945803 0.1430060433823021
Ni 8.744809901685278 3.6748417154429927 0.5778960193199093 -1.5252696694370185 0.617207454934066 -0.009093220550519823
Ni 6.538027288520806 6.1909803950751945 12.112828062539684 -0.8769487809275993 0.26263535971187674 -0.11395206343913925
Ni 8.9259911819474 4.900967082160808 12.12711124400605 -0.13155846366699278 0.056395348070593196 0.7931030499555374
Ni 5.729265445446076 6.50951101922964 9.730103592956828 -0.47925028682958104 1.897290042042642 -1.4211258503375526
Ni 6.154449143133551 2.2418296090597307 9.339160754599419 0.5696291909344706 0.7970005852377307 0.2579549235170719
Ni 7.969935479469569 1.0223833945506466 7.108691270254706 -1.4605254351810975 0.6200081576076548 0.2195675819881251
Ni 8.54965806138656 4.456126268459026 6.404439606046038 -0.8614054338763616 0.13132603594121253 -0.2905272010261383
Ni 1.5781909009202646 3.0023345774263777 10.701609473217495 1.3041511980220055 0.8149880229540868 0.6421803228293198
Ni 6.261853621290063 7.953738535363396 3.095027295183131 0.7299279599589493 -1.0612143451803207 -0.6871355473837715
Ni 3.314918900794994 0.6358089072697531 6.456154797342197 0.640774957841361 -0.7036913948599235 0.3959601712506729
Ni 8.496688673731207 1.8667766593388986 2.210985840755828 -0.42139660904590653 0.3343431697698242 0.5506757897604193
Ni 3.4905806038846228 2.0566593906729507 4.556807994385444 -0.3426439763260357 0.512875173972878 -0.23389788256786814
Ni 0.5459492632415368 0.6994129894974532 0.777497844777694 1.0978682489579288 0.4803234652891018 -0.8233862743201109
Ni 5.91312766319198 8.151682632349374 0.42759375844279235 -0.8664093148488562 -2.140050774317779 1.8760820405064593
Ni 2.8645770631212986 1.9382528645726114 13.076215062226627 -0.7166410130420561 0.011362733310986882 -0.3642538412863275
Ni 6.893608654233128 7.074947636700178 7.426438949344683 -7.4558793224958295 0.36274228973780753 -1.2215048866746834
P 4.365837117837387 7.284589526651726 1.7841444145965468 1.4759294284409936 -0.8096727813887604 0.8920547833311026
P 1.295978166900795 6.950854554622128 5.433883649655058 0.48493473880886806 -0.3011386579933975 0.9620042159370463
P 0.6654457898759395 2.0979402619630245 3.961716868768168 -1.1455899805139238 -0.8005939590159438 1.3200709545760556
P 8.219800708278141 7.313680945160867 11.545353375985453 -0.7581321903073073 -2.310293541928847 -1.799460338086662
P 3.702847771718214 3.3925269388203336 10.11793784255709 -0.05537333456398205 -0.7562210893275234 0.1681545176234717
P 2.7126170737723756 2.7136931594060045 6.572539024579336 1.6770192633399053 1.442229465085387 0.43548728281101773
P 7.532219094790433 0.11552335873023664 0.8000242132616686 1.0426399246122433 -0.3618303194464994 1.4342911840749168
P 6.063946630705244 2.511379783683481 7.187194500208021 0.8995338653169669 -0.7193807805707224 -0.7878191758487787
