# total energy = -381172.14487714885 ev
CRYSTAL
PRIMVEC
9.20906541708697 0.00000000000000 0.00000000000000
0.00000000000000 9.20906541708697 0.00000000000000
0.00000000000000 0.00000000000000 13.47839810450021
PRIMCOORD
 96 1
Ni 4.689910065623313 0.3937428103422154 12.092414877854633 -1.1403302747768813 0.5366838463567015 0.21633313421122743
Ni 5.742119487086519 1.4502160291949915 2.0982358762582547 0.26301871119322445 -1.1652414361962642 0.5529555869335315
Ni 8.988020433753654 6.1664548134722565 9.543258944532 -0.224084238911556 0.2800039328973113 1.5531178019975382
Ni 3.4092973982505828 5.0487505172042555 7.464201868367739 -1.7083098459230708 1.7680710251421032 -0.8822948757308612
Ni 6.641237401413207 1.317955428527602 9.531263215634263 1.3225680099662964 -1.3108095838787877 -0.6505407789788732
Ni 3.375325155118568 3.1770908082332996 2.2580896002914495 -0.30966263630400864 0.06672321235916251 -0.3323554499158341
Ni 4.692884593823813 2.3123595449922565 0.3315107074923326 0.7788807357085683 -0.34341067928873115 -0.16500183092710294
Ni 4.10192964288195 1.365999123951761 3.7323974660973556 -0.06026048745295428 -0.24692617650673604 0.8882688339261089
Ni 6.082956215348652 2.9573717112187303 3.7147142182626864 0.9597640137526181 1.22701270386679 0.0076803993633932244
Ni 8.745987770702524 9.020279790677332 10.251238097046128 0.928524596122362 -0.5754421980718218 0.691993389696705
Ni 2.1131029918213677 0.5492894543773502 11.06631776200293 -0.8290624987692818 -0.7828813722275291 1.5495478252580925
Ni 3.5906791550215686 7.932569421186498 10.50761111710598 0.31021516637336893 0.5230891383914024 -0.7431987089259265
Ni 4.874763640139155 4.336291154258108 5.276510049425808 0.5176306863799923 0.8236613823583686 0.4300979934746464
Ni 1.3214917097319105 6.785488205538955 4.623090927180029 0.37509206955241203 -0.8571286608778786 0.004402757053385965
Ni 0.6654986536408084 4.138959295805189 10.379566426686852 -0.9184325019936826 0.5261790901706358 1.2572362786380218
Ni 4.085205979686574 1.098448140022666 9.84805875714648 0.8588482146721466 1.1678937862174468 0.8449750562344802
Ni 4.758361050497336 8.59263840972819 5.686698409181185 1.57190048192168 1.1887040380945786 -0.5804201109023875
Ni 6.24891278717897 6.508442674938918 6.500348827151243 -0.5601410489383772 -0.5765824823238522 -0.7952787174506175
Ni 8.879832330659344 1.9697546761279698 10.935509430986372 0.6110062112193607 0.7386352579249602 -0.8771135886402378
Ni 4.7185870960145015 2.9031947780808487 11.556392003432823 -0.8213522746092177 0.8542469684547095 -1.0508319735047322
Ni 5.544806046764874 6.3098031291656556 1.1978268509293688 0.31566513374434674 0.17013786660208766 1.3806430597321575
Ni 5.533957767445407 2.088634504425932 5.770682325063819 -0.7258465908007241 0.4156795040564712 0.5893379822173076
Ni 6.6371946215989075 8.471189252117723 10.802707337259573 -2.699220460481822 0.4731675709706109 -0.13220123945731424
Ni 2.143759971324344 5.802466494200669 9.470340641917849 1.1401484977833782 0.3515510490076785 -0.9348873051155963
P 0.1662282392665862 5.400021116832225 1.847484069862752 -0.4534394964140643 0.7982935930175412 -0.5360698669217865
Ni 3.884770666114249 8.964316298806024 1.6206960940658206 1.2107777300651665 -0.6235781343471002 0.1908136497838843
P 6.881336160680731 5.240501681881625 9.346514624466675 -0.5597888078052812 2.1421318252165236 -1.2502948143231822
Ni 0.4934567312380766 1.8663276599675849 13.085961630308555 -0.3002462280861152 -0.9534660965590483 -0.2864466031988615
P 3.3107696050086663 6.857622816667464 0.6467241315282469 0.241847476432248 -0.43737421542108545 -0.6167330864008088
P 5.072703296924064 8.590870269126038 9.066015694253053 1.6253676006018845 -0.04836990666295541 1.3192949956419795
P 8.843778838693542 1.0006570720316477 2.998175239239693 0.1200275802092578 1.6490250921198244 1.3306965526107017
Ni 2.58159578793278 2.813876050475153 12.968874807089968 -0.013894241483588974 0.5467818540226519 -0.8843180768084771
Ni 2.7510978500330423 3.668320787400538 5.201166078923075 -0.41995164906926385 0.041017065842310005 -0.27351086897379995
Ni 3.7185654495117535 5.441093549569765 3.288689028332702 -0.18977132456229898 -0.8619571926147737 -0.07849423685216159
Ni 5.520475695353981 4.623135130695084 7.653843236107851 1.9501287831102287 -0.9187238079818565 -1.4587994536289264
Ni 2.4026728516866647 0.2597591934942894 8.554146357181919 0.117184711443824 1.825021474385218 -0.17117479250703424
Ni 8.236827740741566 5.177576136389335 7.603057080937225 -0.7670099524129113 -0.6541457227213122 -0.8067116418779076
Ni 1.4749331613626055 4.4950001914327204 3.2650742213217434 0.3457470407313917 0.24043594079670205 0.2609340607500538
Ni 7.28276854082919 4.255656575547367 5.457201126274078 -0.9142027801830512 0.39791163855008893 0.272385240009789
Ni 7.972684111097872 1.9499736031413697 5.780009266740183 0.7232711167640641 -0.6181261100935935 -2.19605840003165
Ni 7.192271052822058 3.7277008426228835 10.597485151369542 -0.43541014971617914 -1.3659391778630796 -0.015042753265735386
Ni 9.2854087903441 3.1576412616096032 1.4001896219393546 0.8600026399915639 0.8355961861227414 1.1396908414206692
Ni 7.378156042689155 6.493192462245338 11.716151794996527 -0.103422367552409 -1.3880246969082093 0.13360891843811828
Ni 7.232459415258521 7.488683248455065 8.726494941470337 0.10473105906150348 0.6382699320313201 -1.063402353970575
Ni 8.860907700776911 3.1333569555268914 3.917227097042542 -1.5743826249135855 -1.2157859819130352 -1.1359493721003664
Ni 1.646488845099745 0.3662491448852811 1.8840643203829441 -0.6101598040586652 0.3470719301904023 -0.4924076501471455
Ni 8.305241889353042 5.604167683855946 3.770218177758747 1.8208532019401413 -0.5842032320939036 -0.3308531543386947
Ni 3.8398488439407688 6.620728812241346 5.4839157047781875 -1.2859704133479206 -1.8597447367990165 0.13940264230175992
Ni 1.7333855884431153 2.058741877370762 3.5853885468135607 -0.2094289508922264 -0.5214459463610246 0.5185485702085716
Ni 0.1533594909465326 8.147997093614588 3.0441634712138477 -1.025588368446595 -1.3773556472301376 0.14784511664215827
Ni 1.1949959841527948 2.0694336025744136 6.165383799138765 0.5566605465889445 -0.8075585632592349 0.7853923115748409
Ni 6.729791776571097 7.95346479111508 2.3263711383577648 -0.1368297393682611 0.7388648574372629 0.7272185314475862
Ni 7.3846300158314175 2.1198624459983533 0.6250459910205854 -0.5326325591054634 0.8801636883204713 -0.5817514281193013
Ni 2.042893075410828 6.9083555592574 2.344459585080428 -0.09163385955791316 0.19983282256335907 -0.3525092991558897
Ni 0.38198467533788993 4.257885169431332 5.711606169007468 0.6851149174093168 1.5440045268423603 0.03203311717614483
Ni 4.49246769838276 7.632970888843357 3.45947391327609 0.8048496489685042 0.4634485439106341 -0.30483179057426857
P 2.7691199914831244 0.6712515569437549 13.54403805227884 -0.016834297948519393 1.481506922528771 -1.9588468797095167
Ni 4.139963083959537 4.819610546043834 13.62935636177216 -0.7854339634460538 -0.7690640067284626 -0.617455309278814
P 3.2708390964100174 0.9179412444871211 6.013549329461591 -0.20365425319197827 1.6458263826768686 -0.18292216285094948
Ni 2.0039387277696177 2.42977513185406 9.803243760134379 1.095282233398307 0.12136352541186196 -0.635802444327434
P 6.92492266833696 8.48347414567644 6.582338059417073 -0.21780586210201197 0.8592338801463395 -1.0687296797207595
P 1.520564081590075 6.250165220105496 6.769593358250839 0.7674010172037429 -1.3691088338403132 0.7358183573014554
P 1.3384916448963724 7.465651375298879 10.614818454710033 -0.5196924540050275 1.0782252779160206 0.9215646198647612
Ni 5.070622048090278 6.4821231653506 8.915475098297767 -0.049738247765391756 -1.2132765852276202 0.9951650189597311
Ni 2.5722025409838354 8.812108861970582 4.117071188601022 -0.5986551458531755 0.26344834253147537 -0.3131289975860543
Ni 8.79657316824228 7.059605253266675 6.2003598304251275 -0.1751263209556145 0.2066560161327796 1.2241893754853819
Ni 3.2360840826989237 2.810210842351937 7.557176595031014 0.7935180260057688 -1.7272293085353931 -0.06569117155022236
Ni 2.8845095839049586 6.259171686297719 11.814004563727309 -0.2427684455846206 -0.6889245209633942 2.0179262023701763
Ni 6.1443070106171485 -0.08347649636607836 0.3918954717755897 0.5570382416433375 0.10973596847526262 -0.7305501669239806
Ni 4.990144023495353 7.298322652688765 12.769394473624118 -0.07224234240517881 0.47931379307766486 -1.3668668318836716
Ni 1.922585841939252 4.878990601266179 0.6572620653357732 -0.904702811112416 0.30106435311203633 0.4277045535418053
Ni 3.639634547943713 7.737235929976639 7.736210040064765 0.41427439617882844 -1.3652879174323262 -0.1173772870706043
Ni 8.178451473673567 7.233481621544142 0.576982035652027 0.44207650599276127 -3.320689261795404 0.5095360822973161
Ni 2.0171721550888657 8.389716648434087 6.419302603206564 -1.7993330684801787 0.5065183785169148 -1.2317278499542723
Ni 5.368157749730905 3.0439553463304696 9.149500478778204 -1.5593992641308756 0.4028638403490417 0.38591872785427084
Ni 8.503494654369582 0.11696618445875541 1.1194282333551022 0.11846254971498307 1.454777734064043 -0.7349441822266182
Ni 0.5141126654601177 6.051921664154592 12.347318131038943 -0.9497580515798418 -0.8563146496170156 -0.5555014932838369
Ni 7.370807208311452 7.526136518397571 4.474140736860119 -0.48551760789553156 1.1738379196160234 0.9752579956231592
Ni 6.241748134113991 4.46732694919588 12.929638662040288 0.49757582461164634 -0.4538616715531474 -0.8296515385035326
Ni 1.6428973095016193 8.029752690845527 13.077388911107798 -0.13818599628583944 0.41471431192972447 0.34058400847321346
Ni 0.6580015533063618 8.154802593119754 8.473734637859575 0.7371807848666206 -2.7021528036372686 -0.3253430231537429
Ni 8.487240653521656 0.3437117985537603 7.543495607121846 -0.485062522635984 1.6638930103705927 0.09240416206503439
Ni 0.15002765099934826 0.12374958220639494 5.142197668934669 -0.35032566124100956 -0.25022952984835617 -0.6557084392227418
Ni 6.039949878827505 5.87461952346045 3.5593885918028207 -0.3606748656858175 -1.2578895959513046 0.30784898013403755
Ni 1.17702909709653 4.052136224986908 7.9165907714010935 0.14065014155561584 0.08533851346750464 0.37377180807909177
Ni 5.001250156652634 0.8234810955367233 7.598635808525276 0.1535642785141226 0.945551726807978 -0.055553311785272064
Ni 5.111077473430191 5.514370084837167 11.128089411571 -0.30541568810219655 -0.6599011371478506 -0.538404428592234
Ni 6.770855000243001 1.71481090305486 11.839573534466274 -0.5200158987827174 -0.8844895693893348 1.3375133184222192
P 5.303325927651916 4.079164832629213 2.033000697104401 -1.0575332967843079 0.32490979227106626 0.0676845478311673
Ni 7.2362443412350075 4.576887203069988 1.4819495484708416 1.819258860869828 0.4493000203243939 1.160876731469665
P 8.193057051772612 3.888923954716184 12.408159664977758 2.560946789578183 -0.5125342456936915 1.2911054205816408
Ni 7.24147509051638 2.776809561289368 7.5279414952622705 -0.583024381294454 1.013213906041642 2.806121016390819
P 2.9387417714366575 4.34958904503681 10.926923819093725 0.38755754900927447 -1.9437678738892072 0.3175829195923498
P 7.875813949670475 8.561880130503216 12.48711635192958 0.4102915002716805 0.9125865847358671 -0.15423147978447632
P 9.200178887880886 2.359298152540069 8.770771208142719 -0.3287319942306338 -0.2653334753693301 -0.452809319029233
Ni 6.654664219110815 0.553443663885849 4.295349490252602 0.3151933363142507 0.041084171634819575 -0.6822985310064443
