# total energy = -340895.92382154404 ev
CRYSTAL
PRIMVEC
9.02623089331071 0.00000000000000 0.00000000000000
0.00000000000000 9.02623089331071 0.00000000000000
0.00000000000000 0.00000000000000 13.21080129776749
PRIMCOORD
 96 1
Ni 6.381129882251271 1.8899302316777835 11.257333473511927 0.05830104973373831 -0.44102518191011136 0.38519779052784625
Ni 4.527178206053269 0.46230006709236565 5.861843610400738 0.2211341551442966 -1.7715337868797232 -0.1882759709636951
Ni 2.661266774207824 1.6871559595118788 4.6411785968847035 -0.5024634917212508 -0.94739520777462 0.8735711227046181
Ni 3.340987075363107 4.134771853587632 4.88589595776196 0.32971492696919347 0.6076223823487922 -0.7381642318258126
Ni 4.809284019642104 4.652344946855611 2.494727402472937 1.6114018824504122 0.179941997176703 0.26054299595922226
Ni 6.967365512281591 6.072468898009772 2.683126499662148 0.728861466367648 -0.08638983755015445 -0.3241508026178546
Ni 5.007463940393255 4.627152737035222 11.393443616387447 0.4261739758298919 0.13492789435985797 -0.0581328995869902
Ni 5.656829027780724 7.9211582817228985 12.476597616026845 -1.1167236911015348 0.2780082426235212 -0.7982462847193736
Ni 2.062863785224481 6.164897500145488 0.4943133994356024 -0.5231071361135314 1.5911837556313242 -1.156491715028092
Ni 2.7125447906856563 1.7992527182934666 0.23082057612646079 -0.17756989740010065 -0.8592554774128943 0.09902706669819074
Ni 0.4425533822396014 8.994169505950195 4.635168029876678 0.938707707302951 0.01719245261888652 0.42757625549405714
Ni 8.58144510822992 2.4468306120068273 1.4822514969061278 0.5681292093501763 0.40776050631971067 -0.34822969794392933
Ni 6.872924060704834 0.6950080280534532 4.862209323218546 0.2889675698485023 -0.5271458249592792 -0.7686606006424569
Ni 0.8526682966710644 7.309098605724777 2.5122057955564916 -0.049150493582721805 0.3830205803708694 -0.5522822150155908
Ni 7.598497613700883 3.877894354741896 3.937505387381026 0.357858479282945 -0.35813050199740903 -1.1818739025466225
Ni 7.273995594620694 3.4898025405400164 12.741420905737822 0.44051970302860266 1.8360769608684313 0.24790062460486342
Ni 8.102341810108664 8.76738546018263 6.946305510865279 -0.6838550768602867 0.07411333417564656 -0.13655154600620997
Ni 6.906664110976641 0.8162934896645485 0.46483282742042054 -0.590212414402461 -0.4529954668981102 -0.532813821878334
Ni 1.8695038716550172 6.512614984527733 9.2288406720836 0.09704860281558124 -0.19648344647515195 -0.7440870250681508
Ni 0.10030128053247109 4.92834902850658 1.4814589938526594 -0.21846946382793989 -0.2399885688466383 0.2961370910137481
Ni 6.4151587719047525 1.9699567928628672 6.760984358337032 -0.141154334885544 0.16739347108773106 1.809801315001354
Ni 3.307996202237517 4.121241533802336 0.1514014802659603 0.38401328330144185 0.7230546298778838 0.29742367103565553
Ni 5.859197119566149 5.481584759180634 4.8011089625176595 -0.32236645702392225 0.7653734452507528 -0.07319570745738362
Ni 5.369181108556017 2.848858926374483 9.263704488074733 -0.13724908629386684 0.69625807851033 -0.5570194725902601
P 0.14628812058726076 5.70069650887248 12.569971264514475 0.14669146265368932 0.4408986836345762 -0.48705024248997403
P 4.021564868432735 6.260810227322649 12.556153007970572 0.050517292023261384 -0.4358865751319654 0.2037630108557007
P 2.3779514457082285 8.497185244857175 1.2854237055104392 -1.0365587514151695 -0.023671118364694717 0.24145846852394542
P 6.304885311719983 7.721750793599633 5.8136642989144285 0.06107244183128837 0.6947393278729583 0.22504480305261243
P 4.711547993868127 1.1792499592993064 12.506599001552107 0.15911760423218402 -0.41395352250429995 0.5478102952871662
P 4.123471012779633 6.0905484380564365 8.00240338404942 0.059767349866619655 -0.4141900639951383 1.3267974746666116
P 4.514487325720963 1.0183483712454708 3.6065884261584698 1.3958650188882347 0.29313070008725645 1.6768531700756864
P 0.16720641018194063 5.614757766593754 3.6288489162548663 -0.10099498905783896 -1.3041429704918894 -0.2201568788326918
Ni 1.561348356331448 1.1673263085745718 2.5218494204121362 -0.8999642679861661 0.5613494674241817 -0.13997394142419764
Ni 1.9676099728867649 6.411503148480439 4.632988195168107 -0.33356669661511584 -0.003935587608980318 1.100202296407744
Ni 6.071178147022915 5.590684809377352 9.03609544482326 -0.1895306693064026 -0.6458549434674297 0.881620732481972
Ni 8.714239013954595 2.4660384308881556 10.323553662728367 -0.3720977628107785 0.40546168298320495 -0.8514971736237141
Ni 2.4811122361192735 5.030363487621606 6.994154462308798 -0.49919844781673384 0.6003590159181595 -0.2929710345809406
Ni 0.5324934525775814 9.02304441788693 9.085701803379655 0.7490729083185164 -0.40217864135655906 1.1450122536335827
Ni 1.3205104693993022 1.0647161182348432 11.553320727259408 0.18786356601662482 0.20543705612401392 -0.9257326351995218
Ni 4.054284954638005 7.11194767527084 1.6450747694711638 0.9253312859960451 -1.0397842003310027 -0.4014145094970248
Ni 5.629948912823677 7.928532712186265 8.050199983355013 0.5873970564408529 -0.05145240224302106 0.014015854663117798
Ni 5.372376394215786 2.772451883691003 4.78112127730581 -0.3730331301408543 0.18908458290791952 -0.7120407952658834
Ni 0.8066724303855974 7.094120869683141 6.957217321131085 0.15578468320420913 0.6495133661556234 -0.006782570139472191
Ni 4.996948381654181 4.285239118978491 7.019928864007874 1.1009075500048846 1.0668237209472982 0.04637318794790079
Ni 8.075290196768746 7.115783823308699 9.23156208063281 0.443411679864417 0.4200591211814056 -0.1109796110743766
Ni 4.554699183388406 0.39083488570471603 10.369118075187458 0.33355409820962556 -1.0253909077238081 0.5911061298613238
Ni 8.164451303399275 6.996962522672511 4.824703529508163 -0.528461201336593 0.8149335155670675 0.3024859160499113
Ni 7.23681655046083 6.155347748088888 7.047196204260978 0.2641258282144741 -0.7938910930744715 -0.45633481568398826
Ni 2.5992475432239854 5.201013404806942 2.5526830244058476 -1.917818758123613 -0.9370951114001925 0.030352129929296118
Ni 2.519509821420576 5.3325797431595 11.229075053130456 -0.5304748893325123 -0.5234046127492921 0.795775711691694
Ni 1.0303532580463013 3.468879737829998 3.8730499767373803 0.09486599334196566 0.1664331640569908 -0.7818380185646794
Ni 3.5869157563972593 2.661167485670373 2.622542439356003 -0.3596927042782063 0.7905846544090578 -0.49643682591119664
Ni 1.2236048568476372 3.34746790898942 8.236208032037801 -0.8483231467711068 0.19761524608675 -0.4202182724670892
Ni 3.7984183936281286 2.4099855383820232 6.801435411117423 -1.297843510636423 -0.1795992691253036 0.865185212633768
Ni 4.155252370994463 6.812565656165622 5.979261332166604 0.0180843683055366 1.0219520572455885 -0.290860415995841
Ni 0.7393511915019035 7.450792374897283 11.275009541047316 1.0402166598827312 -0.7867382840797741 0.36187942751687996
P 0.12369456257887103 5.458495661108059 8.26044977976787 0.20054861768346105 0.03809757820266987 -1.4486340830601503
P 8.745884978709263 1.6646986975867166 7.921434484381624 -1.3736090357035118 -0.3746565246768902 0.6705714723775031
P 1.8044247484715688 3.1825947794375655 10.336262595522028 0.21096904168583666 0.22985328018484932 1.1366960204584036
P 3.9748812033696566 6.295822976119957 3.8437490267126773 0.4395804790437849 -0.8440160347553206 -0.9423345054222609
P 6.876128372595281 3.9606197588994974 10.454460183618414 0.5899388490261 0.5212358872327475 -0.2578857608420333
P 6.417613906648982 7.89189524186704 10.336077557793143 -0.7463292841351081 -0.12620799798835683 -0.5537480009278399
P 2.315751690110844 8.274760868506753 5.798273672986537 0.22752360361040813 0.6711623118839667 -0.00638147804631159
P 6.819443643941737 3.943668497687498 1.7720305091937492 -0.025484260314033527 0.8282343464410318 -0.5780153581156368
Ni 5.220672535222137 2.7793569501591495 0.7014338016726345 -0.47490357982511117 0.5338463769079064 -0.662687441643736
Ni 1.5164970160958648 0.8701015586012325 7.087000076301806 0.7062409007546546 0.6525423827899343 -1.6375278901135024
Ni 7.086249996532522 0.8359751856564361 9.163923118429276 -0.5567747035693056 -0.5050153116088271 -0.3277513754849194
Ni 2.7838339605750986 1.5903496354976645 9.06037690796831 0.2167437393860848 -0.6509246446808531 0.4185012897759825
Ni 6.439628883270957 1.889433788990531 2.532959807752844 -0.2460707704849762 -0.20489841001172454 1.6860587478343545
Ni 4.219970444950818 6.811753295404664 10.150928806270834 0.3554395854288072 0.7486453338627944 0.6181857596869353
Ni 7.983105302861319 7.203852756027271 0.5886691018209254 1.0758184682467407 -0.5470122248659032 -0.6705745577012967
Ni 7.738693028580955 3.646326406715353 8.117865121627512 -0.4071395849062601 0.5525732638934483 0.2857135816875789
Ni 3.0088759438219412 8.608198855957484 12.415101003799222 0.9075973590513917 -0.9877566423108021 -0.24233727158447296
Ni 0.21446865663143508 4.937339154261187 10.325086316697375 -0.4759253362214062 -0.3362247030632532 0.7290738394887701
Ni 8.638183994267528 2.360738423806587 5.7803195975462875 0.3631935183426132 0.0858427067974328 -0.22662705993806778
Ni 3.715088232015147 2.655300435730118 11.24266945915356 -0.4798390694535155 -0.07922674414281194 -0.21906981641610015
Ni 0.8753187199327213 3.624157984171865 12.48706082262799 0.23317565968986295 -0.4770460800894107 0.06995714591542791
Ni 3.206911444882255 8.179082823327205 7.974290285981851 -0.22978334617886234 0.552836544857164 -0.1432513266238888
Ni 5.554543781745378 7.978664397368079 3.6785473423641686 -0.5169537149176258 -0.11850317314493139 -0.18302757808056222
Ni 2.9217186604017775 8.455772898509649 3.4876642264925604 0.504581309395202 -0.4728073594177148 0.847229913706928
Ni 3.350690273341222 4.276176783378466 9.129284055582007 0.7789383284193812 0.03786206515309608 0.286967508699338
Ni 7.249669902945327 6.135282437293214 11.513622462117505 0.05587855633517473 -0.7222987255484656 -0.3224482181044511
Ni 0.3838016467609514 9.111889606443752 0.6269728143231836 0.4195536422998968 0.4406271751407444 -0.9010479879686482
Ni 4.396415202230992 0.49997465131641494 1.5425719912764952 0.5491223292303704 -0.49358367273311765 -0.9303757903984881
Ni 5.972801258870849 5.624334597342387 0.36510290728982353 -0.6157331843813848 -0.06948329160280291 0.3591442879739041
Ni 8.006158296011183 8.827825100797938 11.52016196624322 -0.7637068561816073 0.2553822776938892 -0.045685674962572934
Ni 0.1811374946093102 4.97176519806447 5.9248990526663325 -0.15828225281508224 -1.2092602649793756 -0.13334435192282196
Ni 7.92599634136594 8.782359976876299 2.65257000095023 -0.7442091524683118 -0.7342885509204903 -0.4652046073697924
P 8.529950462215833 1.6091422477678363 3.528459178661757 -0.08002430034344284 0.7015239548949596 0.89749215229659
P 1.700442571068888 3.2226441649528166 1.489847972644157 0.09204575028435115 0.8016812785428516 0.3939863353537537
P 4.894374296237163 0.9888145444692928 8.322580033389038 -0.12500086505413308 0.47349512951335876 -2.146543066910342
P 8.446015543147471 1.7460972458347526 12.35096241385235 0.3786293932817092 -0.8990664387622451 1.3001906707123607
P 6.162451391631936 7.85806492928846 1.3677934761793542 0.04902759485161234 0.04051030140922055 1.7638726707900396
P 1.7329640801992576 3.0862217144958626 6.02464070689681 0.6232608602169976 0.45607719114722745 0.09907668898920355
P 6.991411390805961 4.088846391901448 5.9766717065852815 -0.2159019602110798 -0.7829497635716193 1.1624335344338237
P 2.540658279897527 8.418810483886041 10.181894193232432 -1.2167334334279691 0.4944084826272581 0.018901464890193252
