# total energy = -381168.9412153469 ev
CRYSTAL
PRIMVEC
9.25275393359640 0.00000000000000 0.00000000000000
0.00000000000000 9.25275393359640 0.00000000000000
0.00000000000000 0.00000000000000 13.54234066451577
PRIMCOORD
 96 1
Ni 8.650556990255497 9.319558861080868 12.790971012567894 0.1123176131595098 -0.4596785353452406 -0.14241546098615473
Ni 8.738744988413757 6.238465808650377 13.125372018237625 0.6524328537952635 0.721605299025867 2.5603896315231323
Ni 8.388741063711997 7.93552266839274 5.903688215893768 0.5865627334650156 1.9025764872525621 0.6657588814802083
Ni 1.3329424852251233 1.1725830060434228 0.7262699410174717 -0.13724625808038943 -0.05728854930882391 -0.6139328979478524
Ni 1.5700072948791741 1.9557823664574239 11.861979708834154 -0.5687195346360077 -0.17366156348462997 0.45888586424061617
Ni 0.6496016215610311 7.8403118299656605 0.8683061914977978 0.8012328781515233 1.0449734578414263 0.7150443579788975
Ni 0.45461833699603327 1.979099306480382 7.66481577055239 1.4419103911830715 -0.2393913015822716 0.12148719547391981
Ni 6.545222361261935 4.582232099456144 10.375261078882225 0.6346457050151715 -0.8159020501279238 3.2535122497282742
Ni 6.878737878376031 7.432052566222415 9.992351585210766 2.4283732543831147 1.0690094157447072 -0.829276671662617
Ni 1.2161542245228312 3.8148827066053683 0.28675394906329243 0.696903939624445 -0.376419530114584 0.09520949272431346
Ni 5.922882128744412 6.201010660550005 0.6946569817784088 -0.231452249240853 0.041800223865237685 1.7341370913988197
Ni 4.858371289156604 6.506906707041669 10.354149070132074 -0.20184831033149112 -0.6771185294674016 0.8323085165104054
Ni 2.105593706104929 4.73355163800196 4.880009779608068 -0.8601412224519573 0.36591194571504077 0.5848976870577669
Ni 8.451798582067735 3.0900774765425134 9.89007997022356 -0.8341057176201442 0.8082411911485564 -2.224060798781847
Ni 7.488799706365591 3.3082111515588766 4.423483524741902 -0.9275748306145831 -0.1811334463816429 0.20538229162667854
Ni 6.838802992209727 2.4228336289728416 2.0854125244048998 0.9098319048088653 -0.21520596258531968 2.031008489475431
Ni 6.132910391276604 8.803495760747353 6.28649037761909 -1.2894146631427794 -0.06014581625196093 0.5179852415059338
Ni 8.633948296866128 6.861287184374722 7.963911968146088 -0.322224017908787 -0.6316650251202928 0.4953387077510114
Ni 1.5732457587712514 5.445005144075479 2.0084777256339112 -1.1487969174869956 1.263435208359882 -1.2144796043967858
Ni 4.8109971887924985 8.218869753441567 1.1412022909291917 1.1491476159581953 0.25859692797644496 -1.0449945408873487
Ni 4.469542808765824 3.8235988008520456 5.492136822285376 0.2219931607104822 1.3681760376133987 0.7380238495932064
Ni 6.652285977534017 6.2687778306802215 6.834602241904003 -0.8360422725212248 1.3722347810638043 -0.8090510886443615
Ni 1.7049124478691458 6.820038407143632 6.641245591488226 -1.3820800492890004 -0.10740757745240212 -0.31255332758824234
Ni 0.5512494731586373 2.66755971892015 5.035989930332282 0.8810890283482181 -0.46306622087055094 -0.7964632246770218
P 3.8897282335282677 3.5661039104159737 7.844942833331332 0.21867695185305563 0.29916327943458154 -1.3016960516132938
Ni 4.5935482175704605 8.605375792584027 4.244318748376607 -3.0499032479519346 -0.19614714618165574 1.1814697251296684
P 3.8166129715991355 0.444101656825361 5.997997836083451 0.7674748078644718 -0.8696046818577025 -0.3875027845119391
Ni 2.7348827568594523 1.1162614925832062 8.909127050703738 -0.7413788821083683 -0.9242817616856083 -2.1087684192647296
P 0.18620797269286554 6.5866376880646165 4.7105816762531525 2.6251004414379566 -0.702516657825532 -0.3416638718009535
P 8.167785298732538 4.570046222467956 8.079536232398027 -2.0159209990146896 -0.2783345156146884 0.45828216921834625
P 5.594168790944567 3.1292813951446057 11.922040260176624 0.5121228691878857 -0.8855578627528491 -0.6231253630803978
Ni 5.851367593253363 7.127294608469968 3.0382787092264323 -0.12791803870092808 -1.0897137381715944 -1.7278903391581597
Ni 8.601730207516946 5.679840040020984 11.068412637588517 -0.010260244275427492 1.0889958861689633 -2.753893169434354
Ni 7.449651304287363 6.104162084668933 4.6910666928394935 -1.4493941011546263 -0.9340810071642172 -1.152036764580532
Ni 9.107920619356614 2.69244962711926 2.269546954931438 0.7694221613988297 -0.011368132627625583 0.7141526994025637
Ni 6.776208111552857 8.921163033077494 3.9827757780754385 2.5550329951969095 0.36277905651301395 0.26244355541604475
Ni 1.8333591785829169 3.9970509269117165 7.22288851091171 0.37872838075341875 0.3177878365143043 0.07262697943810718
Ni 8.499292968233545 2.327863362149174 13.748455246899528 -1.124403833354612 -0.09827476191319849 -1.6778096204516846
Ni 0.6940074384491979 5.064041504565458 8.96347217591439 1.17483036543628 1.3323549141497313 1.0697352381671383
Ni 6.537487058936858 3.717682526073156 6.63435228977509 0.9928947348683157 -0.07997287828021711 -0.05141409280591791
Ni 4.765057265294885 5.164739226101114 12.337668417187441 -1.3095847103327511 -0.5766069078038843 0.23154455184434317
Ni 6.087969765208546 1.0596809020116236 0.13346542447109358 0.7232204660317867 -1.322509388814219 -0.43619844994542933
Ni 5.90835530499995 5.002427415830189 8.443811604834474 -2.159180553168694 -0.2672597458577655 -0.33251177298804024
Ni 4.786458885244529 2.665366816227514 9.585796678750151 1.5905535782464928 1.2046073395883965 -0.5730695840745873
Ni 7.451575877114655 1.4988813750551748 11.253075400367162 -0.9729668855961371 0.3378388416279085 0.6161928976266227
Ni 3.5585166521545353 8.111685851367778 7.610226372636736 -1.1233535377132267 0.9672934893604439 -0.22927940995925028
Ni 3.651562346150911 1.4597884895008104 10.890113918995503 -0.10299582153795164 -1.7325244954960612 3.0619393531808616
Ni 3.0154447629610925 1.5432760886385686 3.705509602940536 0.6159342446485973 -1.0814689816642988 1.8618563838253805
Ni 0.1916495173069535 0.9175974624860129 9.702612697714374 0.05069829768581591 -0.69365869321427 0.59918813553851
Ni 2.8925959484036268 2.3002068805108324 5.96464258327045 -1.0735965208947575 -0.04363393463986679 0.44840450509331803
Ni 3.5747552353848095 3.0139550695707373 12.791837995615573 -1.040074477877912 0.47021748720335144 -0.20125181439807274
Ni 1.918299460095121 6.366079791506184 13.001906970265265 -1.053213329252715 -1.928451812357427 0.3552603795384656
Ni 5.509108223630657 8.939270672611196 11.67818300382779 -0.05509951207730511 -0.2554918066885599 0.05996969568541284
Ni 1.201895730643713 7.654877387505303 9.08280771978665 0.4090640556224826 1.4567878225155362 -0.6808749111860403
Ni 5.205349563307765 1.7738454650005095 7.2803222054000045 -2.4804512060252764 0.0571175709485984 -2.286791345041849
Ni 2.053417426426572 3.420308265994645 2.9215302353662427 -0.4008234128802452 -0.07277481786988112 0.1372557711620862
P 3.100329527949433 8.665500187928942 10.279246176134514 0.6134631574002853 0.753666698336786 0.06407497610303804
Ni 8.004798037421265 1.860340209180911 6.392417755702752 -2.2710528512606696 -1.278805005947733 -1.32517048058615
P 5.296609475786509 7.3272466219208106 8.510616488551044 1.0656770089373646 -1.0391614791453392 -2.3547810828182603
Ni 5.473337076754167 1.6784218132319517 4.664971150797133 0.3171157501479442 0.21877645354539743 1.2769568969954006
P 6.941471550342561 8.255936285874887 0.1554916053142093 -0.12333864686036178 -0.3776174070774271 -0.07189935724346326
P 2.0072184258175922 4.451324136184394 11.290493537451624 -1.4705668785774997 -0.25513982266578 1.9524882844813405
P 8.020120598007782 5.02172866062697 1.3817119008890153 1.3909434132169014 -0.6949095349022354 -0.8412927222868866
Ni 7.642339905865975 9.11397192045781 8.091819263302979 0.9028714143306321 -0.3345830536947722 0.06314706497212995
Ni 8.142127411953307 0.27185794043513367 1.8634935477363967 -0.9640538993772235 -0.4249092501848553 -0.9304416106394169
Ni 0.8505686621231904 0.6790494363693909 2.9747372718376783 0.2118391029956158 -0.2810956232995933 1.1209904367976886
Ni 3.760911392655402 5.938241700346837 3.701365294434074 -0.11102486249001524 -0.8361253191533343 0.33473423456065576
Ni 6.528039997125969 4.840680023551884 2.7960332826204555 -0.8230823699264471 -0.4137128672484036 0.045664591916650385
Ni 7.0344617278150725 4.6600755186677105 12.9574197291421 0.9483460017236636 -3.475507981541918 -0.018944916533618985
Ni 3.3799385003914044 4.561496677792871 9.756769066743889 0.8989229712058454 0.5267192789448218 -0.8882634346094702
Ni 4.630392683908326 3.513964641753526 3.30228661318717 0.12931054817308055 -0.9711208335263339 -0.8788629672311767
Ni 5.164933533934637 0.13709250403022039 9.112315677495863 -0.11249039129194821 -0.08633507305281905 0.8666054900200624
Ni 3.7813137151754903 7.3966885405209295 12.634069287547534 1.7552846720107125 0.9221762853068313 -0.2390711992386915
Ni 8.154664893592635 6.904978688655835 2.45119054408727 0.9019789844233498 0.500016572842655 -0.28505255106481225
Ni 5.479851015554232 3.1301419012645004 0.6404182632384972 -1.3822690253713548 2.399205374569907 -0.7646969880090185
Ni 1.6866197532558964 8.72353346087497 12.094258068855714 -0.028426116551176852 -0.15635289700285332 -0.4579533251240177
Ni 1.6098218952437726 8.86686787273832 4.956727138660589 0.6309386884772294 0.9711383170278308 1.6294206876253357
Ni 9.156034940038909 4.633695917078244 3.4492073924921467 0.04340150691408654 1.5468517664831682 0.5750637316864806
Ni 3.4360101894942323 2.1645522544486946 1.5733623434713664 0.2871870809093119 0.7248438605678226 -0.9024780355469555
Ni 2.938341564067716 9.093384542858175 2.086563566999684 -1.026308020221439 -0.2606692371244414 0.34873826214923165
Ni 3.7725606099129037 5.758414426796761 7.0324566560281765 0.9440059795874128 -0.44094676326369225 -0.2912170280043114
Ni 6.561608988555847 6.621326262725756 12.124809737213575 -0.14997707538349656 2.6896981228136836 -0.9935094856341793
Ni 8.958895763797186 4.720116639226827 6.12686649237859 0.19719564205082812 0.10222783302367555 -0.6790833665032563
Ni 5.232395363183601 0.8010386700823594 2.540908947753385 -0.4171069805316171 0.4785370628126404 -1.259263593480696
Ni 1.4788306571862262 2.9696713890350717 9.612909098454624 1.2624677022402904 -0.12992247072546656 0.5710751793523778
Ni 1.6814659692905045 7.341190522164698 3.331984252352919 -0.5781577972307721 0.19411571757392376 -0.488423725798733
Ni 3.683780435500093 4.750678485614061 1.5805267508760394 1.1232337243059107 -0.07694720408001587 -1.6661864343904595
Ni -0.1314973637001082 3.626468877364299 11.884013291880454 0.5856883012798623 0.17666075532226996 0.8530573190219825
P 8.114952073521788 1.2817562502223443 4.012243023667151 0.9173099583534654 0.6350264853933579 -0.07928819350836668
Ni 3.5937974030702255 0.6005546232778185 13.42132598058061 -0.1450266733567567 -0.07898351778375429 -1.257308526636854
P 3.2890672035797097 6.927111276169692 1.8312634298070436 -0.50218992634489 -0.46553525123633377 -0.8567391387489438
Ni 6.7515310166952265 1.8374118848250023 8.691515231011698 2.922998223896553 1.0823423854081877 1.6346366846086364
P 0.9517382741116917 9.101647252159962 7.071823423100271 -0.6914907390286736 -0.37990825999413286 0.9696794730941173
P 8.956480795009092 8.245637970698082 10.59359091228291 -0.596478964137463 -0.32289173339977295 0.5650066045607947
P 5.284358829520478 6.56496773824963 4.987075246430946 0.287523381202808 0.09077613954330818 2.162748987246243
Ni 2.660259296032009 6.643236784144155 10.57632434808575 -1.8146925816553843 -0.8407859578537972 1.2091538213084982
