# total energy = -340866.6457759318 ev
CRYSTAL
PRIMVEC
9.25882979583091 0.00000000000000 0.00000000000000

0.00000000000000 9.25882979583091 0.00000000000000

0.00000000000000 0.00000000000000 13.55123330305720

PRIMCOORD
 96 1
Ni 0.3700300664361711 5.2881437135088705 7.6015642336579035 0.4254301556853319 0.6729505141326411 1.5061293490631416
Ni 0.9886393486797599 6.6834216165225415 11.482339863952069 0.2098436698321418 -0.42248675678629183 0.1742346623792806
Ni 4.481042244444424 9.223729765578256 5.203362459055791 2.867886370524074 -1.0203394613428298 -0.3441835528990137
Ni 6.433460983280605 2.767316142752265 9.776768013832164 0.09841231593232729 -1.2389081697527953 0.9376532978965076
Ni 2.7526871913679534 0.8045349213911978 5.884731794504075 -2.635827083826841 1.551301831834722 1.2013752058043439
Ni 5.2630337665757985 2.8213136392543565 3.618436867238503 -3.3904864850941996 -1.6961382435575434 1.230984029809712
Ni 4.227489185166341 2.768788296720686 12.948948719092243 0.25382084674404026 0.5252285533319083 -0.8160100364606979
Ni 5.6502935897404925 6.371065727977519 8.102662297433513 -0.17057881079424816 0.19387994741403383 -0.249129611915958
Ni 1.0166287917397432 0.6506689069672074 4.1067688562238045 0.7434869295903066 -0.039086167368184294 -0.8213455897409985
Ni 3.318040609391655 5.861357878194141 0.3496328639680455 -0.46474026613886416 -0.22295243929995798 -1.288000299293756
Ni 3.7796118020566554 4.552705588567571 2.4287059158873987 0.04507786617524495 -0.09150247618637145 0.3389662703641323
Ni 4.505642955728042 6.915271978303899 5.983357777441307 -0.7764261035204886 1.1512633767496172 0.12051737536148276
Ni 8.062292872793806 0.5875070205409436 5.805077154216499 0.24886375984908107 0.7343592562574256 -0.2765835943618527
Ni 9.182842772342104 3.158066544823215 8.95781246473143 -0.7356764324069525 0.5899056817953195 0.3830393494239468
Ni 5.981157879435665 4.964056887366429 6.1593199896366 0.052692702408025385 -0.2961982832689867 0.762026640265707
Ni 1.8467106768395438 2.966760599568376 2.0526594617236795 0.3963057275155497 -1.2250116142763614 1.0990023625623717
Ni 0.438862986231353 3.0163601518251846 4.284588389715106 1.7624909599511647 -0.8981056175108727 0.8877538419629033
Ni 6.669070430037931 1.839516565937259 1.9715419262976719 0.5681132685105764 -0.5336224338225585 -0.5728186444060457
Ni 8.236081111707433 8.654330238848893 3.8061216840842254 1.223397732822022 -1.4386206646882063 -0.0038998492750384455
Ni 7.129697222043945 5.157057198509451 9.7450305963922 -0.10692549560966103 -0.9552995502233613 -0.7657647671519004
Ni 6.64926579268917 4.111411233580825 2.714610253033788 1.8291354965535918 2.8289331291893283 -1.4246505756613594
Ni 7.044099338785742 0.9300031783526428 7.764585379176076 0.3123640943955717 1.429994613582092 1.3596821412097744
Ni 3.965880943796896 7.892763695675614 2.1552148921086967 -0.7157928061091479 -1.980639807214892 0.5272730945657629
Ni 7.898587499739369 5.872181450452534 12.003424964027245 -0.4889379464309902 -0.14537608627637544 -1.335527655450758
P 7.12633626675755 4.09883774245431 0.5372723125468165 -1.235240491093221 1.442952973514973 0.3146675457177677
P 2.9234292752148456 7.431720256320048 12.078675178888544 -0.8040870597708667 -0.3691273673285449 -2.2721833653206867
P 0.4614480502261322 8.543353902587906 5.661813426014138 0.9119456087177585 -1.0864872608144964 0.25584816158671425
P 1.1288550700493893 1.4475069629876596 12.206693317629254 -0.8623192039398826 0.384503335563983 -0.8538512756781876
P 3.1274475940460515 2.8582563709147384 4.261266322853118 -0.7272067043730444 0.07300930247819039 -0.107265395447583
P 5.022368998643893 1.7043561657422082 11.253797682126162 1.5561303635716168 0.2714601570923583 0.5058403786132837
P 8.84806199756113 1.7032080708234396 2.653033478301824 -0.06415313763914113 0.06408346074347028 -0.26893584800860776
P 1.7799174772911746 4.074885149269997 6.373537835584869 -1.8772794032486702 -0.23987698296943846 -1.6171197587707957
Ni 6.71347577867031 7.414767338608229 5.735654446950949 1.0382423097651796 0.630043944577102 -0.6814572660520716
Ni 1.6309429027509383 6.248089948049401 2.044718163241196 -0.1611174082710322 0.9321380245052333 1.2555357510071474
Ni 6.720531007122744 2.231396545266998 13.250938421580383 -1.0350747106704756 -0.6693103462768926 -1.8137525863396184
Ni 1.7178555398677313 6.7934905874445 6.308153829960988 -0.867532372709706 1.7859661602549692 0.31360362322962765
Ni 4.4489881750188 7.969889749492903 13.33183930038462 0.8624665281510244 0.4245696074572495 -0.23711767505674647
Ni 8.157149586042081 0.5201684759061591 13.380650926209276 0.5974019901723647 -1.2608687331842865 -0.09237150905488607
Ni 0.9095874582245369 2.1513447011728473 6.975402523791414 -0.19946284081845003 -2.728250014944953 -1.0406712309216464
Ni 5.52016073423005 5.651775002538903 1.0555418024220122 0.7737953507658609 0.06285190232921434 -0.02992095592914847
Ni 4.424415240225152 3.261663593582115 6.228634368591266 -1.1620897779411599 -0.7936167563671622 -3.1937243310363645
Ni 0.9991944148684404 1.0429794218914843 0.7402795671431067 -0.38501344243118213 -0.6872530467982422 1.236296186051245
Ni 0.8682680776278489 5.405295689373233 4.53825348083607 0.9759043709579064 0.5368360556638497 1.0667823261864013
Ni 8.653978403309269 5.8401181221969205 0.6411563850354088 0.2381486874244221 -2.9090733862853444 0.6864557477079275
Ni 5.213295331869139 0.1917670349883445 9.753337618659291 0.4349432373820896 0.8257807426942165 -0.5884496660750833
Ni 5.689041793248938 7.161297608800056 10.403525992350014 0.3349813175744554 -0.9628477948842644 0.08185312602206549
Ni 3.7662513103809836 3.111244641563428 10.060774290830588 2.1127011786602323 0.8644246803186597 1.4375983940712789
Ni 8.749177693267175 6.819007922897136 9.639548449847322 -0.51620629522864 1.582427863815565 -0.10133591733702547
Ni 2.6404609130583077 4.203295862402286 11.920640839203024 -0.9462353831385639 0.6192463397409658 0.4365272940397579
Ni 6.393703567303242 7.5057075667707025 2.7834366916479767 -0.44821630034191196 -1.6020577222313506 -0.04868229569705164
Ni 3.3171795382025784 0.7213128539084471 0.735327944864417 0.17108866055113117 -1.1531096859297367 -0.07470237390989715
Ni 5.312781460112448 8.756797710349003 7.505282586474158 -0.6398835563753431 -2.9989187864842672 -0.6907404911262103
Ni 3.2874864704244224 0.6579213484984296 11.953855040026404 -1.069748865013893 -0.9980801357239973 -1.0747933694163363
Ni 1.1645571184911014 8.987499977211593 10.474168087525255 0.938723648142551 -0.421585585128261 4.167266886630314
Ni 6.328613992473045 8.988277718930759 11.767634044202113 0.43636248632711944 0.9329733759223352 0.7374558929048783
Ni 8.77884298455536 7.887810221630926 1.5097022275629597 1.163997536486834 1.3355114575008418 2.1685067156656266
P 5.964667903223349 1.6617933242778538 5.647015963924007 -1.173462538554476 -0.911581026289488 0.7075560200216524
P 3.3621218989743813 7.29552286716611 7.934599718985749 0.9638821496860497 0.0721883492387918 -1.111687671339524
P 8.678569855762897 7.631849866555424 12.917008533275496 1.4227898683035367 1.2219093212019536 -1.0017154184837394
P 1.5617146309151804 4.5681493169910095 0.7188444498330943 -0.45396014480422464 -0.11627171271125136 -1.2754178346430551
P 4.584287457663702 6.565732628518753 3.721412648505069 0.7864274377075746 0.07638207560516523 -0.011134162239948566
P 4.940770929941401 5.034868419130489 9.901832585806043 -0.9528536597860301 1.5489395022501322 2.039192053727488
P 7.704068740477975 6.097522854750873 7.159807863054653 -0.7304766333735677 0.4596199141931632 -0.02173147813982064
P 1.990065141575807 8.634590413310063 2.1626682502507037 -1.655462620215052 0.42824782763978503 0.892257900480844
Ni 7.420470777882112 2.5076522556807346 4.364310619461611 0.9436663368598069 0.23486538868746 0.03349581776460037
Ni 1.62985036081211 7.863079886727448 0.12032775455095769 -0.6970726039918252 0.6434687026234401 0.2688371176472144
Ni 6.713697990590072 7.7260862381943625 0.3426581873365253 -0.011786708222282928 0.22736985164136325 -0.09360718123420007
Ni 0.10351001575699342 3.6603117776345955 12.078403895169835 0.781131479415958 0.45298158294103924 -1.9903812028723722
Ni 8.894856124330946 3.0380165551719593 0.597398228619336 1.04844059045442 -0.8440911109676301 1.928407075162421
Ni 5.061496814181932 3.90734662059967 8.24923235382533 0.8102605355714304 0.10672160712897104 -1.4386232357913675
Ni 4.63767387138645 1.5414285344069356 7.730477701258653 -0.5109568739042427 0.22522323761200566 0.8402596530366819
Ni 1.4219340745550844 7.87387568249587 8.639331860147976 0.5323829049885025 -0.37272665464402904 -1.5281135666437167
Ni 1.8665153141883049 2.070255868119809 10.174631974984486 -1.4743397153563707 0.009397382054499945 1.0465796259862814
Ni 6.234877597653571 0.3003092248449413 3.6904751939762472 -1.2606651018139126 1.6412215369150058 0.3186573836034512
Ni 2.6488308953693314 7.487662107120054 4.337898881031935 -0.257049380983667 1.07738452718228 -1.4140995396183904
Ni 0.05182815263541827 4.4836624933316145 2.678902649294082 -1.2478676929389283 0.39369811468937355 -2.062510416738454
Ni 8.641617865272526 8.06664452288914 7.660580016014614 -1.0629313278714274 0.6087541819603903 -1.5155619552309512
Ni 3.410841862382133 0.912079009374865 3.165012519081766 -0.10595361861469493 0.3514435768955367 0.48412278443053397
Ni 3.4086475196744863 7.973889564048613 9.924286174414963 -0.1217281078401323 -0.017195795052996194 1.6198088755671844
Ni 3.5232996114415305 5.191712999162284 4.825106848056442 -1.2783884872356048 -2.319902525773521 -0.045252958300528515
Ni 8.227424105666717 1.610295711873081 11.146865602804839 0.2619352483210586 -0.2869019455687252 0.21164241360377745
Ni 2.499680403059284 5.470968570492804 9.476364348921322 -0.3307523670947723 -0.165813785305437 0.9189963449169528
Ni 8.668986966723173 3.557603576554742 6.305172486704184 -1.7196784927713287 0.8116342759905054 -0.11294341966896677
Ni 9.379565133141133 0.8423850183906064 9.014876485726234 -1.7384676004533735 0.20945903279921343 -2.139071184013329
Ni 7.693198874069632 5.116068358143408 4.748623357040465 0.3174240254169824 -0.7986286077594569 0.35310836619246927
Ni 6.254015599243046 4.153557427695627 11.978978875204461 -0.9614966801730086 0.447696680393016 -0.5117989101895637
Ni 3.180185889669494 5.309809375685636 7.197195944437557 2.176371463125684 -1.188672670636011 1.085366259836176
Ni 2.7177165904954563 2.9392340980078964 8.01513487400538 0.7024991743240353 2.120614005749406 0.20858022973868592
P 0.11446784105024199 4.891384330774365 10.166528646977175 1.1866360998219563 0.19040947236693015 1.166722648727481
P 4.031896401626099 2.5346602627617707 1.4394795573862682 0.6917380791527893 1.4316951412129664 2.1534629339586266
P 5.658922819291237 6.316670101785854 12.46651182716162 0.40001634359791755 0.007631034182696536 -0.09340457830509075
P 7.482264209235844 9.198777218755014 9.792257110522552 0.09023903609291556 -0.5220655822228945 -0.14253758838631578
P 7.240627264154981 3.3609552863956322 7.857560698170367 -0.4541750890285081 -0.592188050071593 -0.007093416511671655
P 8.22672043458747 6.326169661355667 3.2348555772288647 1.1621730816835856 1.6866107636830825 -1.5545244525370778
P 5.336428511907089 -0.029396785218474195 1.462272945055824 2.6867328695377726 1.5446755847674558 -0.25324389119464774
P 2.3122539075702844 0.9249978548600105 8.346435254593086 0.13688321831401587 -1.4560488874669826 -0.4604848332966199
