# total energy = -340894.9141889969 ev
CRYSTAL
PRIMVEC
9.07119514388753 0.00000000000000 0.00000000000000
0.00000000000000 9.07119514388753 0.00000000000000
0.00000000000000 0.00000000000000 13.27661102354068
PRIMCOORD
 96 1
Ni 6.450680878607856 1.7955613827155272 11.36540255049691 0.16154292584422503 0.42635986658845276 1.1024815793602238
Ni 4.599875919166246 0.5130731313843929 6.085745802081092 -0.44263674937160546 -0.5881596456384903 -0.5346030525682729
Ni 2.9481746158101516 1.87316545478312 4.662971522167221 -1.177188067035179 -0.3978414474337858 1.506268188633851
Ni 3.416910468054302 4.321607945496408 5.209184449750858 0.34156642699114076 -0.20104226949042794 -1.622573068575883
Ni 5.064956079879918 4.684428526500206 2.6650807664722875 -0.27770510956080563 -0.4777986419847191 -0.394998578668352
Ni 7.184477044798828 6.031646103027451 2.6153860396449478 0.1650036306993158 0.2912435103668726 -0.3318304306502995
Ni 5.2858215324458735 4.525147415870767 11.690613050472136 -0.4255499690926478 0.2520586126372949 -0.8043835079653631
Ni 5.638564015954979 7.583355625389848 12.248403544061603 0.28202147754797235 0.9248391768509749 -0.6245525824452277
Ni 1.9801783406021014 6.431295735181972 0.5642881904710582 0.3964679641250269 0.3828148921179665 -0.3881527593911122
Ni 2.7337678539878705 1.5521086549364451 0.4070662410759075 -0.275612488697835 -0.7600836576067231 0.419522017731013
Ni 0.513369759456469 0.06008668766435141 4.618216060943716 0.5396642691412642 -0.3010530402581267 1.0755855263003282
Ni 8.651207613668625 2.4212107637294285 1.582293055848767 0.16186302818780512 0.00955293379575774 -0.8402290569090627
Ni 6.916350666987735 0.7641148207872914 4.729008913662822 -0.7750415644681361 0.034583137291508186 0.6937725930843148
Ni 0.8711739697000832 7.32696737373369 2.564204543979282 -0.5520233049272493 0.07659599138818421 -0.08363515762315274
Ni 7.6338005400324995 3.861634867491566 3.7699595579498357 -0.7924870136380933 -0.4085506063211738 0.10737029645656347
Ni 7.621345789483253 3.9261764189539763 12.667732226355623 0.47945906040627745 -0.3284705130391311 0.5618459474446259
Ni 8.02326322035395 8.98097276058542 7.285287954688807 -0.45111933292131984 -0.26822750908767357 -1.414288772811061
Ni 6.8142725111751545 0.46096637384252676 0.28222210751136556 0.23019883644972614 0.23383077677535857 -0.677069421397021
Ni 1.9478213885196816 6.488589401947479 9.114246755537737 -1.1957452612120762 -0.49504200244619906 -0.5880735136825872
Ni 0.022495656144993895 4.797718679165567 1.501677347086091 0.34450056991880024 0.5969710732825332 -0.3587503949695951
Ni 6.185021865799964 2.080759749262004 7.0493761112007585 1.2714642493119457 0.30448572008875946 0.1706950246571383
Ni 3.7154979182210908 4.382693371715363 0.5959793168504084 -1.303839837429174 -0.8021397062365089 0.13561720711739872
Ni 5.968301949287182 5.614851912578628 4.768998369104409 0.620044410162229 0.3473267265136857 1.188270807211902
Ni 5.255668880715578 3.135104728387227 9.520511102987603 0.2838539027710208 -1.1273258920974134 -0.4238808089203409
P 9.493549697610712 5.476407336553426 12.608836586577008 -1.3255468900889624 0.9816638991495028 0.25333953623224753
P 4.065727680752673 6.148855011874366 12.836331268350094 -1.5330781097378436 1.0477805882729179 -1.4889276404728744
P 2.3357782504935916 8.542743336671288 1.476160075931662 0.7767050682134881 0.27531681183428713 -0.4011383730175027
P 6.493297352082262 7.952344618901649 5.8081590751455945 -0.024538608571312577 -0.720063922680676 0.7388160064771985
P 4.716059782993449 0.9061497757399449 12.512316351858036 0.23020783531079064 -0.018707603711832294 0.0885765607888281
P 4.052783085680732 6.102065788762193 8.350231717893957 -0.7647442963071861 0.4257751977295764 -1.201053560798867
P 4.706090539837133 1.09522885438047 3.680475849087419 1.4183804263819313 -0.4213153621860099 -0.16353244547042806
P 0.050809576676212664 5.553557848877784 3.633357341601657 0.9701350725742969 0.1848916278724945 0.05565024237445255
Ni 1.4296475242628623 1.1192765919668157 2.726312238928565 0.47525067875188476 0.4889564583737514 -1.238835407533331
Ni 1.7203974620665416 6.722925578887527 4.749322040323368 1.163897263463544 -0.44752724469468735 -0.350118687436526
Ni 5.9285066174157 5.700393280152841 9.28947139826139 -0.14982023809065811 0.06749351486628376 0.24319576293002634
Ni 8.74574760654863 2.4839834321932206 10.339638185031928 -0.41537508544217494 -0.6351396139324545 -0.2564860522810293
Ni 2.3481241467044613 5.423721836779192 6.803877828979684 -0.5105326418826305 0.05060316686884834 2.2445069824513406
Ni 0.6108714974598024 9.366825105350717 9.188702215867789 -1.260337800381481 -0.011881067708302119 -0.09534344719901645
Ni 1.3517259603750051 1.1601332536374689 11.592724879567566 0.6511277618305947 -0.7151034933516072 -0.9665203586398451
Ni 4.23085971206985 6.996050185069075 1.7962190443432189 -0.49454680797733536 -0.36634286260487225 -0.14964128931063259
Ni 5.70110083335229 7.956961857087786 7.886027834604215 0.40260390181943567 -0.09328862155251674 0.606970093476774
Ni 5.267053230270789 3.058861335549341 4.4422475802411565 0.5232531747730924 -0.42827276734044956 0.615289926196379
Ni 0.6713981380750924 7.2561031994505765 6.774111610150626 -0.158847638400249 0.9487820608198174 0.5535834503255176
Ni 4.96411160656894 4.357811084201464 7.281570579033249 0.506782687921895 0.8838779039472648 -0.0946757317080305
Ni 8.324599242564746 7.256094128255712 8.958087950180731 0.9187400059317726 -0.03256507842021489 0.5739563575549147
Ni 4.586187486115399 -0.008884328250496802 10.34902505747793 0.7006101848314386 0.8104927061868944 -0.14281218220394115
Ni 8.200623222348757 7.298148187648506 4.551805843339175 -0.6775682154103104 -0.29469110259584086 0.3897445293582642
Ni 7.396879072556008 6.124589565611267 6.997902523060449 -0.9102173131727421 -0.09111783915344307 -1.013333719448958
Ni 2.4945241606260136 5.222994436812893 2.641328749838531 -0.5376868336999192 -0.44929564944901973 0.6660159917963369
Ni 2.341021401125394 5.207509907178833 11.64664134048494 1.6029478381457878 -0.7745497124333822 0.2701198410143799
Ni 0.9396306488661024 3.441021704004701 3.820198556469058 0.937923777949075 -0.2307750206681703 -0.24620961005568562
Ni 3.644524889599601 2.636706068935475 2.501340256447356 -0.05779274263875208 0.6094782046106084 -0.8047802291831494
Ni 1.067534496458511 3.3648418095308683 8.332560123178016 -0.1281620363909341 -0.0050822996189138275 -0.2764465545633562
Ni 3.502977964930669 2.5593650615189594 7.238819851874845 -0.49994663883666796 0.08999580973385791 -0.6142668842485034
Ni 4.149672518030697 7.119536360762369 6.07273498728664 0.07526107462684457 -0.8815204594586818 -0.9852415891984323
Ni 0.8985853063422634 7.154079470807185 11.18417731237025 -0.6951563608057189 0.6994788994404728 0.7710797516069107
P 0.22117205895238198 5.501743183810562 8.02978722370065 0.8037677287582351 0.0252726585238597 0.04574763854875992
P 8.337516624052094 1.9130424274083841 7.9958119704543655 0.1776755697400295 -0.07417169821740775 1.0793905018687153
P 1.8872893051874728 3.0376891667351082 10.601440125783347 -0.542633379071917 0.7519042071197244 -0.733032567026202
P 4.078218716081378 6.181148465592733 3.952261546906936 -1.4794816645686262 0.3901944724114893 0.01769690305913081
P 7.062124768463622 3.874452465835401 10.527342977650449 -0.7005502781277806 0.41384425061994534 -0.06465244587306286
P 6.574411976562498 7.674747913651799 10.018503372909416 -1.145560412827569 0.8268302670046535 1.432737466434552
P 2.2940598253107907 8.654926803563155 5.902914055343894 1.0762097901478886 -0.8426484649838326 -0.40360148984601457
P 6.871557106745798 3.994527872259565 1.582824627867839 0.03904657237950049 -0.5714819278724933 0.0437779164168988
Ni 5.446590319033126 2.8421414190365586 0.25284504294200283 0.268040589887848 -0.8876455985198133 0.5511979808124765
Ni 1.2120477018482032 1.1200567147251808 6.891622589786536 0.3178857955447493 0.5110951992543198 0.3789073295334442
Ni 6.868454758102066 0.785870267431325 9.295605340228906 -0.2824655070639265 -0.10783977989381427 -0.6328058235929553
Ni 2.770687617087239 1.475901546878018 9.247862734536454 0.22428221385497502 0.12324274471244581 0.526409718124203
Ni 6.5345168615475036 1.8182302986824372 2.4319029811164623 -1.0609400084730116 0.3690348076147386 0.6152536736418048
Ni 3.7828787536761554 6.849550388004011 10.544084774892758 0.9270834928004614 -1.1887315488984043 0.0924974931097891
Ni 7.895468227099919 7.089111573186133 0.06622607234878701 0.8121821780741755 0.11333602712169515 0.45957003479183434
Ni 7.575445543467821 4.166354445386899 8.444866958320041 0.5791376446455381 -1.384532624594551 -0.6448807524796184
Ni 3.1640781247851097 8.303735494375914 12.402929534342961 -0.32011674175779703 0.516720001640265 0.6262790782180311
Ni 0.34070591504312275 4.883350758688428 10.42101043144632 -0.39281571208442023 -0.7114435280015167 -1.1632560303351192
Ni 8.450534640871513 2.4628294057687175 5.836689797234079 0.09842722833066274 0.1506386202268954 -0.05321643612197932
Ni 3.6582042514555835 2.757788377989622 11.783682602664571 0.1637587025486212 -0.08466128489482193 -0.5711068039212616
Ni 1.006421856654961 3.3204655242527075 12.686903289582702 -0.28489082867596743 -0.05423767829764208 0.30034341578561174
Ni 3.2833643372560446 8.222457588388114 8.033664252385828 -0.7305547949096709 1.0858167171100332 0.21308146004314912
Ni 5.665314969611008 7.986189246941882 3.7367816627321595 -0.2703263005982312 -0.22441616832967803 -0.2102033671644057
Ni 3.205905404306287 8.547396859636885 3.668699623914053 -0.5381246925682861 -0.3915288749521966 0.22303779992491266
Ni 3.243079160861868 4.293496312610671 9.41550657971167 -0.004633642117269439 0.2825251566572683 -0.21266417000007246
Ni 7.416155361643517 5.996150517521841 11.267488073127232 0.11904001948500789 0.37042628864562654 0.00556669545450009
Ni 0.6751481700321633 -0.36999680326127077 -0.01799815773107076 -0.12853716034216575 -0.19499374930350288 0.9971326842090633
Ni 4.701999430953149 0.28159528794621413 1.4393972445034526 -0.8482820091205262 0.2960941535909546 0.4297668353874728
Ni 5.918546445454249 5.665550820677492 0.42329642292784625 1.1981870378843493 -0.2237188851523373 0.8241774027628386
Ni 8.120569927667693 8.820875242418156 11.200745849790643 -0.012037647890824428 0.1553851337729453 0.504165562014022
Ni 0.13184256040266554 4.847229260737153 5.720095008279505 -0.2969657575626305 0.16099219554707758 0.613788144839872
Ni 8.142839711060557 8.890369666276698 2.2915960887855356 0.027986457910596965 0.13051305312161393 0.3643466581104499
P 8.523630329091345 1.6780531244380763 3.6737840286357226 -0.01673839580060343 0.16434645673129114 -0.6258977836192123
P 1.6600377314367625 3.2490389358879823 1.5222163464987668 1.9563400541272629 -0.2979934274961965 1.016167075132695
P 4.809193740669425 1.031050150712648 8.322204447120463 -0.6081461160627462 0.05203629977094909 0.33735547423358675
P 8.5573661027932 1.5405428814839401 12.778711038569456 -0.15548952056129353 -0.521734681246037 -1.0848322417095768
P 6.349047211343647 7.744786609202224 1.5511462011612993 0.11292516483652167 0.2397448282669484 -0.5406592860646817
P 1.6303023546702435 3.162617662411892 6.109763604724385 0.7820984713149175 0.6026182442659815 -0.8444412952181972
P 6.713954167166329 3.906900129866468 5.980913631507588 0.29143248644922715 1.1229161930654918 -0.22883460911234785
P 2.2739489862957294 8.502086241287659 10.131806225247587 1.0251528235710732 0.2339765583246035 0.8598008083934031
