# total energy = -340897.444681843 ev
CRYSTAL
PRIMVEC
9.01050383587634 0.00000000000000 0.00000000000000

0.00000000000000 9.01050383587634 0.00000000000000

0.00000000000000 0.00000000000000 13.18778315949673

PRIMCOORD
 96 1
Ni 6.362758057688804 2.085643231240308 11.44903952850188 0.31096387161393546 0.5367504379285788 -0.15466882443221106
Ni 4.596789470710095 0.431024644793082 6.135088763928665 -0.7693576267094814 -0.8687950414722134 -0.6195715842908684
Ni 2.651629000016677 1.4351749813602475 4.744502259290006 0.22020881511654977 0.20201826025045208 0.6511074501156205
Ni 3.4694583424756575 4.294676297829799 4.997865904918243 -0.744317653021718 0.6629165269354067 -0.6174134002972851
Ni 4.884224533338906 4.489285153085507 2.5694414941622514 0.37442743938521966 -0.3098055896397761 0.09113120888988176
Ni 7.203771425732234 6.052021832929644 2.4588754074379375 -0.16356021338456994 -0.4231112777441681 1.1507501845586248
Ni 5.349770219258744 4.628425348606325 11.559210054121198 -0.7175434702516674 -0.5684508543556532 -0.7393027163056299
Ni 5.787104018624011 7.694528500530924 12.502057429917357 -0.821594986747643 0.9426314678373895 -1.0590728733572856
Ni 1.8378363631394432 6.5909580701069 0.33555295358336923 -0.13671146862284198 -0.927802630354673 -0.12203381200600917
Ni 2.7310115361220006 1.637001249944033 0.3115084249117396 -0.25352902653523435 0.5899581322998098 0.657820600469738
Ni 0.6719655092035657 -0.10074643997657508 4.700244468047993 0.1377939030537433 0.37784160727309124 -0.09454049168174686
Ni 8.567664313661242 2.315960711988115 1.4103014863637948 0.27464266858539793 0.30928134170518995 0.15915051435264851
Ni 6.846450897719438 0.6994448418210919 4.775401979047779 -1.2733056733960586 -0.06447915351999217 -0.03355135359288416
Ni 0.5926956043923753 7.2843884008212605 2.453204196515725 0.051976135956975 0.31682804370419626 0.2900381772048618
Ni 7.677255365262603 3.603183225374535 3.815027371783735 0.059248758358988275 0.100075305457047 -0.2469130638806135
Ni 7.49376547136376 3.937346759313473 12.715712687536225 0.741694099355942 -0.4853751687803963 -0.1886492951427138
Ni 8.032314256889197 8.663238724611205 6.825086092797835 -1.120454876009193 0.7308913523134832 0.02897530418642752
Ni 6.8600747790578325 0.8143431786429589 0.36002097592094096 -0.6440454010625166 -0.546474350084562 -0.21738034452881919
Ni 1.7793311637147136 6.5142696745572515 9.25596406366523 0.8204019948808066 -0.06086649646806937 -0.44011526850133237
Ni 0.03919478930812127 4.8661224317457625 1.4077956653319117 0.32447399028522833 -0.31308554594262855 0.10015938053042106
Ni 6.301468612673093 1.8587407313306294 6.907404250953455 0.8356967162563479 0.8667402158257137 0.5334933644438619
Ni 3.44286834655661 4.385547225936745 0.36153924576586116 -0.8174740226007341 0.15867228916464932 0.10705302232646079
Ni 5.8083327649423016 5.278740419926364 4.7629656820747295 0.6257489167461739 1.2644533652117513 -0.44458050336153754
Ni 5.327162865900259 3.068049420687227 9.09476975970271 -0.259752638847443 -0.41674394076524357 0.1296080248088413
P 0.19807069071219646 5.542829267907174 12.383063819240792 -0.02879481274450525 -1.239509036561588 0.4115917071403428
P 4.0787125492063705 6.232502218649239 12.431068177850864 -1.3564212110703155 -0.4079065449792717 0.07068091145532988
P 2.2756387086883056 8.354529863146448 1.4058304745118695 0.7178936545022346 1.0694346762075841 0.8755231042246664
P 6.166734553378778 7.815341331870332 5.869143752220533 0.9598594016799018 -0.42135418584374534 -0.14706298706049512
P 4.681722476990319 1.0775751277380012 12.578401624232134 0.5094694907254387 0.4546114052349784 0.23683408237805662
P 3.9754071262270814 6.202560315416778 8.255604445933423 0.484464741150985 0.27094722201168175 -0.7390576901743594
P 4.613882395907801 0.9132145328347987 3.7748972922091286 0.28316510423411234 -0.15351105667868403 0.10108240656532269
P 0.022961466147241417 5.552569622223843 3.721961485016715 0.4065196919340741 0.20127521143684046 -0.04677042338631945
Ni 1.505646129473725 1.1520739709296943 2.504136067722915 -0.5056030657914969 -0.3700059132787563 0.20107389405931173
Ni 1.7673922465365575 6.286718418393364 4.9264540602361615 -0.17497565431036316 0.3829676156457469 -0.3333828627390839
Ni 6.10270591528974 5.645278693051049 9.000371219463503 -0.5462789462443044 -9.641636854822105e-05 0.5040789158374867
Ni 8.613428661093584 2.4333765834964556 10.153498518255935 0.19156338346571522 -0.034324741423798946 0.02961628020453609
Ni 2.475239382900012 5.32375689556566 7.0133416420140575 -1.3079050086374828 -0.7537816266480953 0.3616230885316998
Ni 0.5915062179263251 8.858640504177613 9.13412223282262 -0.021920454222175152 1.0516860939749113 0.5579005896436328
Ni 1.4695770838403979 1.2934577818296533 11.306559139322237 0.09153667185841655 -0.7051641227507082 0.39335615796892254
Ni 4.045707074773476 6.66500638812206 1.4812249617545128 -0.41394040987817743 1.8168582218481355 0.6927338674071554
Ni 5.420800018591123 7.887758748746437 8.036845639114778 0.9948531441462671 0.39100462701761046 0.47649920644700516
Ni 5.180805257051362 2.861880089401652 4.701919520654347 0.9477639039679484 -1.1464829246418384 0.33665459151182014
Ni 0.8885005237508393 7.456570112789097 7.134709520370955 0.3144196913730198 -1.0994821304122677 -0.5497242244804275
Ni 5.052648865334447 4.378410907140443 6.994509689634928 0.09461042568773383 0.6137570344916203 0.22420405231887192
Ni 8.099190214093932 7.127236208742606 8.931755334026994 0.1512826815687975 -0.560764541454989 -0.0850124975866536
Ni 4.8106357510038125 0.46680805746448645 10.480541952304925 -0.9036836258192823 -1.197334460076067 -0.0691387637791906
Ni 7.966546591618736 7.456948553937385 4.5549284734072435 -0.7691964185412689 -1.6999105661157818 -0.027314885764869082
Ni 7.2724224521325125 5.997237971463087 6.745128686567253 -0.1169132029499922 0.6040747742068501 0.10340668382312515
Ni 2.2402724823303717 5.425323291363527 2.61677276815858 0.2766406728520332 -0.22571277565391448 -0.17963475034892937
Ni 2.2138086334607534 5.309448215958934 11.432066443001133 0.919252683902133 -0.29373490933015867 -0.45015465501520535
Ni 1.3476649710702469 3.480586314336052 3.74596366432175 -1.1453693798626854 -0.2976969793017002 0.3055211033318093
Ni 3.5605995856885237 2.518408705315518 2.7255457646802883 0.07879505592203204 0.5373001397844618 -0.6752886753475145
Ni 1.2195446213674543 3.3085938229423606 8.112925825676106 -0.5940556994079511 0.1340030685527434 0.11834864984493812
Ni 3.5340546422871295 2.5377632668994266 7.092244819331549 0.005737930925041731 0.45027189731936 -0.2686921074289179
Ni 4.177593814952094 6.785557914859077 6.023374739054542 0.20428211658396433 0.3588393551389755 -0.38621389049718646
Ni 0.7132804699924568 7.28358646600703 11.313403517804145 -0.45998989593807227 1.44644581715958 -0.2938344110225004
P 0.2511840048241649 5.459238826653022 7.820605268032958 0.466593517297519 0.5613538382995558 0.41440192289562827
P 8.622646406205474 1.4685048339202467 7.998719495525396 -0.7143966970925696 0.5679931979929443 0.7193905507627353
P 1.8097956761519554 3.344996257206323 10.390680200593417 -0.1997999124428946 0.025572449152465634 0.00032935831496072306
P 4.064106522983132 6.169581872494475 3.723768090974617 -0.8103206993854045 -0.5474369711081475 0.36871239127831335
P 6.918219558341335 3.938797450381913 10.184964097635435 0.8470378523007799 0.4884764334135393 1.0669229655293238
P 6.46549581894566 7.714009209164263 10.15585836913062 -1.1565397946572082 0.14953535986038763 -0.21721013749954204
P 2.4347101380189966 8.294114436973214 5.863604995700222 0.17634039586837372 0.5415743416797834 0.068817632994346
P 6.933753666428233 3.891672516916437 1.695104580911294 -0.7586960332305772 0.24025699201667652 -0.21957478107697667
Ni 5.207242074410388 2.893669145857904 0.5847933927959656 0.353835474166481 -0.20379412120395227 -0.5314231121783944
Ni 1.505763266019624 0.9953813145311039 7.016638585255934 0.333902996908612 0.29021326933014535 -0.09228460576803461
Ni 6.86359788593833 0.92061215623349 9.251176783139378 -0.06673889608844635 -0.6137480356305559 -0.991973508605627
Ni 2.8193324917297633 1.7225469704643446 9.328628368338078 0.12157769830519706 -0.8312340524993039 -0.5380177346767766
Ni 6.257722618031623 1.839404190753782 2.5218993743833047 0.13902906101242507 0.4320139795504366 0.7604058168328324
Ni 4.261265350738023 6.936646038061583 10.329014116530123 -0.21258318025049197 0.49584598640473315 0.2784191049086947
Ni 8.126609176337803 7.064360915105494 0.30332148140376036 -0.10156037464300573 0.6413100044092246 0.3903083722815343
Ni 7.702025239468453 3.8805625660631042 8.081354823405295 -0.0065406293319951875 -0.8497148849123107 -0.2906909802975123
Ni 3.108767886142387 8.46908039453203 12.454818964107393 0.6014399076871642 -0.6757213920095588 -0.6468669296717118
Ni 0.10725112247537567 4.872186500621912 10.029954603296376 -0.3487099800144575 -0.12486793902069464 0.23758227339799085
Ni 8.670672390024018 2.0252638470811957 5.862140788876486 -0.2697611721233806 0.9982446863263194 -0.5345971390310018
Ni 3.7379353056759106 2.8024468081132623 11.455725322121648 -0.0766749242552357 0.1376118689499243 -0.07319930700180942
Ni 1.1255290275283 3.413331915983029 12.622462085446825 -0.7092496056739914 0.07361659704488613 -0.17396418232671332
Ni 3.017896958035441 8.383516653004659 8.048358359475932 0.7143560736626213 0.039839757704757194 0.6467118921510862
Ni 5.622653318685502 7.841787159732889 3.440521110386867 -0.7073284773918787 0.10838793908780042 0.9846646336490397
Ni 2.9347390209507607 8.153577613405139 3.7324857531405535 0.9174935351191811 -0.052877050504689584 -1.2002153811682879
Ni 3.4101151662225746 4.45572102743371 9.253207750635195 -0.12920796115694524 -0.810631545757604 0.5671100240570427
Ni 7.313780663338352 6.070141955529849 11.406231527277956 0.016637094336048763 -0.19421907592100746 -0.8969375653447004
Ni 0.5903763007835774 9.003889821092235 0.19826802073951844 -0.4305096270907683 0.17864821806594394 0.009663234121376907
Ni 4.460451541787319 0.2539340105017296 1.5117813813277676 -0.07531661045512834 -0.4002027485771108 0.12921541735611294
Ni 5.760496001697902 5.515446347677426 0.5179156334905247 1.7032062061479183 -0.2961743720095867 -0.24165978590147413
Ni 7.802906836997989 8.94360054196843 11.283018297797973 0.9539345515550345 -0.17524767702482721 0.6191211270170112
Ni 0.038870411181016654 4.520362379762835 5.76349649937362 0.12328953878998124 0.6570351284539653 0.20712215713592072
Ni 7.802942879012111 8.88364465147526 2.4685022294101198 0.6671868721759865 -0.30400158136348937 -0.20830949257580253
P 8.51281737866997 1.516242481625809 3.6432168925613633 0.8315225302740002 0.5067610906553403 -0.4439706376916805
P 1.7677796981883769 3.4021949336191035 1.5657191565127937 0.7239056650242693 -0.7441471888821249 -0.07783037801591758
P 4.710114573615504 1.1280429580133609 8.3590234012572 0.39396422386656665 -0.649942483273242 -0.7969195954881502
P 8.574061771168028 1.7014263501884217 12.385992232888267 -0.5340962881351834 0.5036215165850939 0.12642499909516938
P 6.297161591985426 7.75667394338205 1.3872760456414854 -0.26961744745666466 -0.15341078365539385 -0.25687068931395757
P 1.7663920806446514 3.221101833659421 5.935293462840695 0.9786204843374888 -1.1101406385673784 0.07009084327981477
P 6.914110768731343 3.8139749449713514 5.967998887506018 -0.4416355618006007 -0.48860601701286815 -0.17125603936693085
P 2.3629775194112232 8.467125115265873 10.295319338577132 0.6127177945938287 0.3374326073284253 0.2674170973712362
