# total energy = -340889.2884650468 ev
CRYSTAL
PRIMVEC
9.07129491167018 0.00000000000000 0.00000000000000
0.00000000000000 9.07129491167018 0.00000000000000
0.00000000000000 0.00000000000000 13.27675704377209
PRIMCOORD
 96 1
Ni 6.390554887795247 1.8136330564937755 11.176387733035257 0.35147648701600115 0.6439816377041166 -0.2873094654197891
Ni 4.523691472950313 0.6013089236576764 5.896300850654475 -0.5672375507738425 0.31705790032681525 -0.06075645325276633
Ni 2.7528477144017343 1.9922287100755085 4.316777958144175 0.04501975924379989 0.29552953933673615 0.9275869147994412
Ni 3.572919985366251 4.529723884044982 4.905973981749652 -0.4596849631031438 0.6696502461148145 -0.7649800664670761
Ni 3.6621724556827213 2.667423330524287 2.189589244244359 -0.03700125981469757 -0.2445288799191531 0.2893020703697856
Ni 5.147297639421068 4.270221351435644 2.8985417814566006 0.4046494714945547 0.8525315284254995 0.18909409598961627
Ni 5.1007074689214855 4.426592332563333 11.689573562588922 0.8374877467184996 0.9992258192926663 -0.44126223762158195
Ni 6.004008870402683 7.9558431043811035 12.124348026336255 -0.5420219707401633 0.10440761428381373 0.8579182466587096
Ni 1.9881012709054715 6.455115293450529 0.3311303841050059 0.08332508258190166 0.048502318475761634 0.9485457764392955
Ni 2.974141952979872 2.013881890952164 13.132438304873531 -0.6184858074258575 -0.3090198605136872 1.5250081882455155
Ni 8.211508479256539 9.149761579907302 6.481155352530767 0.5133040339801805 -0.6225054701082118 0.8105729246055267
Ni 8.647855905535923 2.3818952529065185 1.1819688587818247 0.14960195143226493 0.13108126692025815 -0.49497746775685075
Ni 6.740434731286076 0.8725524332291653 4.6524811819977865 1.5543920407242715 -0.03362591558456144 1.5270655849951764
Ni 0.6981803745431888 7.414731293541813 2.314735921268345 1.0449526319058198 -0.10138991050341249 0.023326590541082406
Ni 7.500092178355106 4.067677479372818 3.9956668192332474 0.06452183383246952 -0.4219321698344024 -0.16167122389197316
Ni 7.635762464568454 3.8055079860689953 12.537347753855547 -1.447671976257197 0.855885532499397 -0.17293291284872153
Ni 7.933173938477977 7.339711684890811 8.476027437934075 0.9700846789523357 1.424375724733418 1.785160119413906
Ni 6.816361469424998 1.065886219601138 0.19347257718362457 0.09160686297471965 -0.8030437061080169 0.08844877696171219
Ni 1.5493136663035818 6.704757328526174 9.19785849248632 1.4838270860215155 0.04095973024181333 0.4964527667507966
Ni -0.040513310060004956 4.805055826218528 1.3129701495208477 0.18983868746512467 0.6745451123132705 -0.20870518535232443
Ni 6.5347249773104075 2.0268991991038194 6.781581217728649 0.8904758688797567 -1.0775490777846024 1.4533116910414776
Ni 3.7959105560867994 4.694204602794676 0.6155272712513379 -0.9906342209689134 -0.49758482347271077 0.4731125493629594
Ni 6.224722546108552 5.972912471556778 4.458812664844771 -0.03883059971395248 0.19106793188653545 0.7478554909716475
Ni 5.62380368813068 3.0313183246034834 8.92187432421096 -0.2815933888716182 0.1407468150344802 0.0797813310947013
P 0.41839442658395526 5.54683375108065 12.325344335492689 -1.0415446346655353 -1.0150478739265874 0.35681563984072745
P 4.220900721177423 6.35435134993235 12.61363643666015 0.2993653681430586 -0.5803442633591296 0.5038562583037193
P 2.452977919579947 8.410378476893289 1.2548675986900697 -0.5789460974600222 1.0032637368074657 1.0544739411326938
P 6.673579288026356 7.873874883852633 5.612231437253282 -0.14345701487679166 -0.050088689126275024 -0.21652776672053675
P 4.810162965235518 0.7854616524824086 12.481731644951159 -0.2848265510969353 1.3730791313419708 -0.7020978251205586
P 4.1222957458404945 6.254567106261127 8.049644829079494 -0.8475243050188952 0.14689175158995346 0.3281756075065316
P 4.906463831673129 1.4938517694121394 3.8484542174156022 -1.4747410645598473 0.1753968010081818 -1.4480147043085965
P 0.2864197859043941 5.522803890945643 3.478124953878588 -0.5726003577476526 1.362276384299512 -0.8099345196905793
Ni 0.8717995157541915 0.13210345306684584 4.282059391253004 0.16033605002031742 -0.5277060683381234 0.18936457604218354
Ni 2.076537324682814 6.887607419406253 4.636403218953888 0.23258841972782524 -1.4511319097813395 -0.6099795697270591
Ni 6.07532739074297 5.670303145681472 9.081793088765904 -0.5568302393975894 1.2660145390512842 -0.37589939594505584
Ni 8.67415358939073 2.704089504426022 10.119583693867177 -0.009501511732532024 -2.0371698810911365 0.6424765139135
Ni 2.323294687986872 5.24143046638255 6.995244683054402 0.667797766287108 0.8675115467740995 -0.16865793962245146
Ni 0.6349089998902413 8.942963270546128 9.04026288654994 0.2133293143878971 1.1298088064202672 -0.19842102981749699
Ni 1.5784415941607 1.3044794175139143 11.338270432931548 -0.7631566401050921 -0.9291084936502901 -0.7552764660260669
Ni 4.4275357472307695 7.084182379438564 1.6162063018723067 -0.397456039069909 0.14631171071676738 -0.7932863696109371
Ni 5.620093528525087 7.931649960938271 7.663038941140727 0.3653995248549965 0.4915062213787987 0.6323975324109431
Ni 5.4075440182105 3.1575091076680653 5.262640968069101 -0.10447034920094911 -0.07726627798233145 -2.0094310204149717
Ni 1.116404260783415 7.399110523759827 6.942363569556092 -1.3365445267510465 0.8744941487395198 -1.0803317827360621
Ni 5.10395499248824 4.821601868078192 6.79965123712802 0.5482011029676817 0.7201559681738501 0.4938618660951688
Ni 0.7812171936084299 7.443832007514294 11.55566401471163 0.7522747030852657 1.303200661183278 -1.4446558151386926
Ni 4.620718042978259 0.27521401534011564 10.09072064782053 0.620308719567209 -1.0470532231885903 0.3577263245804549
Ni 8.65038679680722 7.236416850101335 4.628928471973425 -1.0672602942640845 0.11829645645076402 0.7292221921411763
Ni 7.306882668722978 6.007356178213108 6.855333566485027 0.036833623888581725 0.36859154942973293 -1.4475999853686812
Ni 2.28295463965906 5.334465666663648 2.6377865030244454 0.8932506034114165 -0.546348366029659 -0.43500545807859275
Ni 2.465142526012957 5.509305804165391 11.456991911792594 0.8171827166125605 -1.0389457635901076 -0.30253091035523383
Ni 0.6900261875762739 3.371764021419942 3.3502305816356914 1.4927752963537388 0.47101015830797593 0.4591085217743835
Ni 1.5019161505597503 1.4020321226448549 2.1273882823871575 0.738732702734773 -1.5059102910738 0.24338679589490986
Ni 1.3319019419337428 3.438501537846232 8.24999072639309 0.006967946677400904 -0.48397854554318587 0.38177848043365215
Ni 3.5742897508930103 3.107816554319795 7.277614135795233 0.3665647488076913 -1.0044145625824572 -0.5230593135947313
Ni 4.5404189407075615 7.2740082960807495 5.557278440004564 -1.2166300750808854 -0.29600262231841273 0.2484798941471011
Ni 0.5432399366179514 0.08436122811760464 0.2054376151292923 0.3949335297583714 0.2669303875428048 -0.683471725378939
P 0.2917419146100221 5.623195911373775 7.8003465960797715 0.13075576526003935 -0.10741169121746016 0.5681068407526731
P 9.069435263751966 1.7024824803389111 7.893975059045968 -1.199131918296122 -0.7214965413621446 1.0303523654941416
P 2.158922824775728 3.288380678890315 10.490509848607243 -0.25568386809470806 0.05209954890871672 -0.21829951390897886
P 4.242553902054078 6.30181948128689 3.622377592177149 -0.8410386972945517 -0.3667357271679168 -0.24943068809614458
P 6.988298792565397 4.195147315015367 10.244345747988284 -0.2652933661600141 -0.9736788240614974 2.2144279036777736
P 6.351430392981248 7.9933710512963625 9.885076207167993 0.8556111957920878 -0.9747316908060438 0.09379384332370944
P 2.4781598341646123 8.634403175230066 5.6589386274568065 1.2680950757293965 -0.37414230404463306 -0.3496348058215721
P 6.97757652201818 3.8990693214530867 1.7292972280018326 0.059801031318032494 1.1976535339783825 -1.3539784059567779
Ni 5.343337393055506 2.9402153101316553 0.357702021065165 0.3642098754222695 0.19007214363216943 0.02330293639199858
Ni 1.8788193814957226 1.2211958592279588 6.7090507723925 0.1770741887106047 0.8930762826170813 1.1362131672847142
Ni 6.940456783372484 0.9717806065242943 8.929030668741161 0.7085764908663668 -0.9341663677891717 -0.27625500737784037
Ni 2.915024324252111 1.4951036081054694 9.107722478048615 -1.3436708533831827 0.5777070828465986 -0.27343553565117423
Ni 6.699287337714015 1.9956213743603302 2.5439058580606058 -1.398289054948695 -0.4197166502403223 0.18377191244575444
Ni 4.352307498797546 6.8593866210370535 10.544825133825954 -0.09807755830072787 0.20493774789009223 -1.1816039367146876
Ni 8.331059074469545 7.040041458556366 0.05309428892797049 -0.9471584091734656 0.8690372393900065 1.6626671083832911
Ni 7.991103227576563 4.068666250514651 8.337299218216948 0.16145396567484452 -0.41778240933208693 -0.1297599770056733
Ni 3.0612354551150918 8.329952376494282 12.420113967354691 0.7604477258143614 0.4719483538515291 -0.32893691115258833
Ni 0.5359801793261258 4.853560039937622 10.203533085197265 -0.8597694409348354 0.13955150917479836 0.009799759699241187
Ni 9.07292771228046 2.1775371218678514 5.657544369433873 -0.8416449634199826 1.6586471885906207 -0.0983611509794177
Ni 4.079261522933559 2.397860731893914 11.167306459731687 -0.43639205401347425 0.561228368465285 -1.134323663571485
Ni 0.8819865799035356 3.39645608608113 12.46906539591133 1.4316827999177923 0.13875703829796104 -0.14336934025899178
Ni 3.0797227540789063 8.320391231691602 7.8752410208614405 1.1985187101921553 0.026360235161083632 0.30554835702531896
Ni 5.858713940322501 8.455462812442924 3.136314934312297 -0.6753308414393594 -1.0590574467383183 0.4299835793839692
Ni 3.1722408905518895 8.895275473366164 3.3380024761385267 0.8019263046741222 -0.5898642870344227 -0.1363898236173651
Ni 3.7686241010901593 4.465653328313177 9.465411799300949 -0.6645702604887458 0.47761995031500964 -0.27803112544165665
Ni 7.375325588586558 6.071871227393994 11.424092139524705 0.053377901400508077 -0.3819944530992002 -1.2038696900914236
Ni 8.189274735507615 9.097964486147056 2.176618199696588 0.10445955056767171 0.038242588420966395 0.5628633329655467
Ni 4.70689534433068 0.6615377860081395 1.3626862882358033 -0.8142089786962171 -0.5677175757340546 0.4035392691495115
Ni 6.157486108463904 5.5701016224458035 0.559503861206873 0.3061253125747115 0.3646994134641784 -0.5286414356681992
Ni 8.066358689894424 8.933238842435625 10.919933155505332 0.2866952288745579 0.35152996596175584 0.5581062778965357
Ni 0.27577552849313824 4.879903080266825 5.484349764823218 0.009155184136706813 -0.4027733375177644 1.702541575980726
Ni 7.45842772097493 6.523349573531887 2.526407330238625 0.09571857115024805 -0.2961656302588383 -0.8084733617640205
P 8.611670510262785 1.6298214083565012 3.626359890629119 -0.9340717511928365 -0.03526807917367474 -1.1693585436884313
P 1.7951366862350824 3.4109520152980957 1.3076534635921473 0.2951646997981497 0.29523000581844644 -0.4334311716129374
P 4.796782805288695 1.0880111078115122 8.00415863516671 0.31216457679025594 0.7908692755290121 0.13419281596604632
P 8.346761485905443 1.793775992003202 12.2166212378475 2.1494702678594657 -1.2046286797446353 -0.6684719095359971
P 6.5571764321364325 8.20080435129908 1.0730661494980265 -0.2972778894864106 -1.915275165766153 0.6025261987728074
P 1.9039468683111127 3.3817515170819434 5.76059881490905 0.3297676345839998 0.0022381453018993714 0.35395040247779036
P 7.256010847040413 3.9849109848949773 6.395918744457319 -1.1707271419011835 -0.8897883558944288 -3.045132308925852
P 2.5079499665479124 8.48302140628594 10.230657164015568 -0.720669674585475 0.5582973108614192 -0.21339076375345187
