# total energy = -340896.30516405444 ev
CRYSTAL
PRIMVEC
9.02450934003217 0.00000000000000 0.00000000000000

0.00000000000000 9.02450934003217 0.00000000000000

0.00000000000000 0.00000000000000 13.20828163052669

PRIMCOORD
 96 1
Ni 6.503647968637685 1.8903459064816501 11.349836516856818 -0.2541399206463558 0.4346763568739482 0.33128587100073914
Ni 4.939610268118585 0.5284644330803638 6.019238482430692 -1.865877846279948 -1.7784166300424857 -0.7053636403560238
Ni 2.5377642010707695 1.5300513986314135 4.828948125721461 0.8661956561761535 -0.21886232839098435 1.1413337763407312
Ni 3.347407074186986 4.466202561155161 4.856672320630958 -0.5756368305811312 0.36920321487180285 -0.15162978049557113
Ni 5.0251174933936325 4.543298943796294 2.5435317649413007 -0.08316233175179226 -0.7921111183559132 -0.3941226038213019
Ni 7.045966828339922 6.004962611226198 2.643729988846981 0.7262787932421362 -0.2636026087211525 -0.7520816132378532
Ni 5.021182807354591 4.682971273673012 11.412444049874829 -0.49109253088014776 -0.0749276025468258 -0.1305233375342591
Ni 5.547013888631761 7.96414747437255 12.394585002864119 -0.10850492428163894 -0.77228585609987 0.7140948495814347
Ni 1.9008414107555163 6.647164739460806 0.5376143830229887 0.016919915683790213 -0.7837925711878888 -2.0402508340093055
Ni 2.6567974782610464 1.5811391455741093 0.2591423933153664 -0.1017218399215345 0.17925834084611708 0.8577860919562196
Ni 0.5111166189224511 -0.09576628740620036 4.96944439329397 0.8213036807594695 0.8543027613933094 -0.48631105033110444
Ni 8.718614497849543 2.3190732680797166 1.3374440047656875 -0.09596282595057021 0.40189402023660464 0.4532325226095808
Ni 7.082164134997253 0.6526128021213953 4.930651637772353 0.003921960762225504 0.08239794278194196 -1.216545228676563
Ni 0.8601268803891607 7.230644385915497 2.4379982511588274 -0.562202045232464 0.13736941392181504 1.1651149379207288
Ni 7.490108051760656 3.7515606970595696 3.7055041140314735 0.9298024343935212 -0.26391988285125517 -0.36119037186965536
Ni 7.822119747577965 3.930119637354249 12.598006466180724 -0.7274370752162956 -0.6535517978910551 -0.6460282358205003
Ni 7.933491216403227 8.796838944148659 7.1816990574720405 -0.24733858145380627 -0.10714892447437675 -1.071937902245412
Ni 6.892126018918947 0.7611415505285426 0.5877635810022435 -0.4834684386759867 -0.8092549771250513 -1.1328110835817007
Ni 1.897836249170652 6.409531361524917 9.151186300394015 -0.24350480953001288 0.6122801928357778 -0.40169193152812754
Ni 0.13693880602069627 4.877187737540484 1.222312925381102 -0.04618935407186884 -0.07843895813419394 1.2423837870062218
Ni 6.445241344682 1.9118964346037413 6.93066247837747 0.9202816393872796 1.5173938662333673 0.7275373482395857
Ni 3.314178831077464 4.353224729680932 0.20616310923096606 0.2679950813618933 -0.5707159962407461 0.49464862366252227
Ni 5.85963191404104 5.473391942057213 4.739249918344279 0.22152059194943785 0.617111295675834 0.7377857654404714
Ni 5.3240633872681675 3.00175934487199 9.198484655896815 0.4747092044261179 -0.9731535476856464 0.3441748111482653
P 0.3070453909388471 5.651689171583241 12.36395491597166 -0.1489118673437758 -0.3725551620631713 -0.00841599197783712
P 3.925435917046307 6.232091460378956 12.559689302297313 0.18778000516388307 0.5098942369676831 -0.3515037407095108
P 2.3934352244139 8.616032901047278 1.437602520830607 0.26564020797647153 -0.9261964622098179 -0.7068417675634471
P 6.330828616234818 7.770156623236675 5.860435095365523 0.39068272490181744 -0.34239020844401674 0.0035244682134907045
P 4.7510611960688145 0.9864330095951804 12.459332247028588 -0.41435564303872513 1.311180079844329 1.406908678296906
P 4.141780477628757 6.125809814778509 7.967222124678746 -0.6162281217399322 0.17564542668387814 0.8986126390542781
P 4.767955077410756 1.072003406435075 3.8052402830628447 -0.8400539647837789 -0.34204748039261734 0.5818028501825271
P 0.019683357155399046 5.442943247800959 3.574583753238844 0.30718023620178714 0.38341884425055256 -0.40714549844353104
Ni 1.6334452012674259 1.026546953273026 2.7297822944815655 -0.8730103651051415 0.824428085321064 -0.6661003239800269
Ni 1.6838019629597494 6.425540840959 4.613177523928193 0.6237642822159774 0.11124957690631163 0.5362734982921603
Ni 5.960182996258937 5.5720839753667555 9.23108298825972 -0.0647419202630756 0.7434355075270809 -0.4923017206969006
Ni 8.724588722982217 2.5677706943730945 10.090756838283836 -0.5138377949964634 -1.2039293396847652 0.7433432049235909
Ni 2.234757278027498 5.382785869048086 6.935338076627075 0.6581021362658989 -0.19262293507848116 -0.2970403195543078
Ni 0.4126871988324865 -0.026060075401240577 9.101456742095529 0.9579179616828147 0.6751835172282178 0.3625990792917239
Ni 1.4746228627328022 1.0013144253712811 11.244408589832734 -1.0014153707448172 1.1801800597839673 0.6347817163724034
Ni 4.107433195370516 6.948682618475541 1.4949532772024197 0.40516189235459904 -0.06367979754714839 -0.15858615720874622
Ni 5.641211716327902 7.887493292685346 8.013556662592169 -0.6622922630878465 -0.03397378584228342 -0.11836587623611872
Ni 5.09766552336578 3.0068311190782775 4.939210482358196 1.0902040475444514 -1.2981782682680223 -0.768202944279748
Ni 0.6752381492968118 7.282824098479119 6.770908810486817 0.04416589588393684 0.04758237776465354 0.4865951572304265
Ni 5.0271119099409445 4.329751981085639 7.0816993727701645 1.1162850609022195 1.2173576972755293 -0.2673268516502751
Ni 8.088442040463656 7.107098854093291 9.031228913455116 -0.23639750906127027 -0.12249378236156325 0.6286249527423883
Ni 4.660789029902451 0.2627422700607191 10.442110764806369 -0.4337021658861369 1.067229183915833 -1.0523815773800391
Ni 8.087665932666964 7.206982122625663 4.681371228180531 -0.41780400659864175 -1.16558107892387 0.007677314039599681
Ni 7.240715738253962 6.04319945697716 6.943118106063446 -0.17712998164920463 -0.3411257399092964 -0.3701722636532915
Ni 2.477462430169675 5.1798968517780475 2.446807977102205 -0.4063150321224357 -0.0392741150092743 0.5589004916630569
Ni 2.289644343370278 5.336878190422845 11.248806233197012 0.04181565048420541 -0.1584213494961078 0.8838483362609101
Ni 1.153160818244943 3.3334281093372713 3.703073813686717 -0.783346999010038 0.4109113932438665 0.5511735553324443
Ni 3.553220032458515 2.676109928085701 2.847626141350866 -0.417706561788829 0.10235535974047534 0.22693173566268016
Ni 1.2396426905204874 3.554844444126009 8.295527454541388 -0.7920869499861971 -0.18014614276770913 -0.6420494536784104
Ni 3.773842210432033 2.45945853418828 6.890773244980295 -1.0130706955955586 0.0704328000002658 0.09054833980321826
Ni 4.1741694413767405 6.9388549278872 5.931416470529466 -0.44785428901680285 0.4853294031441255 -0.5650382291296785
Ni 0.754263972018557 7.4743422340766985 11.284693096735666 0.15602559557042162 -0.44405831230948045 -0.12101077005813354
P 0.18724503046114213 5.506872871426124 7.9705774372230485 -0.25342643951909904 0.26959482174884536 -0.050733778909441654
P 8.384888145272102 1.7433907976289988 8.011390780368842 1.2448651586671786 -0.07823918341856204 0.13846316120662605
P 1.766592810946376 3.3255767862777157 10.358422880598916 0.953943293305783 -0.041059231934155095 0.48578037463861506
P 4.130481792030407 6.163053964510448 3.5699875706707616 -1.330255351308225 0.6661391476377625 1.3597163368818197
P 6.821770944697916 3.919254128200565 10.443034874554987 1.2659780293863938 0.4705072505296284 0.3812884281711111
P 6.229348009562743 7.705514063379665 10.187706238854528 0.9937241727481466 -0.6236002458342873 0.5367247268969659
P 2.4247141735224296 8.460351091736477 5.972520402873556 -0.2532076386400736 0.4863928114116334 -0.9634018676155216
P 6.787008535013538 3.8607121366059225 1.494530027717945 0.5576938729494653 -0.41137856268827216 -0.579701487568808
Ni 4.921128073146205 2.5384320147562947 0.9188710209913131 0.7821748330788078 1.4555549785496997 -1.7269143483981355
Ni 1.5642542887414324 1.2576646355204102 7.169640508193675 -0.5956382134037225 -0.4457053609946001 -0.049870145357565725
Ni 6.933313879199192 0.6015349821388897 9.24908598179019 -0.4428763761862373 0.4903749359878329 0.3988891719720098
Ni 2.8625111669306724 1.758353433988474 9.23741007170461 0.10311177829052565 -0.6324504971360656 -0.18988959530771812
Ni 6.398467313167428 1.8159839501474664 2.650677958529225 1.0868945235552443 0.22338592729295076 0.56155412723582
Ni 4.062175281412272 7.0175035261217165 10.28238326799258 0.0851410527447179 -1.1872230826736778 0.02806179123322264
Ni 8.142092748037287 7.068473954443982 0.3946327655992136 -0.5839574346316846 0.020797139251009344 0.2051524350040596
Ni 7.5122451729848985 3.8578784406970716 8.190745682380594 0.6731749714386213 0.009072394614913408 -0.28594369542051395
Ni 2.9461503187881015 8.444125024080062 12.407675053551344 1.102555884241585 -0.6702981641114585 -0.3704658836343103
Ni 9.054290144427979 4.958272953276241 10.166269419549161 -0.1375650748723889 0.025314053284756406 0.19226246641526887
Ni 8.796739674546755 2.29926447024555 5.793284624384087 -0.08260903035148354 -0.22127839403164473 -0.15451378691158552
Ni 3.614442303304522 2.729715513113013 11.452584164629538 0.1851150567372102 -0.28738042786704054 -0.04586410952196617
Ni 1.1640985234727381 3.3255226392221324 12.493739993498897 -0.29669193507595354 -0.1948651941454386 -0.00022445730598025858
Ni 3.111741039270618 8.373165307738352 8.057962662875903 0.5881300779521355 -0.011279686678877347 0.020937778593931682
Ni 5.646888132654868 7.867206195860195 3.6515348412808284 -0.5971682768950037 0.5562360574570162 0.7120243402056512
Ni 3.1007852850242954 8.287937842250484 3.671862548397667 0.5495874417922471 -0.2351708357430208 0.2353410427722979
Ni 3.5850945991784586 4.41531335341627 9.255795704427866 -1.2750085150197783 0.49647102158324175 0.04588724945041774
Ni 7.186198677790999 6.0777994254947885 11.405324614516571 0.5732817000853933 0.3255893348365941 -0.6765222906442995
Ni 0.42287767469323406 -0.015939990712751057 0.43538203472923465 0.705099845171676 0.5779932466284498 -0.19568691871578556
Ni 4.521152798062788 0.37252001054998424 1.5702402457361488 -0.07248608298486871 -0.9772356881748203 0.48086391117360416
Ni 6.135177255394392 5.558953314387844 0.19474981236496583 -1.244680039239566 0.43591562859768795 1.6298860572975284
Ni 7.8246827082089006 8.630571385471352 11.575381564633771 -0.5502795827632652 0.7185706259646012 -0.23009573521295856
Ni -0.0023283233900751703 4.693999223993446 5.69251875884571 0.45980220540729844 0.803309558174894 0.4401854596176354
Ni 7.928951888243507 8.496413030754852 2.600472808592534 -0.04890572456176738 1.2293423804412311 0.056056476673935714
P 8.698480817681878 1.4595158342251053 3.516942407668735 -1.3220316778468524 0.21257752382353712 0.6790206315861209
P 1.7580105026364476 3.2528663151388177 1.6030497516158284 0.8160326621685173 -0.3584968841978923 -1.1635722760239575
P 4.7875202134947985 1.1672300281872967 8.281209168143352 0.25969787435010755 -1.5303859076176611 -0.07473142737561969
P 8.468572419675851 1.605884349975606 12.354352838114915 0.49239633729323584 0.054499416599460976 -0.00028205001679306265
P 6.1776014734437865 7.746358992307884 1.5250409910881197 1.0118555922415349 0.0786202209070646 -1.6180700384992066
P 1.8755908338352436 3.335675212143972 6.1533688611684765 -0.21085488470547556 -0.7931025357349052 -1.2514027026753802
P 6.9572468777669405 3.8886971398331442 5.8383376819820425 -0.5524930454748163 -0.08603039732820668 1.0994651611314032
P 2.359818927406032 8.440921323291391 10.142757865564034 0.012724903765836149 0.024076581333229506 -0.38822655005184104
