# total energy = -381170.9922474189 ev
CRYSTAL
PRIMVEC
9.21283120088980 0.00000000000000 0.00000000000000

0.00000000000000 9.21283120088980 0.00000000000000

0.00000000000000 0.00000000000000 13.48390970974948

PRIMCOORD
 96 1
Ni 6.712201684828868 5.08246104754775 1.3678889407586818 -0.534761689633324 1.7059259190719265 -0.7767932570519201
Ni 8.133990294881402 8.901363861954668 5.21155768816205 0.42196816527866043 0.10084457952290374 -0.3732334190771185
Ni 2.3724790935618425 5.503312392392202 5.140956077074706 1.0212881984093443 -0.7864948006104003 2.724195642369921
Ni 4.225815145553122 1.1446942842083845 4.380369602791592 -0.8857139287147391 -0.027007638937095423 0.13613939816945586
Ni 8.361390608902452 7.277952439750017 0.4037744408186282 -0.20407205745568727 0.0028888915120208313 0.5344544428055505
Ni 7.172272052352396 2.6120311320164618 0.7993651236279017 -1.540892720686256 -0.8368830232549651 -0.20666990008985053
Ni 2.6406093345888113 6.858354039957091 7.466633987829478 0.15006629266319316 -0.12616686033777624 -0.7803259527955271
Ni 7.139197988124564 1.3465842684670768 6.8178286378051745 -0.18016028383509616 3.0632061357084277 -1.1467467198261863
Ni 5.607094936550008 3.901274738713615 8.494997851702253 0.610165203375304 -0.26323211275561115 0.3673396793005028
Ni 5.829511108858731 8.013873400897428 4.334133166540835 0.05166708935698844 -0.4395172299060172 1.1121746382782716
Ni 0.9913927720214426 1.4129719305355326 10.899502589294398 0.9389141668868023 0.4971191966902019 1.4615266227521022
Ni 7.76806585001643 0.41826438182629777 13.913641560954332 0.16884434460164469 -0.580933045983064 -0.3709394808366192
Ni 0.7467635422587573 0.616541093664334 3.5027156816719716 -0.4959105210940814 -1.8464613894265491 -1.83423013746768
Ni 5.97599512591236 4.574963024691387 4.7739380691390245 0.5894703940301138 0.5460897130516337 -0.6424320338288098
Ni 0.5666895424266681 1.3305907933975738 6.738759513505629 -1.490383913303427 -1.2171383821758717 1.5855556108112694
Ni 6.732018484871784 7.817391348589079 2.2779720279178473 0.6193368425722431 0.425862358126744 -2.553242736065706
Ni 3.8926699543156222 3.39465193482707 4.47834345683919 -0.3358678339444668 0.6659200896484209 -0.1310324159601937
Ni 8.96369787826818 2.2461988154641017 4.784252755019103 -0.49300980250751864 -0.8644588759907048 -0.7895076192947951
Ni 5.603345314226686 3.248186343435964 2.4317019367584365 0.15180410128990632 -3.3366884654371374 1.1895769276178352
Ni 4.421670725335706 4.651318970184499 6.651464252172927 -0.8713520035661123 1.8071325099199393 -1.1596102060524158
Ni 0.40413466252094243 5.94876199670415 6.989964862222583 0.740384379405583 -1.1320148129326502 -1.2843668163062267
Ni 1.651123618638444 4.037633854211147 1.1298220107033736 -2.008753534731973 -0.11035740410934544 1.1384058040606588
Ni 6.659191053751726 0.7365400634081654 8.958722949387113 -0.6669058506004579 0.39379273128570885 1.5141434776168698
Ni 3.813458031131528 0.865913088960303 11.27962769226544 -0.6048039390633907 -2.239033103820963 -0.3480013839832071
P 8.572170975328236 4.090414164506759 0.6500324991482997 0.7929760374593697 1.0888364777729633 0.2331214094131598
Ni 9.063058263420594 8.221171317106464 11.959135723750931 0.3333224418147937 1.3848321581128407 -0.7516023596085895
P 5.32358848014804 7.029602147440919 0.266940864511143 -0.3961275500664726 1.0704268649175244 1.2952358978102465
Ni 2.8602063805315963 7.113429699086891 9.812039334163929 -1.0619285976385258 -0.14450499652533175 -0.06445575648122448
P 5.980951629130904 7.998644590822606 8.173487545064567 -0.40498011536109607 -0.179844038146258 0.04106308858889702
P 9.761086849590546 4.759044606122113 4.283676332289305 -1.743700823827855 0.13788414877470448 -0.03357835017607765
P 6.396275275218615 2.5936331079877766 10.158319258930572 -1.1102861630063072 1.380131410203062 -0.6024979166380333
Ni 2.131443789274165 0.1610845120364327 9.316626703356055 -0.01788716469306597 -1.3912951401293652 0.21431276134708896
Ni 6.605738206774042 3.4114285005537774 12.163970128880715 0.3393676195676091 -0.05226641350388418 -0.31843498317999996
Ni 2.3911350768658424 1.962581805086998 13.073082183624948 -0.9033043881029927 -1.1251255420119848 -0.639953233271014
Ni 5.260351606370926 5.360955723743607 12.294655982887578 -1.5455366472161705 0.17529292844046584 1.8620949821987478
Ni 2.8199094565949565 -0.0354279426150772 6.940195305183143 -1.3891001893605754 -0.6698376795352722 -0.23808980916202865
Ni 7.64992971475362 1.2401300032435125 11.08076688692544 0.9885745102264071 -1.1032156293127708 1.4369124237478479
Ni 0.3795078432765365 6.126560427214715 10.67646547215867 -0.29936562525337473 -0.21987508592621488 -0.6230304893737464
Ni 6.236552419642593 5.488479734061615 10.359876659980733 1.2874212868618344 0.23363948670015894 -1.3328706774438852
Ni 4.46506316057612 7.110923808983836 2.5917020985554218 -0.6384239411106811 -0.38265882615607644 -0.5269828170188537
Ni 7.956523526296243 8.714380238676652 7.5445984936608 0.7332310561902533 -2.7259115966197633 -0.02852201869909281
Ni 6.424079599965021 1.4447838368805752 4.577571177221443 0.3267666429741469 0.8404830819013976 0.3071067026513743
Ni 1.722946851151028 7.478064347575291 2.2424685400864277 -0.5548474046396057 2.0556370866573888 0.5500242722193496
Ni 7.707565187123903 3.7803010514223447 3.1468074269542132 1.7765178703578761 0.5696263627209932 1.0081434334972703
Ni 1.0160002443202 0.07132666090760349 0.6220614221560657 -0.7808306603460875 0.3261673188272512 -0.3893228684398134
Ni 2.951312068873944 6.096517384471829 0.8912704857237247 2.5375932024539067 -1.0724089283445595 -1.277221463510697
Ni 8.324907797107965 4.049582896356967 5.831642958012581 -0.5992976645331807 0.5084778162361309 0.9675256599759078
Ni 2.0179048568107114 1.2428846397906215 5.119746296945092 1.6833791441196622 0.8611364964856912 -0.25965776514079153
Ni 3.8583982220238298 4.787650447188247 10.238871649063176 0.12223641493511851 0.7049190966194375 1.0294956739208012
Ni 2.7117047534317575 4.485497220313539 8.111151686184801 -0.6486391910807862 0.14246714015969658 0.6927744908371036
Ni 3.655669870120365 3.536308428299811 0.6037214389643263 2.6570582252914754 0.9755151059392877 1.0138073166512669
Ni 9.05250035879522 1.048890051922807 9.08752109426855 -0.5518363857274238 -0.7604397553945612 -1.174434672659758
Ni 5.193991582796254 0.46374168078112954 2.332015417379375 1.0862754019140064 0.26475317738582793 -0.48675739383990363
Ni 8.054981053985056 3.25778611361017 8.493595658784294 -0.9438612264794325 -1.7148599883367628 -0.7995236087699005
Ni 7.746517037696402 5.6056577348732555 8.36513470352702 -0.611008782322522 0.7650775112768888 0.5251485920235923
Ni 3.8277194939239187 2.0076233371231735 6.924702086851124 -0.4228904199826136 2.052516795860852 -0.6322769476726788
P 4.512122302658506 6.534172933536772 5.426626627539939 0.7078884636604067 -0.30232213677853736 0.08983331601406463
Ni 0.7180784708437776 4.557274388669817 12.595387669898678 1.1229352192288855 0.36699875102131635 -1.5450103423990553
P 4.460751555545863 4.80394794568937 2.29145592775179 -2.4481185553308418 3.186495674498409 0.7370900249250274
Ni 9.117570585993318 5.718957133723917 2.0333335853239007 0.9517727680170254 -0.5729675112790843 0.30110986163799114
P 3.0694389913054927 4.7044862193930825 12.363450957764595 -1.484529768515495 0.9250194111825811 -0.6549373653846721
P 5.6058419914984805 2.975071960696668 6.22312103294684 1.4540953632850377 -1.012500167804069 -0.38739556951011345
P 0.46856828307889026 4.504107139461232 8.717522735419859 0.411132251005421 1.2670764046568952 -0.20464927011539596
Ni 7.7318409974972555 5.6767992178725075 12.430033931855789 0.8570412433703949 -1.8401863550511148 -0.43768506179328487
Ni 4.29908479257372 0.5073404834417956 8.55552707437169 1.0388406054708108 -1.2635658204004754 0.9950421202286218
Ni 2.4460711896765837 1.739216711158368 2.0964921500352935 1.6918257322251187 -0.32676175787814044 -1.6911811566625843
Ni 5.145274131086847 8.003315496272052 10.281480993646387 0.5048232502026789 0.5738427147951859 -1.646544491789816
Ni 1.6577384314840102 3.834269816950657 10.2695614325606 1.0274035672784627 -0.16202603612823063 1.5852653332643603
Ni 1.4918245533004384 6.803639035096621 12.89588995741137 -0.8366058583341786 0.7111884745679172 -0.706413421776777
Ni 3.65869167877405 7.538214922879891 11.921286649080402 0.31548952739843084 -0.5222373319140684 1.272630501705905
Ni 4.6450358192643355 6.2561112604101945 8.58374874037423 1.1990511856568575 -0.04198765728569543 -0.9017861516862533
Ni 0.23867958333418013 2.148809976201592 1.6183655545228726 0.4048333053705867 0.9079028061069525 0.5912177157385238
Ni 1.8965073792814244 2.254149488842547 8.480839572619988 -0.6530031244764366 0.4357695899381269 -0.6699844895257816
Ni 2.3551773964532443 5.38792168084524 2.9678352817409683 0.6896220612510511 -0.3300923649132702 -0.20991488938970945
Ni 5.50538527942598 9.385111205819566 13.057723472629343 -0.2943545451920286 0.21561116844353834 0.22378084873852427
Ni 7.622374136451268 6.360953280163042 3.655892820636887 -1.3510596896480862 -1.0543944940450098 0.272557246811279
Ni 8.582913136578835 3.719275257147928 10.85102835633029 -0.6320717736404082 -0.21013369026873488 -0.5862372318047968
Ni 1.7089525604652127 3.1789519165077866 3.53228518488803 -0.8514776332396884 -0.11558702793940093 0.9739287352887743
Ni 7.43544579016082 6.151370581801219 5.914663465640069 -0.6614723382897124 1.586198386601591 0.7298243445015495
Ni 6.525089081913196 7.523382264549303 12.012585806879237 0.03935253365569352 0.4462548057401669 1.100873868553472
Ni 4.287955692410149 2.9313478635308488 11.836890665745612 0.7597558419536593 1.041337917971368 0.7075017697449493
Ni 3.9446579611227683 2.499514823823005 9.621713295704339 0.33909559685314505 0.4311333767176962 -0.9842730546375756
Ni 7.726423852715651 7.799463178954716 10.138969549432602 -0.16993063568728797 0.14263349053423177 -1.9163321462757577
Ni 7.687739174249726 1.4478701353530887 2.7565426818970598 -0.5422212312351631 -2.139838658306973 0.5025215986526959
Ni 9.17191707760334 2.217362653616438 12.888918607995995 -0.6780898922417354 0.08094861192992511 -1.3290356199685112
Ni 1.599808148513368 3.5209506385873333 6.111797786401713 -0.10493494754219349 -0.6378145896614563 0.3945036413098044
Ni 2.765286580047097 7.659925636672059 4.809966688352334 0.44707730164146237 2.4775013793683334 -1.0033372703578785
Ni 0.36751457954066147 6.969304166836139 4.535568958218349 0.7113617669209877 0.3044795494411724 -0.073312435540906
P 1.0134390772295767 8.057044728187572 6.313233578079226 -0.6248793696570271 0.572331420356982 0.4941554860761877
Ni 0.41217285779636953 7.562343327953064 8.628826202452325 1.2288613270397546 0.4735336960607781 0.69597448583164
P 4.970368529592309 1.915154149754163 0.7522903197323719 0.4971001705268084 -0.7531416790712514 -1.2371454214254178
Ni 5.103466302823364 0.05131362755882382 6.131389793361854 0.5455130146125573 -0.9274480752287317 2.2269406914328034
P 3.211685105978953 9.249774714592034 2.91172913936005 -1.3564374090202318 -3.1362884575163985 0.401595000938947
P 2.0082498096489374 9.005100341956167 12.059482803131425 -0.2519542258489467 0.03513438180928788 -0.018737428508503216
P 8.827541445058396 8.489375260783522 2.13651176775097 -0.18157387635317115 -0.005777011693093277 0.7822218842666593
Ni 3.2647510140436635 8.791427146514355 0.5084211485487383 0.9856545083661348 -0.22429301248825242 0.7614111181688952
