# total energy = -340894.8468326584 ev
CRYSTAL
PRIMVEC
9.02374586960494 0.00000000000000 0.00000000000000
0.00000000000000 9.02374586960494 0.00000000000000
0.00000000000000 0.00000000000000 13.20716421438216
PRIMCOORD
 96 1
Ni 6.435491764396187 1.8967191480075147 11.418266957546736 -0.5972091574352683 0.18024204491562507 -0.39232463138061463
Ni 4.444095476911933 0.21040306808266737 6.070474935780886 0.6810127223154853 -0.4557277782276087 -0.7843402161612426
Ni 2.802658093658227 1.6993788541439219 4.8038812401674695 -0.3819890537825615 -1.366149236991357 0.7574107387602503
Ni 3.4741059845584097 4.039254151570297 4.464800461331431 0.34754218495860145 0.5904168171037832 1.1228768551871242
Ni 4.909820014229319 4.408713370174581 2.6646642678842904 0.051556017700420884 0.6027120895313685 -0.3679145779673664
Ni 7.143323397802109 5.8887430147873765 2.5784874968203497 0.4109368471651633 0.7448704402013945 -0.4017996607505854
Ni 5.0787174617689805 4.867706193228752 11.257892437784024 -0.5855610316733787 -0.021291305278608494 -0.07720868527151864
Ni 5.664385626414313 7.647931255173371 12.573827974672586 -0.050360968951055206 1.7375134640702206 -0.8615666420445742
Ni 1.8249172037817794 6.683572580112402 0.3159366759643312 1.022824946768845 -0.3652318889288807 -0.3510178022120277
Ni 2.760824008773156 1.5097177678379639 0.42705868953394255 0.02804199373888074 -0.061053929888527106 0.42952900834505375
Ni 0.44413522582309445 9.309617923690688 4.964599564639868 0.4861146180495821 -0.519523532527331 0.3442750841715555
Ni 8.614663175343221 2.38103260138686 1.6518859783547466 -0.09159066502480355 0.698699598072287 -0.94439601593698
Ni 6.860428971325195 0.5099634504211515 4.737343749160446 -0.4493437290781358 -0.365910403053144 0.4017189281113211
Ni 0.624882656164973 7.369341155376823 2.3162195481756815 0.36093480421542357 -0.630012062897902 0.6285239083881498
Ni 7.570209733793924 3.9553513644129654 3.9033375920475555 0.6479809886714969 -0.9044433868034424 -0.19692619043952536
Ni 7.441729643070533 3.829641563607546 12.495417039124627 1.0752181156585805 -0.30283712874174296 0.5670174643432364
Ni 7.984670372010341 8.797303787524807 6.93249350654967 0.08213183360474886 0.35890620382116895 0.001311519722571935
Ni 6.98004774380934 0.7784081529708735 0.4723714283713852 -0.6315418692788671 -0.750027816032618 -0.06352270314399382
Ni 1.7647468677132605 6.383172087052865 9.414423315297496 0.31738880130367275 1.3454022342519925 -1.5207733242285615
Ni 0.1830611187293962 4.819817175005052 1.2521385574388273 -0.6048165374688809 0.11558908482192996 1.3804581974148613
Ni 6.225933318907403 1.852033559493522 6.943125283687631 1.2456945965470094 0.10813211432325247 0.9679046405818815
Ni 3.603316998680353 4.347938443146766 0.37042385701546054 -0.5923844823531152 0.13897558206667035 -0.018149931436149385
Ni 5.954354669489566 5.559502630594817 4.875186878381841 -0.757955555520127 -0.2866350650605838 -0.3508997885769247
Ni 5.209444465161997 2.6964395834808825 9.328074190691428 0.2610266204638601 0.16757859051534366 -0.22839109381702602
P 0.325395366166344 5.563482102431383 12.466770256148756 -0.6063095770746396 -0.3738098604058788 -1.820456480722355
P 3.9356795988716677 6.272279276623047 12.514830725540017 -0.2875354653876661 -0.6144077807017418 0.12331859225570373
P 2.4354457877235682 8.4681446170432 1.5363892528886116 -0.4134554998219589 0.8893615527696556 -0.6883195403895436
P 6.3470771044082825 7.562133481427199 5.7268371653859695 -0.6277132395613964 0.9863451066752561 -0.4915676707443534
P 4.665502100453801 1.02667666259684 12.448901434990553 0.3336931948906511 -0.2919873305114326 0.44225185522836086
P 4.145815564082765 6.073901252008422 8.107085603274875 0.18958389114184124 0.08731877712232704 0.4498165549494963
P 4.8081584956108525 0.8352947479933015 3.922184587235425 -0.04121401234446451 0.29624533445683815 -1.439614138949727
P 0.18803861683608414 5.612986371128428 3.5754832551885496 0.12085470409624346 -0.3686619976563522 -0.3713552282177992
Ni 1.317593198966513 0.9888942395136235 2.768221675466163 0.47017454978055795 0.46268441205109995 -0.8286467513881018
Ni 1.7677878700010665 6.749274472271203 4.720267212871294 0.08549226543654954 -0.00097701920128864 -0.2926373053906057
Ni 6.230499334211943 5.73005142359047 9.09476975849534 -1.3174294031881504 -0.15500383917412658 0.21604028556115695
Ni 8.707977729225126 2.240388501512245 10.207051086681204 -0.46800428160211655 0.9887691427357164 0.547018138403174
Ni 2.2676853321372104 5.2230883686016485 7.282654542683027 0.41158682204433633 -0.8769099572698639 -0.8583429929009541
Ni 0.48655495180157377 0.2537017068885423 9.207770515911601 -1.005503424771262 -1.1387649871722905 0.4420183990613162
Ni 1.6575718404958344 1.2597239180415862 11.491645350139473 -0.6951782151825899 0.010614799401368816 -0.17655019788633464
Ni 4.034408400150261 6.965014183537873 1.5013906553418588 0.4176885640667 -1.192305639402908 0.14742474127528804
Ni 5.808061704831074 7.763218629740167 7.775241868459077 -1.400344137705511 0.618916724315689 0.4945084985402323
Ni 5.51178506353868 2.6419361596875626 4.889569826591141 -1.5407433395925851 0.902299343877246 -0.889035022668172
Ni 1.0797723820670209 7.38231730163755 7.175425372991635 -0.6691925897521056 0.817258049935186 -0.44744394095226164
Ni 4.834589046652347 4.314703987876767 6.9234598347682965 1.1374200431086219 0.850266900761039 0.19440059580419425
Ni 8.097719857653173 7.224870987341882 8.827272549240039 0.6524426239872764 1.215329611101907 1.335313739667739
Ni 4.566998892816736 0.3043700387758748 10.32689274568318 0.36975523072053096 0.35871697062849833 -0.11978281118830339
Ni 8.098432733560402 7.269249768503395 4.536119635164296 0.6990888630909057 -0.006153421195905532 -0.08500504138748587
Ni 7.374069598103263 6.054852124917744 6.816891203259299 -0.4966728531814027 -1.3005593669056892 0.27097627547740427
Ni 2.4106756058837235 5.208722565509104 2.4472876491546893 -0.7841332423567592 0.0457725782494244 0.4298236567673372
Ni 2.2692193688996047 5.248760925007608 11.295334665655817 0.5404055181826628 -0.11568267297700077 1.7242936229458368
Ni 1.014900674509045 3.4129791314498092 3.8020523636231593 -0.04678636422591942 0.29711076778092704 -0.7678895268043873
Ni 3.5547511995320673 2.4549912208256095 2.6927957949829118 0.26647581650388946 -0.5222956959558295 -1.237018151818934
Ni 1.0440924917228511 3.315206847211297 8.276718486085922 0.0022252897860929417 0.3400003680556015 -0.4168915220867014
Ni 3.482831946612737 2.535934219406085 7.130415832008406 -0.421989505434899 -0.11812650653180301 -0.08518193328498233
Ni 3.849728421449256 6.624827995858344 6.0235758224562135 0.5866226401686736 0.924955133603549 -0.36326679478270985
Ni 0.5163188744902965 7.441928165475078 11.166973688375153 1.3527856712002573 -0.6653030248897123 0.38202350656492273
P 0.09894898067272591 5.632522780484808 7.9696909542128385 1.225450501585993 -1.8688202167377235 0.7059099997777971
P 8.364191067026802 1.7843464432892688 7.976003966677377 0.02273909346872858 -0.8530611756767245 -0.19352564939840863
P 1.8643690198123082 3.261154610701035 10.401474003572547 -0.8175131033687855 0.12229760719035711 0.4114050450508334
P 3.932719810294812 6.052145001219401 3.8396795782810043 -0.48351934651858014 0.7606973799313221 -0.5738026055858698
P 6.819659688428139 4.020313309427552 10.37557404877593 0.5912945917230462 -0.6782043063324127 0.33041323858779864
P 6.402473879022056 7.743619054164158 10.121706304967221 -0.7240265068728498 -0.3629196958559363 0.9967591029197284
P 2.3855174029804496 8.588404075469287 5.955651381741072 -0.45594400800347284 0.03473303260581115 -0.8406342627672811
P 6.663711315912221 3.9857433397997037 1.6343203550507606 2.2430918472713692 -0.6944225679634879 -0.46946595374930755
Ni 5.37070782387233 2.6565907226412633 0.5506569338546538 -1.019491768630554 0.15262582586025328 -0.5869255161210731
Ni 1.3823836928135382 1.0889856263870503 7.269037710480359 0.233681652792004 -0.02955637350087813 -1.8488283469968285
Ni 6.831507866481223 0.6227963661681161 9.162311592394449 -0.1369608656294867 0.5650289731582978 -0.19489347628021272
Ni 2.7273188411333225 1.6616866685173168 9.264151781177006 0.32933826035606506 -0.47582300631558705 -0.028682198426040924
Ni 6.3542329347175714 1.9661478471243692 2.6701191221364526 -0.03422421129019267 -0.0572065311179789 0.19964718891511424
Ni 4.100561479592121 7.000585788934108 10.106491367407964 0.44182968008927775 -0.8762183305194781 0.971252731118508
Ni 8.162266710367348 7.104187412869721 0.22720798962741884 -0.3045793082438302 0.5731868263787419 0.8318629443325545
Ni 7.4627639942066635 3.787437505150368 8.338065518588653 0.5340857466122221 -0.2529785533484031 -1.371282444452864
Ni 3.199143430517642 8.367168903094981 12.205849552731296 -0.3044543526301918 0.021424231312046974 0.4444059254568863
Ni 0.10432262121393812 4.830573479833137 10.040561174483935 -0.7814772927911509 -0.38042145218512546 0.764531923186064
Ni 8.753953713368665 2.702142590738726 5.893538233231708 -0.09066223967326321 -0.8347495218517301 0.2876570785671949
Ni 3.7772948150272403 2.8432829966247044 11.511509321463354 -0.1875231519580706 -0.27056515608191467 -0.03646389925398881
Ni 1.0543254193025902 3.4385073079251898 12.60646235085612 -0.04056043792086563 -0.7438813368152479 -0.006442927411866323
Ni 3.1682190541368964 8.27901593173125 8.24420232097055 0.21680158920721374 -0.014539331266755605 -1.1239464341022192
Ni 5.509150129805625 7.560048996179473 3.4994094697668277 0.13759901343411787 1.0933600766749298 0.33567988630337675
Ni 3.054916903615552 8.52951511128465 3.6399470894426416 0.7787249268569943 -0.5367861762625207 0.35751189457680366
Ni 3.433959340111973 4.345330580650694 9.28589088684927 0.4064299604337452 -0.14273376355752193 -0.16077339466805216
Ni 7.398523948844968 6.105718979209621 11.42152904160324 -0.2601550164921842 -0.04198688595474705 -1.0552334450065375
Ni 0.6584690375157569 -0.08363297716206348 0.2082112002615751 -0.034421157792347175 0.7731512894239588 0.2051650334095499
Ni 4.733640403941112 0.19224277993961186 1.4596955361399693 -0.10668741145692592 0.8315952924934645 0.3637391064334381
Ni 6.018955664677707 5.532404322374398 0.24315204583609695 -0.49525540400858575 -0.1730648104408955 1.1493759299189172
Ni 7.858238671552029 8.869042565530915 11.429730724034656 -0.6368126307595032 -0.02979959985993578 -0.07755064199196966
Ni 0.344465247872043 5.134267640058992 5.836575838745728 -0.1115236565033047 -0.9993260923159564 -0.8470113699382187
Ni 8.051175377532985 8.973492421558674 2.5348901720330907 -0.5840273686376716 -0.027455010887159167 0.025255689242995216
P 8.404319663981916 1.7502186371988162 3.7485632088421528 -0.07976847557889488 0.4124501984858961 0.2834888061221182
P 1.7326494043965657 3.1664503999873115 1.6068231972721176 0.7439605267926155 -0.12228706566739586 -0.43494915091936065
P 4.6512265348178685 0.9021282178580102 8.095027171947887 0.6013828291969836 0.3725870437423712 1.5071022544993722
P 8.460402243265937 1.6535021312026579 12.442416068983889 1.2192952806178743 0.8992477015351158 0.10833574569362632
P 6.513619354330386 7.758508234505049 1.4785416289532718 -0.7870023363744382 -0.07566422360253422 -0.08244088020473543
P 1.9686654721638288 3.405480398805397 5.7785044259179905 -1.2867276032289194 0.572421151857311 2.219135850676404
P 6.860266543903294 3.854474911667019 6.023483780250469 -0.058927370463827546 1.400414328821814 0.7092094964646753
P 2.2165206942385147 8.61127024697463 10.172448631568974 1.0067974609923371 -1.15396020685549 0.86298949053403
