# total energy = -340854.20518388983 ev
CRYSTAL
PRIMVEC
9.43387616893144 0.00000000000000 0.00000000000000

0.00000000000000 9.43387616893144 0.00000000000000

0.00000000000000 0.00000000000000 13.80743136404333

PRIMCOORD
 96 1
Ni 5.700221455347012 2.151895414865919 8.745129458167893 1.7399069040030612 1.1897005976798931 -0.45067453207441743
Ni 7.3653477368992455 9.193981957103999 8.886946085757426 0.0745049131871104 0.822446536114661 0.2426427186400337
Ni 4.63374064246966 4.996218459619778 3.824450873759998 -0.17370424379710728 0.09094300413847563 -0.8020124366300252
Ni 7.581194819542316 8.016785175612178 13.081104899226004 -0.8110282669753903 0.8027110053589466 -0.7201562252841661
Ni 6.323838393766483 7.932531229148663 7.262336414805517 -0.5045627974524407 -0.6029373181682971 0.048948147763928605
Ni 8.065199827191035 6.934276207428422 2.780817021754368 1.8743974537151848 -1.5269874234590737 1.1727099766591675
Ni 8.87671127369626 6.692363325425964 5.987122605168888 0.9550653227253681 -1.9888549960358328 1.4015309589247604
Ni 3.6240989324299187 4.348903624714319 7.702240882365446 -1.4385371038354644 1.4385383893870451 2.773012149651992
Ni 4.027755618274835 6.538364733771004 10.35557322093375 0.5620686049783933 0.9930132627240511 -1.207825589415378
Ni 2.9094450907103764 0.8895097898000077 2.0766932724144667 1.7163861951733022 -1.3846028157108543 -2.8563220627252424
Ni 9.395980109794271 7.892173107664963 8.352321729711068 -2.151208847817127 -0.27645529631410454 -0.13934813491474066
Ni 0.6227848705571849 4.964992330094055 8.181883665756555 -1.5578257489961687 -2.194073251280821 1.7074397846132916
Ni 8.652543512430324 9.37505577284924 6.5730691333741085 0.8710175030448291 -1.124572240611676 0.5658725521055158
Ni 5.847229544893645 4.972435658249884 1.252255529028231 0.2972110408042172 0.2638566337134875 0.14621709412043205
Ni 4.042396993810764 6.694759529927333 6.645958089432901 -0.5814824907286308 -1.196238913019043 1.1076973192332085
Ni 2.214847669344818 2.5978724684003813 0.6620769640540549 -0.9965572713215677 0.2911164978707051 -0.4659198882692621
Ni 3.9353602368322553 1.4639583099490503 5.146236898994706 -1.2433512931258135 1.5659496636548838 0.17559014796591052
Ni 4.955218834568782 0.5646599304221871 3.272996482948115 1.940772281595993 -0.24628957136400162 -0.5197328203246597
Ni 2.7233430190626557 0.4938577477323049 9.203881866567533 0.34649008954500327 0.49799619997851646 0.188751625048533
Ni 1.9620009250703614 6.934370546188318 0.560256197110221 -0.6576979588489447 -0.2644125062169575 1.5125213686324144
Ni 4.813814467359998 8.796495026156311 5.51084960228128 2.426385277418808 0.7293085812073956 -1.8844622941503546
Ni 3.559410844768925 2.982831212033822 9.614929050862736 -1.0197835888393598 0.032324166054002394 1.7014133759135535
Ni 3.330186525972539 6.952804339872084 12.563270955666017 -0.7488970448622844 0.307759762854341 -0.10436544819196865
Ni 8.124897394453507 6.290612282530955 0.5662976512939895 0.1041268498186013 -1.0415757450137868 0.3101480605808594
P 6.587892582716638 0.7138547924232197 7.211206693716842 -1.0138602813763893 1.1025173176941656 -0.6283007366337502
P 5.228282375089047 3.604740618899168 10.823285924748355 1.3434741639913443 0.8931660141174101 0.33754213632309615
P 6.624722434580211 2.7186638165717922 2.1456058497436232 -0.902511459888052 -0.4549317646888746 -1.180854974363805
P 0.7999587219683056 2.609702548891396 9.512919606399109 0.23855080795884723 0.7062560702633062 0.07323375978417065
P 8.02525679625088 4.75538103948014 2.081097005726433 0.02749049211078491 0.3561548663282769 1.2940063962785198
P 0.13970721291824695 1.4711752250811283 1.4279510920717744 0.8733440942954765 -0.3158679937837721 0.5489271825004288
P 3.1260940528125665 3.260177732253386 3.7513138067626786 0.09400364534167037 0.5209024151527287 1.270886779541921
P 9.140454144738756 6.35420604057715 12.493405556861905 0.29771034903813887 -1.3998170615574472 -0.6288306409952912
Ni 1.205800293492424 1.3019314898269028 11.628480447890913 1.9790773478237789 0.5658126454018578 -1.343049931969732
Ni 9.066954816903435 0.6488393492653854 13.02924405274813 -1.2830067027339065 1.139232156616696 1.3215002308234145
Ni 0.8023709640588579 4.795795764219777 0.35557410670089534 0.5207039259886774 1.0615609298864621 1.8766409983337227
Ni 1.2627243012139395 6.290480208267099 10.64749036261932 -1.1343642870014334 1.2800234517358666 -0.072122786108179
Ni 4.569873302019766 4.068368454410256 5.916097783005649 1.4672565832573439 -1.4726818680379734 -1.8229807898061057
Ni 7.928521831853064 3.2979415378399333 8.81315902470442 1.1044227622469946 -1.68374655476141 -3.0445702657747953
Ni 6.537402478420059 0.8214085258059607 12.77540863826996 -1.1119440103247042 2.1750805122284023 1.0083933447245472
Ni 6.390554764765251 5.7394569455879445 6.14738623386857 -0.02660140463761225 -0.4278806741083534 1.330241210240838
Ni 8.56424243316725 7.956078183618815 10.892295671000205 1.277573190423161 -0.020189844684313618 -0.9874717640805316
Ni 8.4805639531391 2.324657985864282 3.78258710566835 -0.7170721870422037 -0.5355235075000132 0.12352685161176791
Ni 4.506977650796805 4.9438698817532405 12.760151230631905 -0.5341865338561446 -0.020567539738706515 -0.32091018419336986
Ni 7.772259109960589 4.392082475118923 10.543658293314493 -0.5553688243607146 0.8844093509707027 3.3780261478436597
Ni 6.185094379586779 5.996737611577534 11.381672327637428 -1.713776525464597 0.8370455169747583 -0.5547401896377802
Ni 2.148555822765585 3.361091903714615 6.1448456910645595 1.3232264694859017 -1.974290725068413 -0.0006371193633666446
Ni 7.174500425628733 0.4781022314419993 5.097441118825869 -2.098937806327553 3.0384623531048445 -1.9537252422122353
Ni 0.6103897008943908 1.0427263131354259 8.068813945082667 0.6553245735207617 0.14363622076713328 -0.00689569867856877
Ni 1.847284993036282 6.772513535833984 8.060709302219964 3.2567870638248038 1.2109325104754758 -0.5771818064707479
Ni 7.426884909979697 4.802427779040498 4.4179086540281745 0.564515266746673 -0.22433929234515557 -1.635239351189642
Ni 6.930615863544439 4.753852751569817 12.903196148875288 2.210256288798587 -1.741717217738923 1.345592752996244
Ni 0.09261707752833659 8.439790741111857 1.0549224280148384 -0.3278616758105386 -0.00034092827918650963 -0.5454677631969187
Ni 8.701212878660899 1.135253768841861 10.025575295428382 0.297986485517661 0.4831043704683487 1.9091461700502799
Ni 5.493770513189628 2.9500296252178275 13.501319924207943 0.08375368547888802 -0.8707521651985842 0.013976002564117867
Ni 5.120273928883605 0.8387611973013132 0.8635779514796724 -0.14238537907916768 1.0561456724081617 0.3564736831202764
Ni 7.023077282118947 3.2120743985821876 6.238625022114819 0.34884599137168953 -0.6763142883985512 0.6262798495489795
P 3.056453180257009 4.680391159238454 0.6444365593410183 0.7816778388377311 -0.4355944978128434 -3.12842910937298
P 1.2513942161503764 7.765910111419558 2.798089505303808 1.3352582038394551 -1.133087734281855 -0.2736458518897674
P 2.7686161899369606 4.91891727976063 10.583657927510588 0.3104133984271041 -1.6928253771342265 0.0708716873098973
P 9.05431342307731 2.149235061836839 5.888027284998462 0.46945669777792703 -0.18087736450677883 0.21347818126093557
P 4.1389998839447255 7.892324049680796 8.54983784791866 0.5252228969049535 -0.08415709156489377 0.6948735394579775
P 1.4315906814285793 5.356328373896494 6.297334862561176 1.5132657029976067 0.9666244883178772 0.34344744606393757
P 7.014728301868111 9.37558406990466 11.089562734881667 -0.5004004385446349 -1.5093128889974459 -2.5465396130139175
P 1.152291348879159 7.92038983074999 6.039825896772637 0.9391905604766405 1.8878252970853164 0.9879147651552213
Ni 2.2800640540612314 6.557958894201496 4.693008024987004 -0.11743436556078483 0.024536808799099676 -0.604734776388352
Ni 0.17390123983031303 3.973595736218285 12.326308028395324 -0.6054390015442283 -0.3934443468073547 -2.569092301503453
Ni 1.6517867809028757 1.6768997587873098 3.4718229665306684 -1.388889873121982 2.012465950586553 2.279657562210545
Ni 0.29579540810491295 4.150311101256309 5.103129746047625 -2.360867912442289 -0.2272351258357119 -1.4217192609471774
Ni 0.06772390895446119 0.07185311647512867 3.260196600005365 -1.4838566537078703 -0.3831820456493982 0.37254590609179067
Ni 5.813984565906137 5.17088667356805 8.861125567173767 -0.243806914151464 -1.1909591526773424 -0.09733450948711624
Ni 5.226150319115388 7.01872826528772 2.4823140912404273 0.6248531444047819 0.029003329210885536 1.118743549745041
Ni 5.992077276838649 2.6384098335278843 4.181663644720294 -0.7493570152178385 0.4794845143275742 -0.20267414866689612
Ni 4.300130485847856 3.2329138306433127 1.9230710924114938 0.24316928056746512 -0.7318837981337396 0.15446236484835976
Ni 6.887814368179421 7.109453850680133 9.66114277917321 -0.9826499172118561 0.9028986680241419 -1.254311391681743
Ni 5.026935159842061 0.2693984796982881 9.80671408940662 -0.01691863013220957 -1.2989889370947756 0.9996428522254267
Ni 3.307932012512967 8.46676219256625 3.393907641344594 -0.8426073273332522 -1.2731416370143687 0.6161666723743775
Ni 3.339912852117863 9.04263428460213 6.938247869220062 -2.900959498928959 0.663333045647535 1.5439572185441925
Ni 2.1706876958372914 5.1173588612028045 2.366786845871238 0.9261545532282888 1.7109012607993308 2.771685974641401
Ni 1.4924486154377772 0.7607015338125973 5.852610627758138 -0.13507701834321253 -0.09888488469337163 -0.6278639062066478
Ni 8.381696932767625 3.185376529531493 0.6075218025935387 -0.3873629164999651 -1.1117984858857757 -0.5344588136809246
Ni 2.6908150146503607 3.3672144892318947 12.102682714998794 0.1478947389331711 -0.7016039162032756 0.15875302180391368
Ni 7.397922910691488 0.30168875043564397 1.0528941446770648 0.941786860448907 0.7098232187892743 1.0717214153592316
Ni 5.124717284474728 8.250792469535316 12.020307996632415 0.5917388783493164 1.751186590681939 -0.6129839037710217
Ni 0.8060548926328139 8.172179980913606 12.38711596286178 2.194980336476123 0.332635185939782 0.5327973668181017
Ni 0.472083418560606 3.751163808134443 2.6778679632421727 -0.731882769692475 -0.6738162045670459 -0.6788977328550114
Ni 3.8216159940251093 1.909284426040227 7.6070389228159465 -0.9910301708557512 -0.33773599750145705 -1.8969735392434877
Ni 4.073764631476332 8.254207532643566 0.9496460322959978 -0.2226112539104553 -0.03538943524288744 -0.8818575310831263
Ni 7.3659986743425305 7.785598610609947 5.012953212237808 -2.075889923369154 -0.9266777727216106 -1.9355184893962212
P 8.050360340259324 2.4384965674313244 12.054052971047373 -0.12403284471390899 0.24662510032654947 0.05348023130632725
P 1.1464140441376105 8.730372989344891 9.865740908086227 -0.6839468652431447 -0.37256673202739704 1.5288213913440185
P 2.4478266707850826 9.114237403363534 13.551551540302405 0.0035044136088326744 -0.07397706570809841 0.041179045341471016
P 8.069756389294033 5.633259803572513 8.821153291218044 0.14071287647275124 -0.24536808799099677 -1.069862507773622
P 5.584694209977823 6.844277030487212 13.551551540302405 0.051386582002092146 -0.8203842542689935 1.019514137228057
P 3.9525770605133568 1.2071304700069634 11.695819454704997 -0.07612136574461084 0.07992891241615913 -0.2912124000186211
P 5.132198348134517 6.872569224580156 4.874920512307724 0.3830568329254435 -0.9465416015250729 -2.2266059338012036
P 6.878361624437797 8.509752365451062 2.6967432623222534 -1.9287032662466008 2.268017149758139 0.8659120634974635
