# total energy = -381163.9118465616 ev
CRYSTAL
PRIMVEC
9.30773882072108 0.00000000000000 0.00000000000000

0.00000000000000 9.30773882072108 0.00000000000000

0.00000000000000 0.00000000000000 13.62281660479099

PRIMCOORD
 96 1
Ni 8.462847302594126 5.703428559460049 8.89719758123654 -0.6489670067338501 0.058617552532892594 -2.3882373055941772
Ni 2.263856121165398 6.063098196928846 5.770542939873394 -0.6633533573625092 0.5969476762437654 1.579434585515196
Ni 5.50936220830782 6.721360090750809 9.115080574083173 1.5164387014089495 2.2234673881722222 1.450082642581219
Ni 7.64882040222384 2.354048108823196 12.493157713796162 -0.11731480926378506 1.0159284767593277 -0.22607015899333324
Ni 2.6237584521008044 8.57687640897139 4.428110130883313 0.7719482702547931 -3.3145844344492463 2.1920335951429735
Ni 2.2298642595630986 5.532007936478245 12.353320109650317 0.09885428856575233 0.4244791046259722 -0.2584552601922581
Ni 2.5511394750413467 2.9899900453279864 1.9751859142284567 -1.808087417634041 1.3645034738578177 -0.3735818035554727
Ni 4.629483056887077 9.298617080484394 5.740150380812609 -0.5879999801321745 2.0254556779780017 0.5830894302044345
Ni 1.603639602223916 1.033791917974856 1.2571422765129427 -1.203894886902404 -0.5531239941905958 -2.018514213663162
Ni 4.424889653305439 1.0807029208433083 8.351536055906859 -0.3496412335794753 -3.259751802880083 -0.3458557983951141
Ni 2.2436955592183603 0.6243854481791018 10.23574813242971 2.649256726969186 0.8677342043078669 2.7472594661679204
Ni 1.5552486689078278 6.210625854759198 8.275629585551146 -0.6482113595147481 -0.24312480048277482 -1.1337883598933054
Ni 3.785382852892193 6.264992356297815 10.709386375974452 -0.5552101872956632 -0.35565093010866494 0.4166783776346307
Ni 9.248141213707484 7.798498147685661 12.25782364172769 -0.8969002843488617 -0.20513932237793703 0.2646685880918216
Ni 9.107361666408806 3.050778886545023 1.940065954700035 0.23751233939200386 0.2683447513918282 -0.36110603968596516
Ni 0.7611151983849113 7.952085143386522 9.773744562215436 -0.8201466843368906 0.12288407582144642 -0.46935848163716587
Ni 5.3647292572020895 8.369890916553008 0.8346630877630734 -0.9512086679834393 -1.4970674959711894 2.3812475045399055
Ni 8.35532430554326 5.405720538279999 2.260938145094116 0.40213853214724293 0.9795892760086614 0.16378441358023405
Ni 1.7077373514462915 0.30599842400840904 12.520690004765385 0.19016470334597574 1.0382903893942956 0.7778119281244217
Ni 1.7615733118810393 0.9082966083369477 3.438657487583943 -1.1429021492691156 2.666839730158272 0.27165710359451284
Ni 3.98142244464127 5.928740989308586 7.738413902285518 -1.6509017403172468 -0.13988241015165584 -0.15110039035466236
Ni 4.462790765146776 2.3750742904660203 2.8649871150654236 2.0225575304946006 -2.895223624886446 0.36358741134692224
Ni 4.565510969046825 4.19640328457235 9.669461588993641 -0.4980918450161165 -0.05690956870285038 0.7346616179891929
Ni 6.394351308255305 1.858345870774551 9.761906049408216 0.08990710667479354 -0.858410870024412 1.6701065953804721
P 5.538225505906048 9.020753158136792 9.555997462353304 0.5087107581825432 -1.0575073286423788 1.156485544380505
Ni 3.4191791828810043 8.258039821023207 13.341750763244338 -1.5135066153638193 -0.32301386079993405 -0.39879764069946805
P 8.912885774755345 4.251756406409391 11.746777596490823 -0.6489081284714566 -0.49169879700557895 1.2860215783008302
Ni 8.59929875141387 0.28304181736659334 7.177861856640569 -0.8271704239528916 -0.46804207681858745 0.7274861832866761
P 1.8778362755377536 7.731556891211473 11.508828049857662 2.4540608889572058 -1.13042227163455 0.6119454352041784
P 8.38802239147121 1.6231951611577689 9.057006800234534 1.1287852502517592 -1.477589589752236 -0.3412491528610381
P 3.035570041567433 7.848173548937434 7.024918956455284 -0.009480942907241736 0.11752769660553952 -3.6917989496613
Ni 0.8615298754177932 7.250272340353945 3.2274500049074 1.4115060678596014 -1.4697022165843594 0.20512158176612413
Ni 7.87384429217378 8.25315325822441 9.092303606797579 -0.48859650393117143 -0.05287987871816699 0.3250069799705628
Ni 5.636543149417847 5.399279583124251 3.7857263084489086 1.335539996745932 0.4645718588817999 1.779029066815504
Ni 2.4906857124162283 3.827779602508423 6.48012863546459 -1.0304816919831543 0.9979130140185136 1.453104460126678
Ni 1.2265179547594147 7.6058931115037405 0.6761550906303582 0.14591138995455516 -0.3751020968547411 -0.0374098081070259
Ni 2.2318281924212817 4.490276517422678 9.5221582476651 1.667095062247658 0.13104989946169043 0.44053435831662197
Ni 7.463950096872013 9.297555998276653 11.23747489070579 -2.403364648153919 -0.9358416986090656 0.7021230219315392
Ni 8.753304595354626 0.583359728468134 13.453184872081975 -0.05601019681703258 -1.0765460904413848 0.6252038428759814
Ni 2.2267927058038546 1.1382247457891488 6.249303232005143 0.8987075127609296 -0.7037775268158266 -0.3868011304592242
Ni 5.5466955480906295 2.8596165498560793 7.996961474582941 -1.7507932118982623 2.362605721069002 -1.6866788979168565
Ni 5.492198738210712 2.9645426878195837 11.91879298397328 0.6216315521436907 2.981364065429956 -0.7298248587221818
Ni 7.899580189580779 4.151577215164718 5.061884295053171 -0.6172843309185885 -1.1139913797720362 -0.5867254842951249
Ni 2.6639864986082356 2.3818968629070074 8.529544696315307 -0.8869076919125242 1.085880480468433 0.19866091374244496
Ni 5.297480845351976 7.221920968382258 5.652147573288672 -0.37600841071909435 -2.4041799449663626 -0.9389542760961184
Ni 1.0158279823526113 4.42823113148595 3.5731152187817785 0.2667326697097019 0.5020613711868256 0.14557380410947832
Ni 7.962193347576033 7.833746554007651 0.8630405214030213 -1.5240465956631946 -1.6518381360885874 -1.4987333137093866
Ni 3.8106999020592944 1.2630973677104103 0.834794326878241 1.2739818735274768 -1.8359136958176898 -0.06485582013312056
Ni 3.080377495497737 7.898937955612937 8.991807952438316 0.9082054249490359 1.0854418502691177 2.6525485103465805
Ni 0.8212906596239651 7.95174075705594 6.57969723905288 1.1983263916756912 -0.8300953109091703 0.6706640320913095
Ni 5.425955562136351 8.344685560249879 3.4554681943856713 -0.48641877955356233 -1.4174512296994428 -0.06757039085080621
Ni 3.3974456130996873 7.349436988084202 1.9301076051030195 -0.14139858968586616 -0.49257245785978393 0.38144963633932366
Ni 1.429147425482869 2.97965845541053 11.515121011968647 2.3724939267169916 0.9215245106554452 -3.4336069704327574
Ni 0.07037395049361014 0.04144456795086471 4.997584574811932 -0.7764461581251466 -0.49735470973977575 -1.7785690964599496
Ni 5.053943863198592 7.92713109602733 11.811949451844914 2.0621797728719127 -0.4705776987562476 -0.8059629366373411
Ni 6.5133321316020165 1.0199513105809297 3.9271173741778376 0.6295785749049092 0.2076155518325715 0.28443034409978113
P 4.1133503324701275 2.4454873334620206 6.438265219273828 0.41552986585248436 -0.6783323472698446 -0.9779823365328577
Ni 7.675756997918541 6.600564258364544 10.959773853784817 -0.8617229651167804 0.7362819272014351 0.4094720896941787
P 7.71699958794039 7.83340216767707 5.33852331899254 0.011315425012819224 -0.17727087810244307 1.1660305077564628
Ni 4.515677336237758 4.415879762278324 2.109234104925059 -2.9103535385493493 2.6600623022251217 0.03434633869035375
P 8.553495369446479 1.5529868884123847 3.2829352966334753 -0.37995916783672634 -0.8164072718991165 0.2941879377071772
P 3.59600760202681 2.590352978034361 11.032260660955242 -1.379745744728869 0.1476527981256941 -1.985024823656465
P 3.723607391376733 0.12295708930413299 2.836515673264966 0.20358431918599135 0.9171937444905753 -1.213299982266388
Ni 0.5587612367259225 5.757171442508152 10.566510725928557 1.3489742678739671 -0.02338212636936618 1.646180680692494
Ni 9.270973096651199 1.148519104751948 11.000356525135361 0.9885511131876394 0.6124324021429258 -0.6262065731088827
Ni 6.306551409434252 1.4023504458681317 1.5032509868592943 1.1782406766694096 -0.6716824460534949 -0.017669906475937313
Ni 5.277525053655555 4.81715499157688 6.285554081781286 0.029980091301858042 -1.08425091528481 -0.6971674776984768
Ni 5.916501312964932 6.233336737100274 1.6829080277852035 1.3805769823809126 0.8212404316217017 -0.28511117221688964
Ni 4.41348767344158 5.729704305709581 13.480226645223585 0.3300797665077799 -0.058164524155874024 -0.4281807218472755
Ni 3.37832751788306 5.991484455645141 3.9702606044349507 0.45381770568908936 -0.37440018569171 -1.7281675040789461
Ni 7.6405737457672025 3.107695708477679 7.706699644334392 2.032061613330294 2.7557945002221245 0.13156026343920568
Ni 0.5668208076354052 5.138569823135094 0.2286715927325104 -0.4402600216093127 -0.35973744147321274 0.8369398446348296
Ni 7.247722019959906 5.277552976871549 13.332650587152179 0.27234744479331807 -0.3999664641965886 0.12422670589226993
Ni 0.42151304547650736 2.2474000392067817 7.138028458252509 0.6052880777886608 1.5185212949695914 2.0006370762724255
Ni 3.1041401523078873 2.967744549920129 13.095736061058497 0.07287817621696481 0.8163982730380519 0.26965575689376786
Ni 9.230298278687878 6.023437922479943 5.117397509995239 0.4370456284370731 1.061198918561353 -0.28996052988939097
Ni 6.670167528096743 3.9078726937153747 2.070613504884966 1.2313686668426405 -0.8657362000412316 0.8291085215158689
Ni 1.2374824709060488 0.4469957723918346 8.456431478332771 -1.0562953106121484 -0.20136365738558867 -2.713223973849766
Ni 7.7606342667989825 7.679470785645628 3.246275837129966 -0.9609035266736999 -0.7086052872217732 0.15392808961144458
Ni 2.913219816824218 2.9253384925652344 4.45964661102595 -0.04773073041705973 -0.2169777097737618 -0.1803585158888313
Ni 6.607721909397449 8.32596769779582 7.150657198072333 -0.41681078944743705 0.37030518968673 0.1769302069335727
Ni 5.688917794882288 3.1010127521166573 4.642669330252898 -0.23457382558897022 0.037419321188722654 0.9071947242963343
Ni 0.391360626073263 2.3409986592157415 4.988933962497262 0.25953923728505623 1.3077399438145283 -2.1165786593377676
Ni 0.2549631621377718 3.4290453858652423 9.576431671817073 -1.7973201518152075 -0.42414666098721787 -0.6789828363696501
Ni 6.898058201555314 4.413357365100278 10.21727599427639 1.0182653524226206 -1.646411051535745 1.903164498545548
Ni 6.753201864721638 1.4367611557103281 6.514199612845537 -1.4391914495900118 -0.5658712665539352 -1.606579264250788
Ni 9.284515856407864 8.957088225672464 2.131084952213547 0.1830419762582654 2.8768818891544647 1.2105800122320634
Ni 4.677427218747274 0.94371162318103 11.882529103363007 -0.39968955638611814 -1.9912312095774936 0.26805601650681576
P 2.2537572247145503 5.223167859855603 1.9416324471172492 -0.11416855032531951 0.841441589159925 -0.190273203899382
Ni 7.382367767478763 5.9249341241948565 6.5658705932669506 -0.35247407504258005 0.48792981688145 0.6201930199249512
P 6.480150043263518 0.11455592438566768 13.28642835694489 2.360431853346135 1.8637677419154803 -2.2971210091026313
Ni 0.6330481605540361 2.5888358166320677 13.324244768364382 -1.39136455991472 -0.05342623813994024 2.985147700842104
P 6.287368160046973 4.9641986469966835 8.330883114584477 -0.20605874886841286 -0.2657224832776327 -2.5083803283353765
P 0.12457570505786787 4.406609254568606 6.6940744548561915 0.19959679529315305 0.6435792600593755 0.13323867958289312
P 5.840326779735683 5.654609470165399 11.69682296307912 -1.462175569190011 0.33717806811545803 0.27772696393767654
Ni 5.283202774240824 3.153061626727845 0.49133970093665225 0.055713234401904045 -0.08560359420343322 -0.9061233456090265
