# total energy = -340890.31124871963 ev
CRYSTAL
PRIMVEC
9.06958331931691 0.00000000000000 0.00000000000000
0.00000000000000 9.06958331931691 0.00000000000000
0.00000000000000 0.00000000000000 13.27425195535448
PRIMCOORD
 96 1
Ni 6.388841371153759 1.931376880191027 11.38661360291014 -0.6803336939705896 0.430735112838013 0.5176430276751666
Ni 4.517777221371467 0.4041206885723746 6.083483912323627 0.12456686284050804 0.09183312005291282 0.2796231525191249
Ni 2.613064916729564 1.5329137978184972 4.715758066990308 -0.053431637456578945 -1.0875365280146174 0.5673889887500422
Ni 3.319068506685517 3.7433254845892403 4.755925438484172 0.0011477404511980233 1.893118941384088 0.6496092683035393
Ni 5.238473536629997 4.019884294867966 3.2661565564291926 1.42803954673825 1.4568991512824199 0.2690705738142592
Ni 7.016538176997079 5.963450695310022 2.6172577851909105 0.8670939996207067 0.6929246432617227 0.03506496202393316
Ni 5.054778192013682 4.182474718632985 11.877893896069127 0.7554692987631634 0.8052255442506842 -0.8641724550985376
Ni 5.457721648645146 7.930062907476677 12.503349607824626 0.052620711519509374 -0.2309053755984475 0.25502258036162534
Ni 2.0549590252360512 6.5125776991186255 0.2388837603361875 -0.5047862263171564 1.4415159839581302 -0.7685014493567732
Ni 2.5308400725362428 1.9442284800390233 -0.006454822591262562 0.3802887832620031 -0.8179949281012105 2.629816101746071
Ni 0.541366161190445 9.239366123606853 4.84293811581776 0.596896768401172 -0.05866537505169252 -0.31658918822051285
Ni 8.902821087926116 2.4017254815439517 1.423942751824371 -0.34402388739269785 0.13001503043927287 -0.38873819958093697
Ni 6.812599521963877 0.7208350798863894 4.868570572762295 -0.02543875178807877 -0.15800405945303111 -0.4083852843879031
Ni 0.798539643653287 7.633795892208751 2.8484423760768767 -0.3457683808876303 -0.2165640192751109 -0.2969598440253596
Ni 7.669602607946147 3.839200051980327 3.6937203044843483 0.14474719444312492 -0.08839658356753809 0.1253541346284938
Ni 7.5178412669041395 3.8426737024685296 12.55696445080376 0.45687037647248413 -0.05716025126107575 0.9198221832523578
Ni 8.3377678954562 8.945956027147762 6.812306574416177 -1.2339140589723134 0.2879087895666848 0.912042796417255
Ni 6.684917925167762 1.1005848905818754 0.3418942760408972 -0.3309611406714687 -1.1689381683215612 0.500726454425486
Ni 1.9229421675173242 6.448718761553527 9.125623569722798 0.7541073854186302 0.2677351428322873 0.02245447234877423
Ni 0.21111269559760945 4.905547264773785 1.3188988354944524 -0.9407607331772379 -0.24011249601901227 0.2877920614831624
Ni 6.383127533536089 1.6808568441985379 7.2366841777807185 1.5308805878658927 -0.46961250662950094 0.4994090211656431
Ni 3.6007062837355046 4.567641791565033 0.545144549684923 0.4846637445356685 -0.6322098418801693 -0.39243698858876286
Ni 5.821275904048771 5.8706235079816915 4.770673488246224 0.24116433432229437 -0.3470721873007184 0.8899418507531577
Ni 5.665614642093116 2.8291749528467545 9.21647268088539 -0.4548183790394619 0.7675635109235361 0.36030154150679883
P 0.32758610107957103 5.72836709046876 12.54246944242192 -0.1572602393084711 -0.4914679119416955 -0.9910602527627383
P 4.013018620143242 6.142674735250923 12.489850439713294 1.4993130974722564 1.0793012845890186 -0.459249418227622
P 2.409996941714292 8.345531458949413 1.563706847785976 0.22646225222542932 -0.4418026835060843 -1.3222859599495034
P 6.251264858737204 7.906028511148385 5.775866313280283 0.07660010515324227 -0.13540097734153456 -0.370401091834646
P 4.574072126280791 1.0088188445253983 12.623283059419512 0.9490522837620688 1.147784159951765 0.40263295528515813
P 4.053278501389013 6.109561685819 8.007559777780966 -0.18778360470830885 -0.4927478070953836 2.3753151982158704
P 4.709734956574603 1.1958517958771149 3.9514796820425895 0.6570523548451459 -1.1616130954150576 -0.7697983137913258
P 0.14790314021255213 5.67248938640136 3.5437474853125073 -0.04660021635704232 -0.18794352732494085 -0.04853008638990352
Ni 1.6784624741492287 1.032454179178806 2.565408790123144 -0.4072280308550083 0.3540311351170548 -0.3409725021608837
Ni 2.2572016681509925 6.054210017595767 4.844026465840173 -1.150277101576948 0.39753188661316696 -0.7938828655443554
Ni 6.1003923368801685 5.553206223944868 9.279233291886202 0.0783134882999232 0.5903957340578606 0.2962540762075866
Ni 8.671310898991779 2.4185676981407966 10.485451621726805 0.6205516888159506 0.16069729001447808 -0.4841546661097339
Ni 2.2743703897545617 5.111472158597892 7.03604413027378 0.9605649123873587 -0.6690884600740734 -0.1075289335216148
Ni 0.4746902109840015 9.168623372149993 9.146570679820842 1.3220355345015942 -0.2870209876450928 -0.05546332317462706
Ni 1.298066002148759 1.0400272814180982 11.419998739847667 0.2616382859059301 0.06931719833858385 -0.5575943712571236
Ni 4.238932876045673 6.830312418578653 1.4524820102871023 0.5022346635398963 1.1587216327998755 0.4538963814458248
Ni 5.927916067078229 8.121549024336767 7.96411375184458 -0.8411016893220029 0.32444802214329926 0.4043273122684456
Ni 5.310749047701758 2.6175180822379382 5.4498900632755305 0.050100259090500816 1.3914820593291908 -0.25029046499327867
Ni 0.870102285460366 7.223360959589676 6.555104069286071 0.010009304606885986 0.22660392000961618 0.6397526872244337
Ni 5.145546583882947 4.387374749519319 7.362471138579481 0.68421348864097 -0.1489388639269693 -1.2341876243486745
Ni 8.163305386863355 7.2812158328644605 8.939359719053584 0.41258261029870236 -0.661557441804351 -0.07830603210075546
Ni 4.719212671353118 0.2017991402808081 10.52178255939166 -0.20053396239544174 -0.37843553210334824 -0.3436567338612662
Ni 8.193516169568845 7.374478360201755 4.699457304529614 -0.7685392445732441 -0.602077284160847 -0.41000533648982934
Ni 7.275520134413831 6.296404175916794 6.749691983710039 0.20157011696943997 -0.8037893260247899 1.0374846056635487
Ni 2.3672610641675322 5.529208105950657 2.2475298642851467 -1.2231959012238611 -0.21277292766379483 2.7097663543184685
Ni 2.46407886824471 5.226601451802173 11.327157948144055 -0.30849021326246223 -0.03702568529472978 0.36612740415995654
Ni 0.9567050176188441 3.4367826311930294 3.5087697295088494 1.1234712942380136 0.1643747388660653 0.3050184526637779
Ni 3.695311109433776 2.6188059630977936 2.7320669220969322 -2.111060814843332 -0.9271842800443838 -1.408420229845426
Ni 1.0699750462015027 3.3231770280201265 8.28349187983845 -0.3761099692939652 0.6806342559301439 -0.2279401223225365
Ni 3.5750302927900717 2.5491969095809464 7.444068367593211 0.3241618583614482 0.3506110536919123 -1.098461145346921
Ni 4.040807824048861 7.131794444370642 6.2336680527914865 0.6775671869690459 -0.596470736607347 -1.429160547716571
Ni 0.5268394092662841 7.768805712489114 11.33242828312759 1.327109863700708 -1.6649286507239582 -0.31546510191839866
P 0.3318914323765675 5.540862520773999 8.039816658528588 -1.1645027582580265 0.35049895359408023 -0.5947797220581692
P 8.546567847256181 1.7456318096991663 8.082718509453768 -0.5780780930327721 -0.05205609726529099 -0.1537267722339159
P 1.7873609634751941 3.2513187177902925 10.27996569574507 -1.1195143664727945 -0.11166275318433026 1.2281015660555945
P 3.978146071508418 5.7800546469498695 3.6469811127718117 0.7049993150380698 0.5496198376920792 -0.08615252472836776
P 7.170485287667432 3.927111525040757 10.383438760209305 -1.2872433665230734 1.2697380106494582 0.3839582616937904
P 6.432429789551409 7.7101799246151215 10.248758165810722 -0.45416249062301783 -0.20449834635982844 0.532159990344419
P 2.453249785521699 8.575880741193178 5.767330928229507 -0.847583954612237 0.24529146911679045 -0.7405188481009182
P 6.696273043734941 4.041542460313989 1.5921535964968023 0.6631443266754966 -0.40231619537568775 -0.7022942574020808
Ni 4.988715345653198 2.7927515054299907 0.7574000128060664 0.12293189834024633 -0.30439393170590157 -1.6953928807510865
Ni 1.496735229156777 1.336439410022346 7.123043203232087 -0.6486811000623152 -0.8710894939333449 -1.247254999055594
Ni 7.304198157504421 0.6355447164632713 9.593939677408866 -1.3699961215412728 -0.5905548853435442 -0.8327173219130497
Ni 2.6840978948590686 1.4722927015700795 9.389011530813619 -0.17191269911432328 -1.235218122495718 -0.24638058841591118
Ni 6.275725525490943 1.9195138649467225 2.4371394843149266 0.8273971952517171 0.23754293551962316 2.3237926048565463
Ni 4.157442668117481 6.679938723815222 10.238350818721395 0.20422143854935798 0.8053193895160711 0.08415323491015185
Ni 8.120143238891151 7.167655577609158 0.4043020802427768 0.5902563802665189 0.01610179065786904 0.5655056556844003
Ni 7.725072180755142 4.045950277904764 8.08946174480097 -0.031457704288649045 -0.4581119621890691 -0.44877757216202063
Ni 2.9822604530826973 8.651221771494734 12.417864248355826 -0.13466409917551003 -0.9670065542476444 0.040919106811865016
Ni 0.3363464118016457 4.921029043842614 10.244909034564786 -1.2085046177602734 -0.35012922895948734 -0.35593683678019994
Ni 8.461331901334184 2.372603048860877 5.593955862700725 0.4701673506917064 0.626702796019011 0.9963639243638389
Ni 3.457570116621122 2.6005579610553315 11.33972929786128 1.859581728858591 -0.18660681079138827 0.0563557530819094
Ni 0.98182776396955 3.539967282901325 12.386165146994689 -0.4880090068588176 -0.14109648506441508 0.6368367991292194
Ni 2.817103337181487 8.535221798272522 7.903250497716175 0.7720768254128574 -0.4444208378552217 1.0223102119159555
Ni 5.649289391756917 7.911415843759331 3.442106476719334 -0.35683852265886284 0.43681422915255735 0.8475824119503403
Ni 3.2102516436112323 8.040185790577857 3.568703351326443 0.00453696863840509 0.418802365956169 1.1349106464232068
Ni 3.4977483716152116 4.108294595022002 9.390020068501054 0.8484830693877388 1.0334178917933428 -0.8527788685496153
Ni 7.646747257475469 6.21882295848577 11.338455021376705 -1.1573324657618327 -0.45596277705655025 0.17203456940416822
Ni 0.6922822170483778 -0.047092905469821165 0.2757089903028917 0.1655870140066116 -0.18268536424979506 0.8538654167455747
Ni 4.369208373728537 0.36647012650534033 1.67890053503325 0.1854305310951 -0.03260621607079546 -0.4338865139828012
Ni 6.13504721551051 5.7595936665285 0.33317205756960705 -0.376837334378293 -0.43547982661185003 -0.7114358146920329
Ni 7.729090006254552 8.839533534122786 11.938145860268275 -1.0713331787818776 -0.30978630636606647 -0.9863052545762561
Ni 0.0702738539888713 5.025438089326125 5.756870977555764 -0.17050116347877733 -1.2174960226256064 -0.31185553019026935
Ni 7.71994786606628 9.021832162877006 2.627385789107818 1.3875485286027394 -0.7368424276905956 -0.2314720467351949
P 8.64188010046902 1.601742867152615 3.524393901038944 -0.046711288013609874 1.2082495643266742 -0.09414505601554109
P 2.0556029656659787 3.4557108519995 1.4914286158391603 -1.8247877611078573 -0.6316742810916735 0.08598154636814224
P 4.724609073547583 1.0195663009967293 8.529489821487813 -0.2763514237463886 -0.42797091982931457 -1.1828889740746984
P 8.582138753822054 1.5789872821006579 12.662349383474034 0.1387099871101095 1.4831917664303618 -0.5137696607626894
P 6.393185701659892 7.970658363312691 1.408411090046182 -1.6211885295235307 -1.0283646456401514 -1.3867165196197473
P 1.5942513911650036 3.183351258890585 5.915245858900635 0.19213879635321104 0.4919080848029076 0.13818548206520717
P 6.946330530967905 4.153941808878718 5.836091068728871 -0.4497970145654705 0.2576389349385498 0.15822106055984364
P 2.31695208438148 8.247280660676058 10.218891120320645 0.6280335990152925 1.4592216287680095 0.3688879976242292
