# total energy = -340873.5704874006 ev
CRYSTAL
PRIMVEC
9.14275653294613 0.00000000000000 0.00000000000000
0.00000000000000 9.14275653294613 0.00000000000000
0.00000000000000 0.00000000000000 13.38134834995840
PRIMCOORD
 96 1
Ni 0.2668496356276964 6.482890962862686 9.812676500974247 0.1335415555352926 -0.3130490362777383 0.4622354974391394
Ni 5.998955715546772 6.216471036793166 0.19481477099114394 0.8847448799332506 -0.15667505622896244 -0.43330313067550535
Ni 1.6187890477038764 9.028216102804421 11.716628125689388 1.7892021506937639 0.8323308851079084 -0.9791704433036877
Ni 5.202676475975777 1.279528780145137 0.36124402569992553 1.5599993596087198 -0.9455746096261135 1.1087717832443098
Ni 7.271801140648778 6.583049860944072 4.200271047001381 -1.0461996169390435 -0.498920768675315 -0.4475627259183131
Ni 6.5630546523540225 3.5313348635825528 0.5128446435489901 0.38257860773744434 0.5960022816113607 0.9062488154432974
Ni 1.7629246048241916 7.373002312977656 0.2558316997009161 1.995863309032866 -1.2960038863245227 0.06772928502617367
Ni 4.868280154905335 3.0907728533728087 2.7776599552912904 -0.3992347282368866 -1.2401757236113091 -0.32171622503443303
Ni 8.995658746705121 7.903455905655332 12.571750146460912 -2.853292274759983 -0.320952350285215 -3.1524157020955643
Ni 7.834510378459373 1.0927422636866508 13.356459227609085 0.5181140537743142 -0.6537613427986999 2.5186531710162945
Ni 6.1525540257035285 2.499821640557796 11.839576258764628 1.5566276149230096 -0.1861720372468149 -0.6760993441742679
Ni 5.165849452564383 3.2868484104931563 5.444068105970647 -0.6990708653687767 -0.003722700267225847 -0.2642878077136352
Ni 0.5745710501675816 4.128091726811229 11.226576374236876 -0.5664042562392697 0.3350759341707907 -0.5657303701006966
Ni 6.121989790533646 8.183781964447972 5.452618411902707 0.5400095682958248 1.301092870811656 -0.5612854469554657
Ni 8.677527389549494 6.395001644080726 6.188940368248879 -0.8370578582699326 0.47648815070341166 0.1949454125640707
Ni 5.168601422288025 8.957771163533122 7.525121325123499 -0.6121349255071652 1.385510415126788 1.3612294310922364
Ni 4.181448854077589 6.606455317729864 7.865302268267524 0.7490034885331617 0.12259148428169209 0.17386853728911347
Ni 8.150584615389688 7.939935504317562 8.06127176941181 1.9222839929838185 -0.4903898483861683 -0.4353846957948824
Ni 8.668146921322062 1.9463008730869356 3.074993369831169 -1.1636967174169635 2.021625248488318 -0.6726059863090287
Ni 6.648767995075428 1.5538846189060893 4.359402553426405 -0.2189985968585325 0.8365657491248625 -0.9548359803233814
Ni 8.367258803032842 4.662449276538722 3.5196696204915403 -0.5475290166013215 -0.7084232531179541 -0.8154287100359312
Ni 1.1823138496750887 8.717563520512376 8.997524783318395 -0.18727838293711616 0.9964310301563485 0.60180346167417
Ni 5.095047945787363 0.3459427083262142 3.001236009859287 -0.9592387373767673 0.2116701815179193 -0.2162986814288662
Ni 6.635657282172761 0.12732477063905126 11.695164590396294 -0.40063597945978746 -1.8661676096062245 -1.311873763477244
P 4.467662848092905 7.479286857952198 3.788300265096531 -0.49506642792623134 -0.2687273315422275 0.26538849697698164
P 0.21208452385156656 5.31303869037472 7.966478755153698 0.34892620979032163 -0.20165290649123338 0.24637724598180152
P 0.12926943495871449 1.7897128815360548 7.125594749168314 -0.058428062229905826 -1.627300041737907 -2.5691614641784914
P 3.6719047456456577 4.899822665026812 1.4951378366494077 -0.1251610447810812 0.0881808680123062 0.18512765514270052
P 5.689162552371081 1.1902771906361922 9.931516793528447 1.2334880271784885 0.12969030011000243 -0.44563799809177446
P 6.653659369833395 1.7608126280595362 1.9882277261057963 0.3111559330200835 0.5460246641416532 1.4104362318341903
P 8.42362389720644 8.478242724877656 10.24676726809298 -0.40299676638248016 -0.21439760775141142 0.9016331710481569
P 8.518507424754466 2.957005182188075 12.671722532308536 -1.3619691374717382 1.964081902856211 -1.140287594464404
Ni 5.491797866576204 4.773387484600752 11.543755056159268 0.08586199007114245 0.554566125953761 2.1551524058459077
Ni 0.7693437644785636 2.4258293117424 8.935783748289314 1.108394602410549 0.1598357133451312 2.3050142958077786
Ni 4.455009273018086 4.887077662386424 9.49966051611223 0.21353345997890325 -0.4774016636566165 -0.33646201588503993
Ni 3.8934611652902245 3.2310867382523187 0.00032639640908311104 0.8302714314757185 0.36395713598151513 -0.1757207600065038
Ni 8.638999813418508 3.2229405421600763 5.437765089600285 -0.5326263884578762 -0.5363683719988117 -0.2137116374279803
Ni 3.1857752367560748 1.6943265023773966 8.888814665029294 -1.0732121409721451 -0.6702626828878328 -1.1369215062056486
Ni 1.3454846259469735 3.628028656928855 6.943527723644525 0.09573734020332544 0.8468506759906383 0.15657992541199486
Ni 2.9456224502746724 0.575789779616623 1.2354058370012968 -0.12042892941273453 -1.0163095142478302 -0.6425050531585902
Ni 2.8473286745309037 1.7089274845988456 6.509985521919207 0.7516041593808024 -0.951844244684909 -0.5598327736693391
Ni 5.237940088015933 5.996898595321458 5.19205716423488 -0.41226996415429 -0.5766452172409875 1.2004012719268489
Ni 6.16064536525643 8.273481549028208 9.244223783494576 1.1167550585601025 -0.9551406560479938 4.636089550368667
Ni 3.9859218623506583 9.04994843514029 10.28555998416412 0.13203771729625646 -0.5916928556027293 1.942059632948849
Ni 4.632598176380282 7.601379229013707 1.5712915131148664 0.9621286573300526 0.027579709390481533 -0.22820417461720052
Ni 8.031820207714908 3.41566985038058 7.982495950365819 -1.5938721010967647 1.7120099204824772 0.10007659100862765
Ni 1.03450290441888 5.229391610635185 4.967664661506348 0.7272486133545732 -0.8018448007039094 0.1978494735847431
Ni 2.6267962436207157 7.288696954766021 2.3933076123936736 -1.1486285102299314 -0.2508936457949163 1.6094630135564862
Ni 8.808058524913069 1.4309145432151134 11.107884194338896 0.6110357789057155 -2.7253693509630485e-05 -0.6152644722750823
Ni 3.652138105969532 8.417662819931307 6.07727348248926 -1.10597647988736 0.5953888163970779 -0.8727779373793615
Ni 3.077552427391459 5.322346016549695 6.26495964619295 0.8076230979485833 -1.1994386509032633 0.3951734136833194
Ni 8.357485196273464 5.3159735152295005 12.906966572794513 0.3192294540568373 -0.04201002588319862 0.4524822747071175
Ni 7.964767231126238 1.0435450906537034 8.838942756562444 -0.9342892665202813 -0.01303137926266143 0.3386669939561587
Ni 7.252025358216095 6.592631469815755 11.15880020560455 -0.4889122353993773 1.2385824109822603 0.7848742342878418
Ni 3.9689437634244022 8.342993927130697 12.715157940159294 0.867470666233835 0.12014636517530922 -0.12347517243822606
Ni 2.727284280938152 6.795079528256297 10.390924767829032 1.311532063867109 0.4383106111924258 -0.8340625230870347
P 5.162667773282565 1.0886005949663524 5.942282510477206 -2.550920772800749 1.3672121310382326 -2.2375007263368367
P 1.2589027213526582 3.984203024117952 3.1741227935242424 -0.9181231982833802 0.06717161275049076 1.2914756594368664
P 2.945229311742723 1.1561655659222123 3.2559093223044377 -0.31904330618796023 1.0473684404361638 1.599697192418974
P 6.96185255061162 4.613864668195091 5.412661822921868 0.20279370496389587 -0.08672665206428289 0.02824074001324814
P 5.01079744411507 6.924403819754352 11.23895475233933 -0.05846097235037029 0.3098518694966793 -0.3974321278105091
P 3.5643310719965853 1.262011258582021 12.4563356447886 -1.8149394075588678 0.012055645612953431 -1.0425831032323787
P 1.8084189614515742 2.412736884352848 10.783024682633007 1.1217031465939973 -0.6500491840544352 0.25387201169694984
P 8.390655117062078 8.457260098579457 5.143361928536909 0.45950190055806023 0.41454564756234413 0.002149442242835008
Ni 1.9036041999659796 4.611752691430435 13.345753973956553 -1.2235067475960606 -0.41928753312270367 1.1336220095187703
Ni 3.679063524029749 5.99482318958303 12.83510816335951 0.6074100092276701 0.5015746613583942 0.7193632970692257
Ni 1.7504721703936257 6.951228667492443 7.23854710649984 -0.2384633904513635 -1.0481636826439495 1.3015844657360938
Ni 6.783660225316667 5.818852554131415 9.036357727518386 1.3174592279848214 -0.5109388761821135 0.2134298445215034
Ni 8.58905293434789 7.4837028093692055 1.3302006798107202 -1.4641846292002396 -0.34213129835567535 1.2337402523986107
Ni 1.2636843830319429 1.917144622426822 13.093997200853071 0.9639232873366301 0.128001856663986 -0.0921748196630477
Ni 3.0550886745310333 4.331792342900073 11.383619675064292 -0.6978328791966175 0.3316589380694417 -0.5940670122618608
Ni 0.9500055483195491 5.671462175676826 1.9070290765722129 -0.26401887032296467 0.23226857449456126 0.20418184356067415
Ni 2.3057574898799773 7.174302784725464 4.844288647424243 -0.13116508488331602 -0.12116169381370101 -0.9087988355586607
Ni 5.541863601482062 4.656085917975085 7.441715614157069 0.313200474253938 -0.20412167974670004 -1.6309294109603782
Ni 0.008362879422642064 3.54813010737767 1.1993879475451927 -0.8678393624271634 0.04140607375061256 1.049470317270515
Ni 1.0791104136602385 8.948701549028627 6.454787957757933 -0.9551306287456649 -0.10164264994416689 0.8347983728117946
Ni 2.5096866748827447 3.3377278507325823 4.816977405037322 0.020720263266486894 -1.8557433289491072 -0.6751408369157404
Ni 3.471349237812405 5.169405984865037 3.957922170395 -0.33563566332900263 0.6284295489021307 -2.464868006875039
Ni 5.646109311744405 2.269287033974304 8.056213996484507 -1.2074854324671398 0.9386447152754996 1.0985675890177984
Ni 2.3007381165302117 2.860969667313873 1.8274907516293717 0.9722377207395966 -0.49818851849498075 -0.03870410143841721
Ni 2.1393593205434893 4.5956797254033175 9.246779183952244 -1.0924591621272153 0.26432534581978995 -1.3219841124383682
Ni 5.508117687030359 5.353824527375274 2.592448735787566 0.6661355480933366 0.7564648299072133 -0.025458292172104543
Ni 4.157915398699999 2.4739384967450704 10.721537816236207 -0.17382328587347484 0.24403574233281844 0.7778085856903121
Ni 0.22199252913233317 7.132840383739697 3.67884044076976 1.2970377269056759 0.5464884911519492 0.016176352649546335
Ni 0.8644942605180524 0.21623167822579906 2.756557558882194 1.5758432686195118 -1.4098183957445334 0.1557198914045447
Ni 7.634558292558879 8.839939317027152 3.143920611514014 -0.5094612631953227 0.3316563669662804 -0.24584888428215723
Ni 7.075076447812887 1.3925698222152654 6.560165541282026 3.2547162973387045 -0.5290756949921404 0.6076007850822375
Ni 0.9277886498861608 1.2833778806556129 4.818556359094708 0.8416405925446085 1.083188792568883 0.0539186043953265
P 3.489543323360735 3.5122265023785277 7.649567955998424 0.7952013272454627 0.9797412282054933 0.135014026315761
P 7.591898190464151 5.4633638936840905 1.6486090624900243 -0.16235256622971395 -0.17485532668241502 -0.26404972356090006
P 6.607250737550318 3.888368649888003 10.043250421410931 0.3252908297595688 -0.803665398852416 -1.7664376033037386
P 6.3708464812572645 7.135007217043693 7.40794135716004 -1.3205134414301127 -1.5686009852348017 -1.8109665389540488
P 3.2034024713978746 8.318171343078578 8.517161610989282 -1.1101565794069785 0.4791237885540458 -1.3164084181228037
P 0.8108354222853136 0.011237362084147108 0.7248733965855594 -0.6136853007134205 1.131215714070123 -1.3474493465890085
P 6.215255050171091 8.409123485307116 0.36430593487084806 0.9957864545938142 -0.028933395204898554 -0.14667732158630223
P 1.3747048759029852 6.166414444643865 11.848420961457823 -1.2227930093584876 -0.30893835654347435 0.6407412763899482
