# total energy = -340886.8833078347 ev
CRYSTAL
PRIMVEC
9.11694789004088 0.00000000000000 0.00000000000000

0.00000000000000 9.11694789004088 0.00000000000000

0.00000000000000 0.00000000000000 13.34357479229330

PRIMCOORD
 96 1
Ni 6.51667594961893 1.998881744181135 11.462651267254113 -1.1456732842563493 0.3234740882658042 1.7210733162363263
Ni 4.916925074351707 0.5829422171312703 5.8206407269458165 -0.9610930169766869 0.25049692457712985 0.4723646154533413
Ni 2.968733561358157 1.997377447752007 4.677803937367129 0.5236576093003626 -1.8280816013677805 -0.5642126479045896
Ni 3.5626115576817856 4.560890018895299 4.877263615226642 -0.0823308369894324 0.1350433368917997 -0.35602811094242554
Ni 3.724227695858466 3.045088001321473 2.6096297411863296 -0.7300110065910589 -0.8324283299177212 0.18453810118781766
Ni 5.429753402463528 4.623815194373128 2.6752535332885325 0.1690042672182767 0.4095919031014947 -0.005470793306584127
Ni 5.123050152934465 4.802215633919653 11.222000306385851 -0.45402570793483743 -0.9973771961197018 0.9705582761546445
Ni 5.762467304794423 8.000349842245805 12.316680464641527 -0.9115864256061268 -0.23100950527647957 0.7611146699743989
Ni 2.033599082375799 6.918952165611927 -0.020606125994637153 0.07125143924681922 -0.21963391644968627 0.9788505980704237
Ni 2.8374130415693095 1.2674381186507642 0.23595299753535343 0.8225010435016803 -0.28985974264546854 0.1437202958405073
Ni 8.228902613044655 -0.08584974136293282 6.782405811197769 -1.0714079978838709 1.5964658299658698 -0.24622529378496952
Ni 8.7490518504449 2.4612751156509196 1.2512099511122923 0.4031939699949508 -0.2663007243786059 -0.13211613594267568
Ni 7.087670406323703 1.0331690214212286 4.897785865299171 0.6576213399747385 -0.30955207886807334 -1.5559730120581459
Ni 0.8142410126843822 7.037299268318053 2.053042797493382 0.34705033292384746 0.6065510036614845 -0.03238484408860874
Ni 7.807426104447152 3.8266292564158344 3.8896392195105767 0.7520846985616466 0.5313917447198268 -0.02964199123614895
Ni 7.756462364817906 4.200415009735952 12.227971648368447 -0.37958378677517857 -0.9853593457232191 1.244885727492469
Ni 8.195990430564944 7.629745903796995 8.64942548887557 0.5269020843795893 -0.07352146622791854 2.4316478113693285
Ni 7.080221859762505 0.6637047014793338 0.32249289186607405 -0.6453795464929079 0.6507220417517439 -0.2389007350990982
Ni 1.6466758069079634 6.391682591780476 9.485280050314703 1.042211578825573 2.145346732609396 -1.009828277398861
Ni 0.06290055971807809 4.747504828639671 0.7120701109128132 0.6456243155138623 1.0665943785453116 1.3016495146460745
Ni 6.519885115334404 2.2512115155082624 6.890101583490863 0.07248222633012678 -0.897822281942499 1.741253390728627
Ni 3.325443270970658 4.632385125545129 0.3624652389198247 0.8381438922452598 -0.24870100901897166 -0.6956888362704212
Ni 6.614801661538354 5.831546420209593 4.63167491529162 -0.7726861768620822 0.3153010655367086 0.04048433326729157
Ni 5.146362189111921 2.7031842153508148 9.598420463986434 0.16477197430448398 1.2786720799142945 -0.207214716849727
P 0.23278759317054587 5.880440612630281 12.199256908773407 0.5242253088783746 -0.20928214090171698 -0.5443002252513787
P 4.128828733605569 6.341375272411214 12.271018230306451 0.30306235737867165 0.9952478084815246 1.0594773078845559
P 2.7490151132249148 8.36118041237931 1.5717800786334992 -1.4265441931396463 1.217927196625754 0.044738223447639086
P 6.560437300284473 7.981833320745448 5.390577876669813 1.3044952116249855 0.40442578551952285 1.0854991858696144
P 4.8542004717310965 1.0410734153851922 12.633843588674461 0.07860916516347106 -0.38615578356574143 0.9106816544036703
P 4.342156201152031 6.329960853445951 7.703312381044994 0.1623325116250559 0.028080046065667767 0.7559069005212142
P 5.023401910689803 1.3650715153751998 3.7692526555244754 -0.6229091333045336 -0.8339730486970219 -1.2364517377925026
P 0.2970174039150898 5.747816369269521 3.688710801319351 -0.39946869862456363 -2.729339648464706 -1.4692389037946954
Ni 0.5761081528690013 0.31893363534527663 4.700260803816996 0.27532426803345483 0.8326892968885917 -0.09444561797509542
Ni 1.941189696887062 6.787376371277531 4.528048948610421 1.1788698256129764 0.0875378351116686 -0.46341666223143424
Ni 6.071778001467308 5.660330135730659 9.402270238271003 -0.04242320216121726 0.8970491512219003 -3.0800116373015407
Ni 8.589569078113165 2.4241326692735408 10.643862720879737 1.679048120844476 0.700633067649574 -1.7675514051932075
Ni 2.4939229066370254 5.7969931870799245 6.65646884923559 0.8138086579340049 -0.16824579178569735 1.8304393029666797
Ni 0.2517098188593652 0.46507557758766016 9.557082398113996 0.7468031384477332 -0.3359799340422988 -0.8758732884752335
Ni 1.5977907314353308 1.2323743364299984 11.515318052780094 0.858051172692148 -0.6536237887795711 -1.1629243580273134
Ni 4.168286884789 6.673551274806845 1.4341141629981478 0.2985981509597309 1.20027965874732 0.7441063083418604
Ni 5.9755121469511705 8.16719910860624 7.473936349836749 -0.5157360404604409 0.05225304376744549 1.5667752448799728
Ni 5.442562714481254 3.0555086729487053 4.9407923326657315 -0.00703222425643305 1.0830466105640637 -0.5500098740416464
Ni 0.748131287250831 7.576357055985033 6.578942881447164 0.5368964765881399 -1.3417682370438313 1.151382933046617
Ni 5.406888096740782 4.481882547047886 7.33776561368247 -0.7756367748499738 0.3475478413855563 0.11921691138250437
Ni 0.8143002728467418 8.015183116731814 11.368285384712705 -0.45266199481809133 -1.4559205894192344 -0.25634952670316496
Ni 4.863600045176132 0.40457095181852043 10.612532328887626 0.023746451687320393 -0.2217550765577471 -1.7463865981901343
Ni 8.58460945837107 7.44288493645513 4.488165035952807 -1.6042223339828372 0.5156686775576151 0.397511832008509
Ni 7.543271651492272 6.370540389240186 6.977262341984151 -0.257649219351195 -1.1096912097347857 -1.7044261945979484
Ni 2.7113621177564378 5.227794769142052 2.5775380840315987 -1.1099233803502497 0.16897649930413478 0.6048232223371003
Ni 2.3471673937905186 5.506089608530734 11.47883749683153 -0.32846819904628594 -1.3288828964407307 -0.6548481481049754
Ni 1.2548202625421996 3.547723581507446 3.8147143170023354 -0.6724249806464743 0.29450804005075726 -0.5764251308103815
Ni 1.8266717123641716 1.326652696270076 2.400949182063664 -0.8991551418213095 -0.2536508968250793 0.6609154373449779
Ni 1.3500832527722515 3.4899950664211516 7.984181846564498 -0.5090326602983362 0.16372167866309867 1.2823564707444173
Ni 3.824577943103387 2.7783534520669386 6.854047700711289 -0.5125730693514269 0.23059941432225448 0.45136435905259037
Ni 4.400267628056649 7.306996825690567 5.649362447220106 -0.3252514918812011 -0.3555699403590844 1.0819878302822463
Ni 0.6292800173172463 8.9695543561109 0.21449170181312716 1.609198961261822 1.9570028845222427 0.8788290286694478
P 0.5162973268468717 5.571403424399055 7.979177553776933 -1.4415270397017237 1.051297857397557 -0.4298514246814791
P 8.472106319368406 1.7526329772069074 7.98809119389062 0.8100139667782631 0.47260809892271505 -0.5135171784322511
P 1.9682123309230342 3.5037616579846866 10.350077275050259 0.4729384856789403 -1.042472031575811 -0.6527226171215403
P 4.411818801242742 6.37064979261685 3.799556479165558 -0.7131201443729912 -1.4809942445584108 -1.9601344881726888
P 6.965020104135466 3.8694789122758446 10.253750336982149 0.07412104748513042 0.22966250433028187 -0.31336039687057005
P 6.313787387595811 7.857970464465853 9.864504974844625 0.4410321238886469 0.16398933050218853 0.6675116025052569
P 2.3341028072272434 8.676827387950645 5.675182555807583 1.7099656363589388 0.26783721562779034 0.11306606128976011
P 6.765614216269478 3.819919182647118 1.0856115300250475 2.2115307846356362 1.603632522917638 -0.23768717440697132
Ni 5.066616244472026 2.718208945745984 0.7185258218307862 -0.6587929916853363 -0.7157429267078189 -1.027797974503404
Ni 1.5635018897992674 1.2144777673974028 6.875143406816497 -0.42387798070686356 -0.16403895279320135 0.5257432881847978
Ni 6.937286348151178 0.9759054706857556 9.287608205968837 -0.7185577704487947 -0.8994392487206316 -0.751019490521926
Ni 2.7175434085379457 1.4766356087281662 9.211189947369135 0.013139879816067693 0.6918026138421376 -0.06575107825388031
Ni 6.731498596646466 2.184384286262757 2.5707468694251903 -1.1819860026444549 -0.97543591596192 -0.31003287515923383
Ni 4.085659984563622 6.976224833295456 9.808555176323923 0.10289811961782278 0.5028144473027663 -0.09583067124808012
Ni 8.280012223842785 7.393771937281115 -0.017028635577729084 -0.9744583825399992 -1.4336741193162081 0.05910451947164015
Ni 7.713959152983998 4.202648662009506 8.120485690160384 1.3220823285791297 -0.9692624401613565 0.8057420788757865
Ni 3.1576276081163592 8.284980960532936 11.696070664924893 0.6129612780632024 0.2786620741574362 1.3549518256136408
Ni 9.22790131315454 4.794675917877903 10.105823296310534 -0.4075291070351949 -0.7021597887067456 0.3948222009914878
Ni 8.859503676135116 2.908279078803322 5.980710630732315 -0.9051933775955895 -2.0768247764785976 0.3481921598377745
Ni 3.7934891502347416 2.829818623839227 11.693081217657552 -0.07336745714855751 -0.42897313584158375 -0.08608259072238077
Ni 1.5442924802467055 3.295785838946698 12.503757503652304 -1.480119041042309 0.7868095036373417 0.4411064287700081
Ni 3.488618407264798 8.540000231536382 7.657703936703443 -0.8292460755349977 -0.13138002910759955 0.8239210637776584
Ni 6.063126017762809 7.846027262513382 3.2771289164462885 -0.8986987710101811 0.18866472176168153 0.9638975763050173
Ni 3.4657439845939972 8.647479932160564 3.782436674107276 0.24407379465960544 0.40686807641242834 -0.7108570593704273
Ni 3.5502672100148804 4.473157627758943 9.135091693646174 -0.39933602970144133 0.4840973305092372 -0.0926882689643565
Ni 7.433248322360655 6.247060444778914 11.148783919943178 0.14227302187101948 1.6322566144122341 0.36404635326121176
Ni 8.178358253025953 -0.24687692469523936 2.301446810987888 0.9195262492784937 0.30140990937691314 0.8155431241266082
Ni 4.826120271720706 0.16122593279991257 1.7605647220150369 -0.084415487432603 0.837068914013526 -0.9835834847697189
Ni 5.912650790109731 5.805727223316922 0.20169788860709478 1.3246660301459057 -0.6540081687021833 -0.37994374121775853
Ni 7.7534628889077055 8.897621635954415 11.413453480463183 0.05071809518015781 0.5080839232318217 -0.9169690300742789
Ni 0.41769206345973886 5.124928244233861 5.898353592169376 -0.7679278362414904 -0.08865883608998924 -1.4017173639039537
Ni 7.569218485657717 6.103678202712878 2.2707828678986206 0.3204381296529578 -0.8344625867389306 0.05813495646951923
P 8.716531696731568 1.6806364384140353 3.4199185568887303 0.15460583240475956 1.0724585506355724 -0.19084938811782615
P 1.8104070770334784 3.3230910983723847 1.288514679165056 0.6131692803089505 -0.3258698421914904 1.6168947872441832
P 4.662553106660187 1.3049908276906323 8.165080329878183 0.8488324823073575 -1.4995653226923786 -1.082275536725994
P 8.875540387764426 1.6213671591063916 12.53116487289621 -0.9453907757500815 -0.7089942951300758 1.0429055195688037
P 6.58772432581405 7.800488106977053 1.2357922802559385 -1.0042587537308836 -0.21864738416670085 -1.0787312710181616
P 1.857733154388651 3.2280104471034394 5.932793775143157 0.6583145093870211 1.267010070195334 -0.40513592421267
P 7.036861654811397 4.226416545589728 6.034765015752314 0.8969717610167455 0.4207818582800431 -1.270448920673554
P 2.255587650574816 8.540000231536382 9.791008698096652 0.1488506750885372 0.25942842273880484 -0.8004034402716925
