# total energy = -340873.12128609343 ev
CRYSTAL
PRIMVEC
9.23937000888859 0.00000000000000 0.00000000000000
0.00000000000000 9.23937000888859 0.00000000000000
0.00000000000000 0.00000000000000 13.52275193784423
PRIMCOORD
 96 1
Ni 8.847703892578657 7.455090605827164 4.246522565227242 0.09743889627546445 -1.1265342494340536 1.6981131078957272
Ni 7.853390608338808 6.912674909627968 11.921198810936856 0.007868604114799352 -0.6786375372150892 -0.32795654951719
Ni 4.061996638850805 5.524644350410071 12.65518637709539 -1.3270455861216757 -0.39710354082649674 -0.6568309828629592
Ni 5.32290270586156 5.723651141430468 1.1160114944298931 -0.5061417119037864 0.4463260252977346 1.433137530086448
Ni 1.2349064797536213 0.7470344805742419 1.238754677370038 0.3026106145532337 -0.9682684516792034 0.8655048007567159
Ni 4.087395667056157 8.532197884882638 4.983647821447086 0.6396716974748532 -0.44025307963077726 1.232871476640412
Ni -0.09261267334375584 0.537221322369785 5.658812014389109 -0.6137503496234011 -0.6577079861512737 -1.161037939637878
Ni 8.59873982782005 7.855783605175907 9.787632396963161 0.3959159482762988 -0.1627477447856036 -0.16998617151557177
Ni 1.5699999519077497 5.680752746393201 11.983429663819477 1.0308501310661666 0.7858959906841368 -0.7628974729064345
Ni 6.739261173583499 3.044862110643252 7.861154450972841 -0.6881336496309826 0.4236902901760896 -0.6449738264140569
Ni 4.770748713653473 8.105089526625529 0.756193468082414 -1.3730583054063643 1.246605281286737 -0.6987481919220353
Ni 6.447250883867186 1.9231748712055208 4.3998305081550635 0.1600874243446211 -2.447271633949514 -0.3968703417697681
Ni 2.3337447571135663 1.0172176825377997 5.285435212526404 -0.2014724150493111 -0.5854152501241338 0.498527132781322
Ni 2.2392629592132653 7.8738558129495235 0.38636088856222445 1.2627854905910252 0.15513445121471992 0.05046149908466148
Ni 0.656730725800336 4.8717165493130175 9.422829730485894 -1.2514566958417672 0.21118964233707496 0.7979518934074064
Ni 1.2146537806535371 3.242824852850552 2.236067985057787 -0.749820070897186 1.0938187614789034 -1.2446844101149401
Ni 2.1669464100087223 2.860767662847096 9.617434885625233 -0.3031664870567036 0.045916817136772536 0.024730412867144506
Ni 6.144356616258584 1.004827687331042 1.8821372852917737 -0.42850648061781044 -0.42733714290005753 -0.07515437384565121
Ni 7.583536327948226 4.72612255642108 1.711804879151445 0.65160624412891 -0.42913948621611897 -0.7973744236373816
Ni 3.8573353533736325 1.5933108824869067 1.1327985058326955 0.08844363475538962 -0.601059384419294 -1.6791926168421403
Ni 8.087340696802872 0.009833461520173123 3.1739795349653073 -0.16712993301369927 1.1885230324320242 -0.8420424559687175
Ni 1.9982077951981223 7.450193739712636 4.197340474634332 -0.16231374257197853 -0.6944593347386944 0.49198650344932693
Ni 0.8569672769713818 2.9749755157559186 4.630000770340914 0.6340880327394887 -0.013583652221705638 -0.14920831553827207
Ni 7.483316881260904 5.788557715873028 8.595940298701745 0.7441528453090798 -1.6733433571502148 0.5998579079120249
P 0.37207035494082846 1.3368721673761248 9.662520239547987 2.1660353713069984 0.9583545349996011 1.1699776653296687
P 7.218313270134711 1.038689978481502 6.6785899263615045 0.8959806007480698 -0.41267208468871514 -1.2761788811787955
P 1.0781420884985453 7.928996373273109 6.034581813088912 -0.2544368830614844 -0.3502192175701323 0.8702104337625014
P 7.0492050805230155 2.45640663359747 0.2917562070405589 1.0764843839655138 1.6105981556021938 1.3046067975021853
P 8.983559589461702 0.12821843361838814 -0.40781101001786096 0.44976898954101246 -1.212450489781899 0.47455390979517625
P 4.720846876135429 3.8587489769878265 7.875677816718928 -0.4331840885991379 0.1560281666735829 0.09669327635869154
P 7.779854462290647 7.065845185942382 2.4301742142156453 0.004405071046231123 0.17078784148126072 -1.2199380564081956
P 5.55319400379477 6.913072202539147 12.628059586694913 1.7212064993800806 1.3727204624509715 -0.7262165725456331
Ni 2.822553628413725 2.0353223445982307 3.1295298497004373 -0.7134564446664874 0.669355340582215 0.05205943969940066
Ni 6.3520299363646915 5.720445080030957 3.4170368704653904 0.015351799865721948 -0.2685632951605375 1.0727884231711653
Ni 0.2611914470528818 5.366281548140253 2.971732496876297 -1.3590524780455755 0.5854268200883596 0.15077257470159838
Ni 5.106876995250673 6.144107153267844 7.816799931219254 0.5177695259507019 -0.6221771402345155 -0.3862799678484315
Ni 4.932927375744613 1.3229576761148445 8.786664918429572 -0.4817954218489379 0.3283005631201701 1.3609101000796047
Ni 7.882254400304439 3.0171809580411297 9.772581463188509 1.6386812869916552 0.23711587528453357 0.27491417707922977
Ni 5.785508723763982 1.3626407703825731 12.668735913240587 -0.8473150172215665 -2.15939138362792 0.4787813176129625
Ni 8.19393530880911 7.529375140847545 6.8349265347843104 -1.0769479538654936 1.1191978636736402 -0.10400909329381441
Ni 0.6283002602889907 1.8576030621209876 7.419068149964295 -0.10651566176575204 2.331685634451378 0.5564031791624998
Ni 5.457631199601262 8.595561484530622 10.858350651644683 1.6325088396323562 0.08429515980465482 0.35964488175940645
Ni 8.17112330421143 2.3262331492812813 2.1945259295405433 0.04001510694035689 0.19288827292472588 0.5214631727522052
Ni 2.9727765456893946 6.4098499139962275 6.638724816504236 0.4629379228228027 0.4119362349639551 -0.46579081889056556
Ni 3.9034398098104113 1.9148963956609606 11.236013597263103 0.8137086420210308 0.7804434522099979 0.4256618120801637
Ni 5.722015772935617 4.447001187893006 5.62131310719586 -1.6527516490417922 -0.9415698593420945 1.0014624219326689
Ni 6.706405973766026 8.612247786800124 5.102093773387482 -0.13338780356624771 0.22125782520635442 -0.13272985826727465
Ni 8.094843065265131 2.8529511558039062 5.910240219134026 0.4894951044860409 1.3867327175696633 -0.14104969098687967
Ni 4.209429266378196 2.81350828515689 4.751543759114498 -0.4101588313485582 0.9171325522353366 0.6191136708178434
Ni 3.3871530520487334 7.62187971356198 11.356217801319715 -0.6338532910208632 -0.13849350022392923 1.1078374443554984
Ni 4.949549002423924 3.5318323473079567 -0.03144342407728382 -0.004309426008631287 -0.9550761213586454 1.0292442200316276
Ni 0.36173149988015596 2.374453421454338 0.1270625884279591 -2.155030278445747 1.6602962941582695 -0.509929975301625
Ni 4.067383191576785 7.852531346926258 9.145789068087993 -0.19835083870119388 0.03473997458434662 -1.8728825597325551
Ni 7.678646403010391 5.507671627669717 5.6034765033579435 1.4745274058871445 0.08319704164446963 0.057641304662552344
Ni 0.8176962586068756 6.6046805097642345 7.77420273964488 0.5667582971445787 -0.577815840510321 1.1511499911002046
Ni 0.56679100220551 3.5829075848194822 11.404737429081658 -1.4071009968133703 0.724696536356681 0.24214212485453135
P 1.593320121856934 7.0376373892486965 9.9086884709363 0.13922652173521186 0.34272728006846137 -0.6312119967432742
P 6.595570490917209 7.61741709783874 9.049317109883786 -0.9251695636072003 0.45003381316662494 1.237039749085489
P 3.4202854329670282 3.789573813592603 1.7373896186943478 0.03568074123106113 -0.24342947620738722 -0.5852789816565855
P 7.749577046710822 4.854060113190636 10.929534454083864 0.5761381956975821 0.800394441410628 -1.0012055687268564
P 8.810912721129508 4.488606071126436 7.380406930021597 0.7586626088894804 -0.31444437396336816 -0.43466967200572887
P 5.818243811771098 6.733135471255324 5.831578994531659 -0.22288970438282257 0.22667076869180963 -0.4894884196178216
P 9.246484342331726 5.11401902828186 13.270471136826767 -0.8540302244582131 -1.2644057998032676 0.7813289401387448
P 3.3234475957097374 6.943857783470479 2.2465749966529582 0.516154358944782 -0.8362903839762889 -0.10233042003981085
Ni 5.219107622973628 1.6087683485427646 6.429392105541204 -0.8371774145669324 0.32308456613686937 -0.23300828087406325
Ni 6.785430305610469 4.9567834291553865 12.955350410860891 0.7261420105539559 0.6128417217662026 0.18753986412861898
Ni 7.116135077001578 8.13091356585214 0.25138755151679637 0.037061166518355525 1.1021776749665597 1.2208127457036653
Ni 0.8744869704173576 5.421126448622962 5.53543039098007 -0.2862177750175071 0.45417714591103714 -0.24615227445518897
Ni 2.8955076941501594 8.968517895057078 2.7453891817558 0.6290514987568456 0.1704847084185451 -1.0484351911377814
Ni 4.104784161447744 6.1866821703541515 4.408984875978222 2.1983065726358784 0.5686835391917496 0.5937206846660356
Ni 2.9597490339507453 2.2331002994049824 7.376160515557001 1.21110091773254 0.4225281515471885 -0.07117070660755484
Ni 2.3848939095853114 5.178934842094448 3.582380016790917 -0.2793930387861898 -2.359810674822368 -1.6510506071902855
Ni 2.3187307808190245 3.541653797647094 12.996216144492129 1.0624672437508154 -0.544314880539398 1.5297089361552945
Ni 0.8664505663675159 8.959527988020408 8.155287947921453 0.9548375229852781 -0.5266886828172025 0.12384515418313512
Ni 6.155092764230435 3.4554689540314074 11.322140232847616 -0.6854869560367549 -1.8554905895083527 1.2816319338735669
Ni 7.859747294917667 0.8307579560146259 8.690788899592134 -1.9208012377907049 -1.361928256931474 0.2677143168966809
Ni 2.0924955663278477 5.482235641984256 0.9351600655133577 0.08066399080997076 -0.12965584732764124 0.9003761587126041
Ni 8.283437086264636 1.6316450287306334 11.73336703796461 -0.6830382373859463 -0.35788984674151264 -0.21024013393961213
Ni 1.9096484334853916 4.421343457326886 7.552091979933939 -0.7478277230575056 -1.674390824578123 -1.62697376874674
Ni 2.713381232169841 0.3641383557722964 9.959898603250226 -0.8451336932995316 -0.40610163056004905 -0.708047100725458
Ni 0.9568845962588084 7.919045571753588 11.820846317321138 -0.5769105550872322 1.467192305678312 0.0668247709340333
Ni 1.6238192823174165 1.5291896544966768 11.784808154529221 -0.92426170708095 -1.6179414833411427 -0.13146976060792842
Ni 3.166322869023592 5.389675633049657 9.140298110480702 -0.0011395129210819085 0.37189001767534663 1.144366649629784
Ni 5.312212754739845 5.110794488142295 10.245715743237165 -0.5026853779240698 1.5793417686910736 -0.8941800572042213
Ni 5.560520824226506 7.870769863360367 2.9380743958034428 0.036916927631007394 0.7072675422469562 0.2590934079968893
Ni 9.325942924567459 7.110074050263597 0.5560798005327329 -0.9007687661653326 -0.08233803607828401 0.609181499305796
Ni 5.864496098128316 8.755679767105647 7.480881383321678 -0.47266877695732146 -0.7525199863268524 -0.981398304192942
Ni 5.457187709839946 3.412459686553811 2.83018996774138 -0.8496974014108141 0.46554090766328854 -1.8715630695901835
P 3.645698343525765 0.13364748744649463 7.095117358063224 -0.2724538884641953 -0.3615603536145644 0.7097828524696421
P 2.792756660075326 4.170245098091947 5.511833039930063 -0.7105858079869117 0.6569358838719395 0.5522379920412167
P 3.194891001148346 0.2645943070339771 12.796702112057227 0.6763947639274995 0.47896180905488484 -0.1267276179372527
P 0.9996998369658292 0.6747918463299182 3.4547519789172805 -0.8954272993477612 0.42416825825377275 0.23576398924232947
P 6.231834971678107 1.4956322625571215 10.563689586667506 0.06241018680610542 -0.6567973014115464 -1.1333700414089642
P 4.537205157470615 0.8859474849993577 3.692968808460003 2.0017153969382684 0.2262226254107975 -0.9152584751410753
P 3.1160329779643963 4.237156615830456 11.173322623753116 0.747022710657707 -0.6533772199864037 -1.8192565468769828
P 7.284910649292288 3.758917583841655 3.9664532373343544 1.6022996630388275 1.455054127653881 -0.4176942204936549
