# total energy = -381175.06635009724 ev
CRYSTAL
PRIMVEC
9.20593777860172 0.00000000000000 0.00000000000000

0.00000000000000 9.20593777860172 0.00000000000000

0.00000000000000 0.00000000000000 13.47382048943465

PRIMCOORD
 96 1
Ni 0.9260344761369431 7.05659057823609 8.98511116048211 -0.20585871704246483 0.19093911961815502 -0.3828483164590632
Ni 0.5665775926966918 0.46622090437754155 3.8931799934083755 -0.9217777643168318 -0.5353815826055102 -0.3994303891874605
Ni 2.213742625505011 8.011596140219709 1.0579969896638493 -1.7195627931290711 0.07316356866786755 -0.4116148470687943
Ni 1.7894501642443061 3.7097535265263146 11.954323410760399 -0.1382844695369167 -0.3356282071298349 0.2223294610039784
Ni 3.4413544137650085 2.4239970359442315 0.4831938916592435 -0.15865609121473323 0.6784074234821541 -1.3161279107679076
Ni 2.6255978649738956 5.9082603251879044 10.413591905727024 0.49783627736188457 -0.3668429421697424 0.5479439926515531
Ni 4.969052152245561 1.329447870762675 2.0851817059470745 0.23741335192029434 -0.9674912071935465 -1.3749403529204256
Ni 2.713247597527502 2.3857555708641267 6.739457072638706 -0.36375941814841223 -0.20307575498068897 0.10742608939516338
Ni 9.007936362340466 7.738566440810522 2.329812008238876 0.4964530238611127 -1.8910407186988205 0.9561212747937081
Ni 0.44459615679131925 2.1013289206198005 10.893448644980987 -1.292418997186742 0.39422699060965005 0.9753631537424557
Ni 0.4785771139178683 1.2923203241406085 6.282154880675611 0.44115965060544665 0.4678435876545362 -0.5660139627793865
Ni 3.4228044493604797 8.196294867687726 9.3748279610428 -0.727653819212792 -0.7701179019142737 0.7262813643452976
Ni 6.7911281595914295 4.444433382260016 8.056320426606845 -1.0605661700733606 -1.6456443485730496 -0.24042102839836663
Ni 5.620943010515279 4.014700211836494 0.5386200805874547 -0.019037990468057535 -0.14387507625081675 -0.019248049596334593
Ni 5.529739786021152 7.028613733657746 10.963176258079143 -1.3238437913549266 -0.624219624585841 0.06605806797133784
Ni 0.3599567658557182 5.228908154849347 10.86518089277228 -0.14074938613764149 0.3915558715353902 0.9563233635021853
Ni 3.9571262776499316 4.457045516867561 11.807230018079505 1.2911105627879635 -0.5920193857042126 0.4419512932688066
Ni 0.8172239752556694 4.2018937484130126 3.7061632108351157 -1.4298999969857569 1.009964545866409 -1.0424656038179079
Ni 0.8375433208803222 2.409341183174004 2.2219543219064204 -1.2930977684213212 1.7482599039534474 0.27186896249500275
Ni 5.497657093242104 2.3730145531292046 10.537942029394822 0.12396831002456069 1.4530813201982267 0.6309525724343005
Ni 6.13932936069841 8.764660253479882 12.667870115979442 2.033173872557866 -0.05545792385798836 0.8549856463929469
Ni 0.965353035924408 6.820274158253831 4.42970664376973 -0.4203761382011922 -0.438800920565283 -0.7102353666260285
Ni 3.429506371984051 6.454393371507634 4.296639417722456 0.19262550618164245 -0.7278877896004691 0.49194639424001074
Ni 7.791859613980654 3.9072669192306133 2.3755830097390622 2.1539856392313164 0.6788041446999405 -1.3212971136736729
P 3.6942967571788192 4.976711492386786 0.9172253143807677 -1.2667226208619022 -0.6328461899125876 -0.3089185590491325
Ni 6.39763876577368 7.877778630252349 6.0278776762996875 0.3428008136188741 0.5035166155761135 0.3051516358075326
P 2.344153938534566 7.9155413865736275 3.168894561897579 -0.06676974932638177 1.3995190707010543 0.5693353138431356
Ni 2.232421473036916 9.153721591278488 5.353930311967036 1.7680046906805422 0.32552685702977485 -1.0272089347691535
P 5.582167601050329 2.615213567282428 8.456950866275013 0.515784377199873 0.1860859052909118 -1.757526673967354
P 4.133650132467221 1.9170996959729383 3.8533505040802396 -0.2542512494132395 -0.5759461342914338 2.2669408859748246
P 5.058340541704381 5.961562704295706 6.836293410392948 0.2585280224117225 0.07436838760924612 -0.56019067122939
Ni 3.8808550840561256 1.4628787313479046 9.181518920072271 -2.0419619031631413 -0.07691763639366107 -1.3756396929802954
Ni 2.119455411891521 0.4653030723918683 10.83444686986185 1.299175084963653 0.1152170461944919 -1.7404558345279961
Ni 5.991905474855173 3.1687389815509603 3.1079254778984167 -1.4311379831579158 -1.5119719238868476 1.8558700843349585
Ni 1.2788704492051166 7.553066796765235 11.413982740422469 -1.1253428002291135 0.4559162400893309 -1.0376183030279356
Ni 0.23608166857167975 4.590402729951434 8.658883109060788 -0.1613506073277608 -0.4737219008121842 0.270115984359638
Ni 4.8885186095106645 -0.000840502109247377 10.914414247430058 -0.9371372774920377 2.6717880753024823 -0.8788048602997316
Ni 8.925524808320942 5.669172917967053 1.1396573391695222 1.6319493675844605 0.8178550600892366 -0.5337049662340357
Ni 1.6820260775760956 4.030994721511936 0.6490379381858653 -1.613703276890079 0.15707563410149078 0.8303747898228022
Ni 1.6832964969745199 0.9793184433694055 12.920908201145018 -1.0964104334654796 0.5494388320295247 1.9477489700241422
Ni 4.152595952191548 4.145792764253609 7.524710667554898 0.7919740785574166 -1.7986306430965155 -0.5165708776569105
Ni 7.946519366832308 6.209340516676792 7.6603923799003795 1.1518837839424354 1.7260782256500853 -0.4034490234285504
Ni 4.044306507382382 8.510392255041628 7.239214287353349 1.0923007821724802 0.8602695204997056 -1.5044553037948283
Ni 1.8613117136943065 4.759119949624782 5.547414265753289 1.403165666314706 -0.19970606717750766 1.0275886867060753
Ni 7.589954989007889 1.7316829053666798 7.213142151278875 -0.8712082788993964 0.6319817850297632 -0.8379795987532536
Ni 7.476022304407171 1.6148043207116447 9.534748907272709 0.5492354577694669 -0.5007560221118408 0.49530656896149533
Ni 7.405587675295981 6.049092759659605 10.132407586729983 1.0533814793994634 0.465571760901224 -1.810984793786494
Ni 5.360976536659456 2.035405200966783 12.77461020147879 -0.9575050425151123 -1.13450132679993 0.8340841203535893
Ni 0.5842474694599933 2.166921226516707 8.577097558802807 -0.5216225811482049 -0.2175675208389608 -1.793366052263466
Ni 7.423226251871204 2.158875236993353 12.013433815944039 1.2589854001186447 -0.9110902026959986 0.5298506254849521
Ni 2.0962012133377548 5.782083743486431 2.2521755740886467 -0.08265222488459313 0.5628790166948306 0.10398235382093704
Ni 5.843183551800503 0.3587148848640701 8.257982935418896 -0.4768596751102175 0.7655598502299461 0.6052842211339189
Ni 0.17239775355371062 7.992650320495381 6.309062915890497 -0.7320984852477068 0.09902706669819074 0.24160862094856453
Ni 6.32964371014497 3.5564010168237647 5.638766626437665 0.5863544741089514 0.10099421772689057 0.36769140621296675
Ni 4.032771467482196 9.159235947942664 0.17426932068196901 -0.20471920412138292 0.20311432152810827 -0.5623509121055025
Ni 7.219112201857701 0.5864044206560137 3.2253094685315205 -0.2968639418774436 -0.03549407914155177 -0.5035708658528165
P 3.43559149678375 7.854367930758197 11.822738340677951 -0.1260619593287958 -0.8371812712216743 0.07951727880003726
Ni 7.8089366283580235 4.322804533767394 13.21191617622944 0.5045322013248215 -0.7956502418574233 -0.8066496782917204
P 7.927776077736714 0.5217879441520997 5.259735157730243 -0.7175514406714674 -0.6901668780109275 0.715737013170548
Ni 3.2034361606282147 6.081497660257095 8.191206745937661 0.12098763012968197 -0.2369523531234758 0.6615810959534348
P 8.16168974798717 5.8831004975365015 3.1960842988051597 0.6172218531117692 -0.5860852796079649 0.3205450875444673
P 6.920784585732067 8.657871376510885 10.23717944275554 0.3897856670088448 -0.43714461590878256 -0.45884292681782274
P 0.9606395958375005 5.863372173110246 7.106389177466788 -1.242370417269783 0.05308762385359889 -0.09419313564465713
Ni 2.0957685342672767 3.3120478132558224 9.741545567523177 1.6764099118906806 0.9245010767852659 -0.5203668543642329
Ni 3.1111190176760495 3.5108040075455365 2.5830931301589333 -0.15623462625743414 -0.09466596151601761 0.09865939894612685
Ni 5.655980809286315 5.809434584303231 4.767994473538412 0.26215096387629044 -0.038078552039276355 0.772313881124328
Ni 7.604251810208996 6.706304649902434 12.389527669941048 0.7674205575877686 0.2379795088364095 1.0527045079370967
Ni 2.4809725841822603 7.20566232692221 6.452531930910813 -0.941626937832275 -0.742931571307469 -1.5375207188902293
Ni 9.280689883619559 0.13984924032857343 9.593346541728147 1.396691628554588 -1.0107160793204528 -0.17390478984368762
Ni 8.299226456773104 2.590293094010438 4.3686703564255795 -0.06580944229564151 -0.3676824073519023 -0.026766212350250677
Ni 2.5136904866605208 0.9851365959766819 2.0291709399768347 0.7301935549155101 -1.2885733981884067 1.0238819272784494
Ni 8.454263653069216 9.131111808361602 11.740009181808821 0.22003192321905332 0.07207444936874684 0.5486800994866293
Ni 4.388360015913622 7.519170534265248 2.130305530029078 -0.13744346169286006 -0.7285159101027712 0.08028346754210045
Ni 6.579050973493601 6.376317814130559 1.419924746774659 0.6617111937733958 0.596025164429496 -0.11947299325736843
Ni 4.708505704316544 8.640251211811 4.195559142702463 -0.34025902103362693 1.139890101915669 0.7167518275883076
Ni 7.861585385891274 8.514682221995729 8.070494808836946 -0.07891949731503826 -0.08609030403186464 0.048946347991715704
Ni 5.652519376722491 7.27145716344785 8.388907939770423 0.6824594820643408 -1.4211343349779848 1.2372734623628499
Ni 4.9837540347041385 5.081244914626698 2.6161580964873425 -0.5890124805570888 1.1162133271240195 0.42108267734991356
Ni 1.951134047537972 0.15480704785436905 7.656593089424078 -0.4735889747787456 0.02230149171067772 1.7464709303738242
Ni 8.944185243977506 3.685900942024015 6.406990157258603 0.31090396491027744 -0.15000895706269649 0.5731462029487936
Ni 4.755741370499987 6.383415592073929 13.231493523277912 0.4625617704303066 1.1589412050098493 -0.4117524010879231
Ni 2.0441784595660466 2.2976547473647027 4.381632316664575 0.23034024712359683 -0.07906219354048964 0.7596257441336982
Ni 7.161022735161634 1.6894920930262556 1.0827793738707927 -0.2682740460548928 0.43870707529989605 -0.6030375911915872
Ni 5.182270874614438 1.2333010577398973 6.115080000282544 -0.3575530322273842 0.4886358418095391 -0.6615983223446155
Ni 7.611690207846148 3.758158346793814 10.361502869204095 0.08891311819264042 0.9137268689878973 0.24602294796617633
Ni 0.041288630448789554 0.46340849041943555 1.582769498808479 -0.048661469761445225 1.2684979675947703 -3.0908382956033997
Ni 4.087178559110367 3.916178266894923 4.782465286961478 -0.09204266496055762 -0.15231703637058286 0.7394299859121136
Ni 8.12785792705087 5.653532029866164 5.413807571758567 -0.027441641150720477 -0.006453726045143725 -1.0279566115684555
P 5.963385479954315 8.698395914133085 1.2968864692248 1.2016641977996725 -0.07010447012656958 0.8206935579792963
Ni 4.973332913261991 5.0046607191521195 9.683149543102704 0.3486714134670382 -0.22727446371407956 0.14907950326989167
P 0.29992668749886936 7.9505975972200025 13.27195546052396 -0.5581127056544388 -0.509955943443554 1.695787545086344
Ni 2.2372177665628517 6.17419224665372 12.994960763760416 0.06070734518238576 -0.9662298239826198 0.19438825450902006
P 9.012217123356894 2.4293456857303513 0.09381218722973134 1.1645061006921362 0.06757604727776104 0.011189440957916214
P 3.502205661761998 2.141135395103762 11.394917243508434 -0.8094976892634768 0.370443257926491 0.649516708589733
P 6.205722583172584 4.9941935680216245 11.837694307016212 -0.30678531475621357 -0.15446159351741143 -0.3658705509541441
Ni 6.8574201167512365 7.481674750136392 3.6266938744948414 -0.3780064149857296 0.4174396812806876 -0.02758408026585572
