# total energy = -340893.141348154 ev
CRYSTAL
PRIMVEC
9.04153125384272 0.00000000000000 0.00000000000000
0.00000000000000 9.04153125384272 0.00000000000000
0.00000000000000 0.00000000000000 13.23319492198729
PRIMCOORD
 96 1
Ni 6.280347102768789 2.046876106493296 11.515235502792443 0.6000970205060245 -0.839012153782826 0.4516379244289512
Ni 4.568866600113048 0.5761164292051438 6.15495733829541 1.029095096048273 -0.9398320507153815 0.22892408350236057
Ni 2.8039235228383164 1.4774856724275178 4.956202184697475 -0.7049165255162764 0.5198330933479498 -1.3599737043082643
Ni 3.7550293256280174 3.951194388867257 4.995716388968975 -1.044077428389718 1.2691978218752722 -0.4631130149480863
Ni 5.281945049711552 4.6646525827806595 2.686841117329918 0.35686011992541766 -1.5371545938000624 -1.1549526526757463
Ni 7.424742761842066 6.077961465990252 2.5131560133795663 0.18914937470758392 -0.09057250817293434 0.11010183645511362
Ni 5.03796836892027 4.568287942109393 11.560214408585965 0.29149727824889154 -0.5203498850833683 -0.6186768403907409
Ni 5.641562915920876 7.786819924566928 12.311212136333392 -0.2265211304878228 0.41286440320517925 0.41838738990593755
Ni 1.9593721665030048 6.730832358614653 0.26664379977822744 -0.18778206204641207 -1.3966738879427751 -0.01975687091195307
Ni 2.7741316771813613 1.5582084639374705 0.3218224570393094 -0.5223771999260423 -0.5885219140739154 0.3810179481185438
Ni 0.48894702587321576 -0.03639939673619708 4.776230504029285 0.5935746460064745 0.5080250449694282 -0.3878977059575126
Ni 8.669598875268736 2.1209985801490525 1.2577891198083717 -0.3485922234896706 0.9330055147118513 0.8533946477567432
Ni 7.048416145777186 0.6900496693592729 4.856714599112729 -0.7201261433771792 -0.4236933754998832 -0.23427892005637072
Ni 0.7777353441288375 7.304698350677456 2.4136286450570688 -0.5554202464239402 0.36625261688391114 0.46916924844449526
Ni 8.008373607716555 3.834450136629745 3.8223028393186316 -1.3331218742227429 0.15826348376200486 -1.0798941809780112
Ni 7.530221266070909 3.998996964887992 12.59293359371937 0.5537685697531302 -1.4810155847146493 1.1020462915950182
Ni 7.8854449480649755 8.86070068097599 7.076649231436794 -0.16981982114103655 -0.37377360785130465 -0.5663523199554118
Ni 6.697306360527859 0.6290238538018775 0.42728016574614575 0.2631074142522888 0.11415389503730018 -1.4342886129717556
Ni 1.656806362841596 6.524902441563727 9.079308633225757 0.36990666869673067 0.0021448142571446932 -0.14682104625301812
Ni 0.2364260979967072 4.784498080256514 1.5113371656413688 -0.2764532394315755 -0.5981787204373892 -0.8383747773091432
Ni 6.39166643622203 2.1540001694200344 7.014109863538587 0.049947535562720434 -1.105059110279413 0.777072735965552
Ni 3.6498943995888453 4.416290759305426 0.451432808326851 -1.3807361336665962 0.8395276599666639 -0.04192723636140521
Ni 6.3042800361387314 5.611725862607386 4.712194762699749 -0.34439515468918747 -0.7049921159492181 1.2399024153452647
Ni 5.064930215278097 2.842268657111805 9.59994170556477 0.8974749259054092 1.7684721172352642 -0.7479385376037571
P 0.22452111372462444 5.425479359212055 12.410275674099834 1.5206054311921298 0.16320822936178989 1.4941341243744783
P 4.07207966244343 6.298755660510082 12.504654794496059 -1.172257205392465 -0.045477158496192646 0.339353478500222
P 2.2325801180102003 8.5849611007028 1.3115997933826866 1.4537546921161673 0.4376104998016076 0.6564954539004114
P 6.238204525346309 7.870110510968102 5.854444866393847 -0.1058515458191919 0.39967207288462137 -0.4073887248025887
P 4.701352158356253 1.0968914535856775 12.691798217797055 -0.014400491696046167 -0.7597846383090657 -1.5840756838316332
P 3.7720274044854 6.09701197245435 8.351919247874347 0.5143371032303852 1.198976366554864 -0.5966859379419466
P 4.71410071749929 0.8828585161773105 3.853969898568683 0.15309042420149765 -0.5281562685016645 -0.7679615176929032
P 0.4007857665568968 5.488272794139992 3.618088100756664 -0.1831849295940329 1.022739071923258 -0.8302516339813765
Ni 1.4690770483118976 1.2274511656604665 2.6811910644160997 0.3714351895261152 -1.1831347715369172 -0.7254275009854344
Ni 1.9791821615969012 6.630625067137861 4.763010881105147 0.20848432759076996 -0.6935800174575345 -0.25926310080553416
Ni 5.788379301285865 5.6218885437965875 9.30109649203624 -0.29085553089983457 0.5512319193742055 1.0658009361097387
Ni 8.486905693677102 2.188231406948785 10.222285676036948 0.9822048592546375 0.7582306635583844 0.16553276372990847
Ni 2.5143413581339296 5.124984066219977 6.860299853707543 -0.9078135888272558 0.7818202779528663 -0.02862743392870554
Ni 0.2639801646551504 -0.2713535334361054 9.079506642761384 0.920220704242357 0.9141503296785611 0.3311508880847716
Ni 1.414086454902004 1.2045308837969217 11.487525017642387 -0.7278646496720175 -0.19190662573774692 0.13223903467378517
Ni 4.017188525877914 6.766935193123977 1.719296002317614 0.8526600835835637 0.46137674898326997 -0.4289970471009838
Ni 5.547558114920768 8.054286503694103 8.00412408800221 0.09459114241402418 -0.15060673854769546 0.6151711412303277
Ni 5.5374858490446375 2.6618991490661013 4.7050628028046955 0.9930585141396896 0.6822594502383927 0.4740507449065127
Ni 0.8247467861601994 7.360611180280675 6.720160639212862 -0.5452690169225511 -0.030199406401515735 1.085084724040015
Ni 5.143103294959442 4.79269874915207 7.18119193717535 -0.28641137908555186 -0.4912131156184121 -0.7116553869020066
Ni 7.947261897611743 6.904547299618319 9.174441817332996 0.30743066164969635 0.23667390265110855 1.1534115334408717
Ni 4.331065285204528 0.33353395254141976 10.2277512817121 1.5645656388231635 0.3754515097743598 0.36356067187404484
Ni 8.16266733947253 7.142827815686116 4.858329416604181 -0.05639586229122546 0.3455488086776565 -0.983215559907339
Ni 7.286995032378118 6.445409298311541 7.035415327910681 -0.7025048307509902 -1.6734320602092791 -0.5749472607132743
Ni 2.3934922506829857 5.3138526136943725 2.7197785117286193 0.930973828993803 -0.19781913456743994 -0.7160519733078055
Ni 2.489639894602882 5.307170922058411 11.341629060164463 -0.6731896267266406 -1.3140028940051047 0.3455943172036112
Ni 1.4957857317931254 3.3282961725259526 3.681713356564856 -1.0207549516136936 0.3938212705307992 1.0321061149604547
Ni 3.802506406521696 2.6419264064086767 2.682567185481043 1.0864939456827158 -0.40698531871658294 0.9756953402708938
Ni 0.9739447108714822 3.400239637136693 8.049897744397628 -0.8193900086765242 -0.028254881080635213 0.21750787124561896
Ni 3.6255003481222396 2.8183628483357843 7.143199422622838 -0.09570777251697066 -0.46943150096694636 -0.12107299075463664
Ni 4.120497062593049 6.88888736739439 6.034707684370128 0.72171534224117 0.3267980104327146 -0.08233469364417433
Ni 0.9374711735785668 7.218071439223955 11.3177955836389 -0.7859088461999433 0.6059660776922918 -0.045028500994548255
P 0.04179267016089318 5.557096930449777 7.952501465004218 1.6737434208021111 -0.11170543349680763 -0.3374248940189415
P 8.654825013112905 1.5645013697272248 7.97910074595663 -0.9738829696525034 1.0022980304600868 0.6962578214000138
P 1.6555495899899066 3.150422127121013 10.388984388746291 -0.20015806711326173 0.1605373673978461 0.43335480984904723
P 4.228452946400042 5.846444015340179 3.96617349378376 -1.8418179771172667 1.8568555881766795 0.6970983150234382
P 6.901898130945333 3.8172169779583776 10.417316931250276 -0.1785114353777635 1.0856393109919045 0.16760301599537586
P 6.330283480178004 7.819062025208112 10.250313518935885 -1.4932236967450672 -0.1622090986733142 -0.9087325010970994
P 2.4634737030000813 8.496580132175719 5.77957104148647 0.4253082853954868 -0.050620907480661205 -0.08917794181825286
P 6.999420087623911 3.7535826806188783 1.593157599052006 0.8982552557148595 1.0750718198887033 -0.17260972518134787
Ni 5.245191224948115 2.862440313457986 0.5913794382046904 0.5898509172979841 -0.12206389391299621 -0.20755667357017804
Ni 1.4443665432495432 0.9984743853076944 6.950735962300732 -0.4919091132441721 0.8789079615364992 -0.027232353353391806
Ni 6.839611021770595 0.8359040357931834 9.256302033481385 -0.8386205747713621 -0.6514951724723425 -0.27017614817361213
Ni 2.4666111143636518 1.4287970263386853 9.132598514596783 -0.3216478336903428 1.6683158220286365 -0.2874896997513952
Ni 6.380129442274147 1.8856384786934546 2.559829302140042 0.7425039968517472 -0.04632510831878473 0.6617826704412796
Ni 3.9179667613135973 7.029944297316743 10.312682001892389 0.5406194339656818 -0.07759357941476314 0.14176985698235584
Ni 7.993798659249482 7.084835433882258 0.25451548968285886 0.05801282906935815 -0.20457805055782832 0.7651870402715596
Ni 7.401062991348724 4.176238103101433 8.30995659692488 0.573832687492857 -0.5546993090975156 -0.18678267424762027
Ni 3.114518206300446 8.49924738391132 12.21188368169965 0.19659323258013886 -0.17131877428406625 0.5920016450923997
Ni 0.0652237985432904 4.821279029613871 10.264459898819004 0.46496858009958636 -1.0261912921379166 -0.6750935286175728
Ni 8.583776660101568 2.6689605850169604 5.8004271417526 0.8550182994030953 -1.0489105881123033 1.300842959584379
Ni 3.6120013418807124 2.5512488889295866 11.307778471103743 -0.8987432510948715 0.2544674791891037 1.0769083588768098
Ni 1.1476144442186118 3.328278089463338 12.901663913425972 -0.17403154522953898 0.6382874155328169 -1.3660600197116604
Ni 3.123912357328542 8.437204396081873 7.967786173678902 -0.10781021220745948 -0.8053592416150711 0.20752813432508774
Ni 5.72664372552086 7.691892887373492 3.6102798343198366 -0.6314107430176416 0.7918951456903652 0.21325809483032948
Ni 3.0952597446162837 8.270180188245474 3.443740252561501 0.3751013255237927 0.8619561641735091 0.00412867745639289
Ni 3.0666161734353334 4.21000822253352 9.085634088528218 0.4099731977003132 -0.24359042726528374 0.8355241952342256
Ni 7.441406304041085 6.014842535935259 11.518292444527379 -1.9504368012689504 0.8992039927813739 -1.7894073247260345
Ni 0.3481052843959717 -0.1493389725996739 0.32308827142230595 1.072009636023612 0.09600293515988627 -0.10280993077939068
Ni 4.682563856300061 0.36983389243323855 1.5031455382771197 -1.5334583758953977 -1.118553288111106 1.562702874582812
Ni 5.838487467789915 5.564881688905206 0.4166726412166345 0.8868177033018791 0.5590915246279403 0.47686533153717225
Ni 7.918021585364523 8.633170545632355 11.391465076576168 0.5285311353425801 0.31240908870089423 -0.05216896869407145
Ni 9.244604100276234 5.121340329103209 5.677067201057669 -0.18015899828351553 -1.064467819120612 1.4116207390605946
Ni 7.886041689131245 8.925799706387242 2.277869148327556 0.8827779860148668 -0.5287573924207731 1.7792861771316324
P 8.629626265359965 1.7272489332553553 3.731986078938696 0.05186892095514938 -0.8332922205799133 -0.8730018804647094
P 2.1929330032284864 3.2120944121668673 1.558354032591515 -2.0299491949729815 1.0814849225038987 0.009834726702234675
P 4.675104592971689 1.3368265698826776 8.299317427035795 0.0360149846420283 -2.2664060965172776 -1.3252465852397242
P 8.355975278818722 1.4067356899493166 12.505011934982688 0.33453985916166257 1.4598636332273827 -1.5432648204628583
P 6.220889992893178 7.703999497793724 1.4442707030176878 0.03497625896486879 -0.5137930578014571 -0.1379422557061495
P 1.7831617628585752 3.3052312261614936 5.931899144336278 0.2451534008770294 -0.932927096065432 -0.13011761745540815
P 6.867856765574032 3.99981974423694 6.126400565815007 0.21355120059071608 1.0614915101011073 -1.341427822985277
P 2.189632844301388 8.626588310840773 10.133292595840373 0.08774686579868113 -0.9933835015792761 0.26885562958997566
