# total energy = -340853.1859170162 ev
CRYSTAL
PRIMVEC
9.38070889230913 0.00000000000000 0.00000000000000

0.00000000000000 9.38070889230913 0.00000000000000

0.00000000000000 0.00000000000000 13.72961568048075

PRIMCOORD
 96 1
Ni 2.431207739066648 4.489429106536825 10.274901662507876 1.400376019384711 4.511667183525823 0.966780040059135
Ni 6.7897102897227875 3.0459725051081143 9.190123975268657 -0.6265991805616111 -0.8158267168052982 0.9938951511083722
Ni 4.698628298533328 6.774466637554979 7.88350471447813 0.3827629558341086 1.3160381792675786 0.91608765591059
Ni 8.513940893019006 4.972338626503998 2.317682398429831 -0.19639268653355854 -1.5005652247118029 1.44058755860659
Ni 5.329321508501526 4.12995095593829 1.4996451723547075 -0.1069344944707255 0.8611835476735425 0.06543226146188086
Ni 3.255790823900355 9.143958691937309 8.401907085117378 2.8803217680739492 1.078754153836297 -0.18172402877779026
Ni 4.452018838939765 7.372927731308659 4.043083714212537 -0.6823571521585216 1.235855756079717 0.6654819736697378
Ni 1.979095086832964 2.5715243846827045 10.826117753321277 -0.6910153420541518 -3.540117489992187 0.5505770593990259
Ni -0.0834573539946763 4.000684785555268 10.136918937297574 0.07191272697990195 0.5747107192224361 0.09900752631416496
Ni 8.282537562757149 3.9620925486208876 7.744107378346656 2.1272592789800653 -0.28184612831237266 -1.7553965149982282
Ni 6.1971215198196 3.0488054792340704 4.9651511272480136 -1.629353067612194 -3.981831213328891 4.39479794643989
Ni 2.747196922619052 4.806675305098759 1.89865456886116 -0.6196320052151586 -0.2112660041009652 -0.42952180925620226
Ni 8.63504584654911 6.738416572766739 10.95210067554508 -0.38088270809226016 0.30918543955727396 -0.2418230509522158
Ni 4.339985031038136 6.202881275161775 10.647467778339967 -0.32806762117375754 -0.07672583209782916 -0.32551143041080716
Ni 2.09760158396277 5.580311759210391 8.097274187912268 -1.1109417943124351 -1.1211192490660693 1.5880943180727232
Ni 4.140279116576295 0.41970324061856773 10.689549639032148 -0.13543080213820546 -0.4748601281816853 -0.17646560859232835
Ni 7.194713021226172 3.968677806357381 0.27216344905222645 0.16502497085555448 -0.579407610477473 1.8819433843832425
Ni 2.807346028895971 6.1504618731225635 13.441321533443348 0.28557911299224364 -0.8580984809903156 -0.1271863027412261
Ni 2.2698595438135283 3.3767925896311684 13.632602633128629 0.44378448982280344 0.1548652567137333 -0.29019424316675185
Ni 3.9804974997305744 3.815237548813469 6.9839125421988735 -0.26777293804875824 -1.3660407364379508 -0.9357103152375241
Ni 0.850744006166375 4.916223225108407 4.114477476399336 -0.3233396195704689 -1.3281989829998286 -0.16985761635750746
Ni 6.715161795090431 1.7234801465741114 13.400915067383272 0.10290249049319695 0.1349834301881417 -0.14065271265877713
Ni 3.7804914025798904 3.0078962071701834 2.777625128487805 -0.18522407151124876 -0.22702609514869931 0.7830508079258578
Ni 9.437368508863303 7.4820629001211465 2.7048167553798343 -0.21916571856401607 -0.347601320331311 1.4565278839859304
P 6.309774454516967 7.581385847292079 5.654528176743215 -1.6173069350809375 -1.5304681829188223 -2.005562024377869
P 2.8068113284814693 1.2506267466831802 13.310985962231321 -1.0954526975379004 -0.3642654112505533 0.07370658565553113
P 0.9255326469498066 5.769905269341833 11.987122144037667 1.8092328440923937 0.27775678873434745 -1.0261722659745232
P 0.02266660722035545 6.317194595356805 0.965139876600837 4.780731586692496 0.04590627561381126 -0.41683752892031434
P 9.218375856643297 6.334051729477145 7.7643171778730125 0.5024272391666766 -0.12567372275144165 -0.3973182279404641
P 8.90598886535701 3.243417668694607 12.342759832360816 0.17976201995541302 -1.1063336061164626 0.12608047127155705
P 3.1924053730093473 8.020872065176304 11.375535562214328 1.0419454696483799 -2.2883805439058396 -5.047103016408037
P 4.291242866937252 4.878512774822504 8.759234239136173 -0.15614000966109884 -0.34560254473372737 1.2460069855811058
Ni 0.8836843659123826 9.187700938127152 5.1612642301527645 0.9527724129261333 -0.8326805551378433 2.3880287891277967
Ni 1.3461411259894165 7.279871097767325 9.90672759464192 0.9681676644352809 -1.3439341343468985 -0.10215892745895308
Ni 0.9038678994534649 0.7264327262910671 11.908533378027663 0.7106948227609502 -0.14278878516517343 1.7386030975899736
Ni 5.906460250638324 6.002518711068089 12.529908729719995 -0.39393542751116023 0.4943102664864971 1.6233243449196106
Ni 7.329016632356342 8.68477298509776 2.5434385418578302 0.89523678060351 1.822811096997461 -3.0860701847907945
Ni 3.222217266295069 6.1180984269816765 6.310763181248343 1.4867805122228845 -1.388005927855132 -3.4952067455224256
Ni 8.613170033099676 1.7392584991564222 10.753900364881966 -0.9674408135715855 0.9492937103489135 0.03489758320813345
Ni 7.345292162517048 2.358647954747876 1.9552071112973786 -0.4868550957600324 0.6714538749824565 0.30104172740421703
Ni 3.8437361428355024 1.728780247173996 4.728946750106471 0.8290362735170368 -0.9926000864460324 0.0349574899117914
Ni 4.723956212904456 1.1840987582683473 6.796393106833156 1.2383492119255317 0.2868772629783769 1.1733069868132182
Ni 6.2051514067461495 3.545804824158812 12.078766980870537 1.516423531900298 2.0764985034874304 -1.6788347192820894
Ni 7.503357109610948 6.522313178926847 0.8231440840690651 -5.599635399761221 1.7349228205249088 0.5976087068665321
Ni 4.786488019274067 5.301892315308495 3.5514810911906523 -0.49762930355740104 -2.070853903607143 0.15709748847836172
Ni 4.276017976187496 2.4254010801793413 12.170947456188811 -3.313144102458294 -0.24425171499836645 0.7484496729122208
Ni -0.006878873929018189 8.62021494557846 7.931668088832089 0.7877713533299787 -0.27400374944981837 0.6160563720487584
Ni 7.510758489032734 0.34265009667617663 9.04221552183758 -2.0491381091966065 -0.12819597495266308 -0.3286697735341307
Ni 6.5095647953600455 7.504726693128794 10.008025181062898 -0.411498118985272 -0.10819844878481366 -1.6843155398910024
Ni -0.11136871563166077 1.798797859346629 8.470102025526193 1.4219218638762867 0.6774234623023301 -1.2258978735360566
Ni 7.3634532151920515 5.610527022984245 8.804528054598974 -0.156698196157414 0.29977957286234175 -0.08695728001785023
Ni 2.0806881655882714 7.659705386953027 7.39726973316112 -2.325285901572621 0.3646181666042817 -0.9938205891166949
Ni 8.908718651683676 1.9149404178017964 5.345653322916391 -1.085820059544143 1.077464488490596 -0.20915769950871074
Ni 1.5945235395889579 9.540650115243352 9.7207737996127 -0.10304467249801608 2.033023720133247 0.4829529324921489
Ni 4.243579484374397 8.41286375326015 1.702802249667341 1.6583373706596858 0.6946449683869391 0.14430984979539016
Ni 7.118213339116335 7.538797428312476 7.4525455610988525 -0.32107679167822123 0.21656787592985283 3.5297752275259144
P 4.127755870026125 4.556022759914843 12.319707677999478 -1.0598969119204777 0.8067018716858946 -0.23348316362795274
P 7.331343048194874 2.2045322861540675 7.0225197882676955 -0.42623748207797557 -0.546400045203201 0.4102737596598676
P 5.715675390460537 1.8647630052198811 10.86826809318935 2.4913154024332904 -0.6919728208714148 -2.3311454456771914
P 5.196265531671859 6.422221013615755 0.8538959243992268 -1.0405259635930337 -0.02494844241522155 1.021255802509512
P 2.4688806665164464 8.536323264755865 3.568231285228092 -0.2368605647406179 2.0647033106247155 1.9542294355421634
P 3.1790097205197276 3.8569817039807006 4.840060310452616 0.6920368413401308 0.9135582046205171 0.15456700874702414
P 8.886476990582214 0.42729504843358806 1.300440187754873 -0.505161350268388 -0.3592517600860458 -0.8948007215073557
P 1.9883163238058605 3.3931806883001916 8.530416232281976 -0.9017452711459889 -1.2624625600339678 -0.75073564073292
Ni 8.044070558598454 0.12479157217745668 12.402991488877168 -0.18687960483680074 1.2935171153469274 -0.5143075355440304
Ni 9.428456835288275 2.485737800636787 0.7369728909530675 0.35614869568068985 0.29810835580750594 -0.26250346211970277
Ni 2.6799090967730854 0.9368936236516122 2.327155976475536 0.7540428507292819 0.48876645385013245 0.0997084090359315
Ni 3.741861642809405 8.529447205039554 6.010084252897836 0.21941280157781565 0.39481011680662975 -0.6081206621414494
Ni 1.5795706894009653 6.840150362157441 4.695487637151307 0.5660399309213155 1.6140161801448072 0.6935795032369022
Ni 4.154021855299889 2.45044757327968 9.32707763669877 -0.475802951710929 0.7025436544087256 -0.8546064086766572
Ni 1.4743378955434363 3.925104412930012 6.283729853976225 -0.3293511158718715 0.21376280238088993 1.0424766595615014
Ni 5.981383973631736 9.109259449248862 4.298316859614018 -0.6080604983274754 0.2863252471296488 2.8091572321139813
Ni 8.4960987844509 7.335573747965756 5.692023808792416 2.0732080056616167 -1.59758554539261 -1.3199133459522687
Ni 4.396644513557256 8.216215949940894 13.12835481433923 1.8201098960162139 -0.9888971836731486 0.6476752845056201
Ni 8.002044982160431 0.10894005006474028 6.373837192599677 -1.712273201446193 1.0617398786664878 -0.5508264564056706
Ni 5.344921627612336 0.9984357652189432 2.6675406319218506 0.03548842271459695 0.9517108044308383 -0.01793832964597556
Ni 9.053613083304587 7.835574919778927 13.136866869709737 2.10394682950637 -1.4943884064771296 0.9135247802794202
Ni 8.021153486447094 4.691377010455963 5.522325844434947 0.9195360194705067 0.16655760544999704 -1.3214457234363952
Ni 2.653680634335427 7.061600760142348 2.270960839053221 -1.0718844232996572 -3.158845516881308 -1.0214509492394537
Ni 4.538490214744606 1.7779914467261975 0.7908613120258043 -0.4610671881626511 0.2515742168017087 -1.1130205312183348
Ni 6.175264467788218 8.548077293165875 11.822860300560965 -0.13946871965300495 1.061196861678824 0.6761440813692742
Ni 6.966114522963191 6.792852827246614 3.4751990415302267 -0.4090247177441149 -2.3614063014442626 1.6137667831381624
Ni 9.883421223065968 0.6877795147480159 3.241081872147047 -1.438191804680904 0.8178157222108688 -1.8370845761973391
Ni 8.46130573467219 5.274828969767492 12.910301171092764 0.9319495626435111 0.6852463007808586 -1.9859622478690702
Ni 6.010998872027905 5.260495246375238 6.573080638106519 -0.2615963769244011 0.29960345229579366 -0.22191602761564364
Ni 1.341084923824217 8.711386056605498 1.1570992015487234 -0.6792643721658108 0.48820955290539797 0.9709282578995537
Ni 2.2590435863061535 8.448332214088756 12.971892092347032 -3.8928810712507276 1.3392295297823773 1.9807621917253693
Ni 1.616521302255735 2.3602426752823544 4.52927648233893 -0.08795178272063563 0.15799814591576017 -1.397945041345715
P 6.699186447618567 4.201582050063455 3.595924076344763 1.9840470331242281 4.018432923712325 -4.373727241812519
P 5.365099532728003 8.759790515181436 8.632372344476602 0.500786361129144 0.7900943450362007 -0.1766530420127861
P 9.054673103424564 8.856083493336858 10.2649749962162 -0.8057801312025735 -0.4158499681960644 0.922178085079044
P 6.817083198661661 5.463822114521249 10.78260908678619 0.5733302939351417 -1.1562867981061378 -0.25649685091430663
P 6.080706920802668 -0.14185601996727937 0.4556651267419608 -0.30587205891332486 0.158425720371482 0.7551522817433769
P 7.429652878790962 1.213366570430541 3.7168676816796133 0.8231055098548986 0.0903663056993992 1.6986116447987003
P 1.773376137885236 0.7056563319395202 7.071054638699097 -0.5427254245650911 -0.736403540380964 0.05565178503634932
P 1.058772485676389 3.4930383358856254 2.5114897230559072 0.17769382457247462 -0.5241438049081618 -0.635900403357879
