# total energy = -340856.39318691153 ev
CRYSTAL
PRIMVEC
9.39248723602251 0.00000000000000 0.00000000000000
0.00000000000000 9.39248723602251 0.00000000000000
0.00000000000000 0.00000000000000 13.74685447707974
PRIMCOORD
 96 1
Ni 6.583936462069545 6.276172825708637 4.144717802353131 0.3804502485405319 1.0338593502061357 -2.1011607821208003
Ni 0.1321203640014144 5.155320335546921 11.936627711200169 0.5179523313854693 -2.3479859142732984 0.5474976491427539
Ni 1.9399055734949542 7.321227942127485 9.601999095512712 0.05823291549996422 0.6621781061074854 -0.13911853540243782
Ni 3.9537112382673407 3.190937939750367 6.8982955031197015 0.35576842952313564 0.17605500341747096 0.28227601676093966
Ni 2.4932076168429784 4.941838488235691 5.97063051263028 -0.7782248472921243 -0.5672370365532101 0.30736252741592224
Ni 5.961646598381822 3.7219891803230687 2.8700821151292137 -1.0520265080334654 -0.278387737450127 -0.16760121622316296
Ni 8.339580216718456 1.5190469957167154 8.063767944173966 -2.807102663577798 -1.5195641344118087 2.816220052498034
Ni 0.5654878565690895 9.20962511443212 8.690816981253944 1.38738577777263 0.17397883761473262 0.04235635347902383
Ni 3.83636150003396 1.3470517654838303 11.979063908759978 0.6916460336596153 -0.595197269211562 0.7351231310066437
Ni 5.881622605285264 0.4956068106726453 10.329029283028635 0.26480819899347946 -0.10029616321860146 -0.16801130717738808
Ni 3.0469980695385406 3.888433450471439 13.072791834407191 0.24278695752738186 0.4996849005348491 0.06551787919715167
Ni 0.018302201050229342 8.406417157431497 6.540437034930097 1.9352217840914092 1.1787163307542472 1.1504462801649606
Ni 2.3309899660483 8.942700013515323 1.2221091403937294 -0.31582865590540443 -0.4509689233863846 -0.8323375699761277
Ni 2.072602636225961 1.6229372994304518 2.4721656272028123 -2.322317820083233 0.14265405935952205 -0.6438564249801622
Ni 6.558708240771733 2.7367642089775868 9.167997610041985 -0.7966262326174474 -0.10284386934111965 -0.2675070859818812
Ni 9.041828326090569 8.476616608652586 13.131477035260078 -2.0055321995811974 -0.785162454952222 1.6011015289656683
Ni 3.5840792870558422 8.46308203423332 10.818815569226876 0.2663606310822639 0.7557138106738017 0.48692451554538724
Ni 1.212814334810589 2.098469546670553 4.476636098696012 -1.1432456486514633 0.03050793878087004 0.842595243148394
Ni 4.696487930997628 5.980487928211835 12.898549921175633 0.919866406226732 -1.112889404957109 -1.7673614006695884
Ni 7.9299832313959415 3.6163988363804034 13.373421876547813 -0.44577426655932256 -0.3227060997515281 -0.34988574549011353
Ni 3.523131435975612 6.805683698339104 0.7343488137390259 -2.6603140132246117 -0.34195106402406916 0.6065864848851101
Ni 0.06299259559867246 7.296206355553632 11.344097004757417 -0.4291603121517254 1.6189773808048247 -1.4389371674873606
Ni 2.470505974669929 1.4296493001424142 6.4643757322898105 1.627202596928094 -0.6334126039390189 -0.3473089859018728
Ni 3.5963928381062638 2.732725439372948 4.088781782577632 0.8920851223484056 0.31775312662162697 0.6575794309932095
P 2.846928694309692 0.49428716618554824 9.138070327271613 -0.47607111777065103 -1.1844948851092376 0.15661412108403996
P 9.381451279890856 9.213119119764503 4.549178036287791 1.0929389299771113 2.013881342876841 2.3817429561190853
P 1.4857600201845318 3.347041081213372 7.288775019481096 0.7623590839044613 -0.10728519294192491 -0.8149000912259707
P 4.593395988717366 4.221171710968937 1.006735646109536 -0.09190562516206108 0.3168843508634285 -1.668389098468733
P 4.07144606848628 1.4916397173298894 2.2741832626859413 -1.1758248681390653 0.16766163714745316 -1.611147600347761
P 6.467131488108418 5.803279867442729 9.677676245416187 0.5129808463128068 1.585772611918082 0.6535453701331518
P 7.32596175580362 8.591796682284405 11.558314283836188 0.14349815252737222 0.12062253348077935 -0.09396096502919302
P 8.308293841013686 5.815396176256645 13.77022441546233 2.008337016019844 0.2984497983073247 -0.42332853596129677
Ni 2.680784983759806 4.640386603442963 8.798001230317324 -1.0870480184139732 -0.36965418636629244 -0.35520227260702053
Ni 7.899833346672943 8.683101052811594 3.3062701716789187 -2.9783067666608707 -1.1559664386522415 0.4015335515733923
Ni 7.099264678646514 0.6645213050210619 5.25547712549823 1.5495583667810537 -0.19304511021756432 0.6837802577582933
Ni 7.923455452616351 7.755311142239052 8.913337219240857 -0.5180975987140819 0.433990386550517 0.11891197854757585
Ni 3.889635688865378 6.326882865465481 7.480474749140891 -2.0201193533667534 0.9934958587874244 0.8536358172332718
Ni 2.754403300413659 1.7206379539128933 0.3196780066945914 -0.029232671612872237 0.23434859695204155 -1.2974617018169718
Ni 0.5608226080513594 2.377407639039285 12.344125475577018 0.01450205027091696 -0.9562917389333014 0.20289346376655382
Ni 3.6003564678112814 3.2455928242373244 10.832439372276943 0.8376281289511057 2.03320086914106 -1.0309658307084244
Ni 5.846551057137077 6.62879498214339 6.3787744801438695 0.746352938284192 0.28006281115970477 -1.0898057836647683
Ni 0.36058604654585324 1.5322434405876855 6.6262176835863835 -0.5182114985841269 0.0585959552663378 -2.214097259811232
Ni 2.948827790683467 0.1076256959736544 4.010329152631901 0.4886648952752615 0.29985953417065775 1.330225012290922
Ni 1.2157072209460047 6.644123521666111 7.63808256709381 -0.27034198432751505 -0.48959357773711804 -1.5081893169159637
Ni 3.8353752888514325 6.74167389634931 4.942874479601718 1.9339542302328951 -0.4171254924743784 0.43598761948620396
Ni 8.95932471630651 0.6360348298259265 10.588968251778152 -1.2515952783021607 -0.06414542432965727 0.5970091256093203
Ni 8.845854075391072 5.779986498560163 9.860673835451102 -0.31831542688300013 -1.2883211729682844 -1.5910667704374857
Ni 2.5446127006713195 4.266208688304383 1.6411549680936075 1.1393964501087024 0.2677109744625712 0.709080941306611
Ni 5.926415377946941 4.5026927373871475 5.301392300410498 -1.4038446946596017 0.0874236781313075 -1.2738893138136704
Ni 4.8055441028103205 0.8831821699136817 5.844695101616434 -0.30678145810147167 1.3030875326441815 -2.0824729759033103
Ni 8.896028743363116 4.190946686346317 5.0946664693239585 0.1757963504394456 -0.881546427600611 -1.8004931502265509
Ni 7.270470939933377 -0.00888717162769527 1.3330898328854695 -0.16881966201129636 0.43401635469244615 -1.6448012838464638
Ni 2.237356258632855 6.372727596721855 11.631653643612697 1.1823115043046735 -0.02820294479677723 1.3153889757193542
Ni 5.605333194378179 0.6993214102818669 3.2533989205592198 1.928163077472415 0.46040564331925227 0.5494560584207053
Ni 7.805645482497791 1.2109264448326071 13.005349078253454 -0.35012948606980343 -0.2148537214522235 -1.2869875417585255
Ni 1.282271779522919 5.907470730754951 0.03822084919105936 -0.39749409139669606 0.5972055578908424 0.5670755712746814
P 5.794610601523935 2.3901250670501697 11.482129000361528 0.05247827240437413 -1.27606369575717 -0.2010299281952538
P 5.0991250831177295 1.4208955018365468 7.844340652305209 0.8671935013130485 0.10750579359316323 1.6671714240115483
P 5.424884725437911 8.485840031331087 4.563281795446687 0.5386936776978788 -1.8822010089200034 1.5454826540497832
P 0.6220334487802646 0.6886055213471411 0.2937509843303026 0.6949617282964096 1.0360291041639447 -0.22031757278027217
P 3.9475967289356673 4.892781526270512 3.7055880187332555 -0.5076931155513063 -0.4724188657300444 0.4395910205667462
P 2.474291147113346 7.941808373098825 5.9979044176952785 -1.9884212509325239 -0.3228302840342182 -0.2121728321859507
P 0.5079335112055001 3.1295768192222195 2.6304327977749073 -0.693730941213102 1.2617213109925691 0.23822839162242196
P 3.785078518542504 5.606450900385044 10.357086521547187 0.6280909346157892 0.15528126120522934 0.541537317794261
Ni 5.379556580991433 1.8994239525740426 0.5865908973776984 -2.9710665401586898 0.23521017362138846 -1.511066895574075
Ni 6.595508006611206 5.047381869741094 0.8549333246510984 -2.3543473377149517 1.785783354820202 0.5727433110834201
Ni 6.043774508667774 8.605688171226872 7.165712770379016 1.1839415837089287 2.2035811907712564 0.8809046802515538
Ni 7.209278884179376 6.106131232865903 11.86481369138597 0.676585539782067 1.7333451916251439 0.29074291658137025
Ni 4.876081683579705 6.436728006224197 2.4499646046109884 0.3884942018909309 -1.3221810589405227 0.4981342682182776
Ni 4.66581206697728 8.908699208936739 1.1845448260756102 0.8855614622972748 -0.3297915458433998 1.391528853406726
Ni 5.3510973440099106 9.114075339576335 12.779035214584416 1.5566949778258352 -0.3701131282805819 -1.3222697619995873
Ni 7.2319523488900685 3.113853795226487 6.5869570860343165 0.5789977766335642 -0.6603911894103917 1.2505719792439687
Ni 7.732600107578549 7.7018491036585806 5.49655597944283 -1.063002290318679 -0.8554196486065719 0.04272787788582964
Ni 0.740166520467196 3.6251620271737233 0.4325860376116149 -0.4978154514262782 -0.24588950771210558 1.0243434402959004
Ni 1.5784169089049016 4.865900227181035 3.655756176553233 -0.335918484676744 -0.35770729841706134 -0.12932828878489339
Ni 3.6990151560138926 8.94542383487659 7.362251509574414 -0.1744256953441641 -0.555227927907476 2.018386944056679
Ni 7.495796713922395 5.371385116907629 7.8370821380018025 -3.0777421245410737 -0.3266586566413729 1.092872081294918
Ni 0.6549221828444558 8.453689546780673 2.721217763745964 0.6638729773114052 1.007255374465362 -0.32706874759559795
Ni 5.042657448552411 7.684529356795899 9.234147020673491 0.8092809452669805 -1.3838574529043974 -0.1717833726253106
Ni 8.160456088509012 4.718494529099181 2.5460272092816885 1.4972700989002987 -0.05259088672283845 0.47245794649809597
Ni 9.029928044488063 3.6437027974052505 8.595262510154432 0.8539181243603811 0.0871961355015337 -0.28734160420930516
Ni 7.95392468191274 2.3233163037994866 3.4977632666147556 0.6801442036676028 -0.5781966208885074 -0.9160825137042674
Ni 0.7604336298925193 6.692926886470068 4.81171496706671 -0.1022409456497981 0.7069957766428082 0.9493317626757005
Ni 5.8785888318380595 4.441754278794369 11.263733003615071 -1.6661918337070982 -0.3143687835304263 -0.55933063722194
Ni 1.4246806742799638 9.101517583852145 11.881571767498983 1.8916986639977935 0.4618755429965594 0.48257446610680754
Ni 8.189901536673062 3.3019853189030206 10.897337703579757 -1.1611407837643293 -0.47447369137654416 0.19832461344894875
Ni 2.8305106262424635 7.412569882604483 3.122007413584131 -1.0822248859937167 -0.7654809173628946 -1.5148137642110169
Ni 1.9545578539210848 1.6867498591837402 10.62652505210631 -0.6751068983540115 -0.6684508264900746 -0.8393008886678385
P 6.5615072020326215 7.47271937225124 1.823905535708519 0.5718789062005958 -0.5582993677439482 0.014775872757593907
P 6.190316097903984 2.5161534636897973 4.7661172582303415 -0.5122012878343049 -0.8834086776203303 -0.337093993042084
P 7.226260501493764 2.111449964330112 1.1487763553584371 3.4833110225261046 1.706966444521299 2.1117611833444663
P 1.1209839849860523 6.580066757239054 2.045765481827511 0.6254169873280518 -1.5209674425172386 0.6988032135296868
P 3.3047654951890046 8.329333012907618 13.024539808616703 0.1741801549922613 0.35794204013568676 -0.6638698919876115
P 9.041236599381051 5.4142618221289665 6.666647645826305 3.287375221024306 1.7408031905650858 -0.9436167145687943
P 5.364866730615492 4.854666812187667 7.274285229087897 -0.24039197493264405 -1.8069939274595461 1.4549731379043007
P 0.8723526318807788 3.5262215643475323 10.479295932788565 0.5757039363736408 1.3288638702773372 -0.8097054343989086
