# total energy = -381169.3876019085 ev
CRYSTAL
PRIMVEC
9.20949282307517 0.00000000000000 0.00000000000000

0.00000000000000 9.20949282307517 0.00000000000000

0.00000000000000 0.00000000000000 13.47902365636718

PRIMCOORD
 96 1
Ni 8.452610526138155 6.582033629480305 10.868001669941922 0.562253981516322 -0.1849800738212427 1.7575395294831602
Ni 6.3289107231092965 3.3985882940149046 11.372966442251842 -0.058841752728556726 0.5526786791230611 -0.03712492987675541
Ni 5.457195402765784 1.8344756853435211 12.948461983878458 -1.703797302764698 0.2448350983056622 0.5523719465159196
Ni 1.5963274140738135 4.2775146471286005 10.735705465663195 0.4733501192950622 -0.763038369359673 0.7666967920478667
Ni 5.5760070678591935 6.907156349640964 3.8518739981385073 -0.5260831880227198 -3.086049101744872 1.1087455579920649
Ni 6.3302184710701725 4.16436682003476 3.761819894894619 -0.2468896668418458 -0.2828491156555903 -0.6471636349765242
Ni 3.350975216847791 7.19558845095563 9.705894468240965 0.8869557715416402 0.4545810662176752 -1.2919541417351814
Ni 2.9857359465633513 2.614943352191529 9.430316055862882 1.4819347540948091 -0.24409127816110218 0.21071964467919194
Ni 8.746430180671926 0.3637298344338228 0.5964564773615032 -0.41938600637378093 -0.5104051151658306 -1.0597200200229813
Ni 6.8601326800055125 7.053743844663971 6.185874408464556 1.0919953351169194 -1.593692638096107 -0.08878764835836966
Ni 2.9614044668969077 8.636496466524182 5.678537270839695 0.013815565726853626 -0.8054901107659806 -0.7295800897012275
Ni 8.842328627971954 7.533107148266567 8.52337995170546 -0.2716018248765451 0.026127550324987262 -0.748784173433504
Ni 7.804556945075207 7.340794522076303 4.086004167750959 1.7711347516690918 -0.9994608181216078 0.5625681703226312
Ni 1.5434096691217372 8.680720450384236 9.517457196571382 -0.04882807724629656 -1.179855586565013 -0.0692799173427452
Ni 2.2890009871821513 5.064594729722447 5.813879975297703 0.02384415360744926 0.24716297510789045 0.38739274129663603
Ni 1.2575470162654119 1.3409573914883417 5.250483734766858 0.5280621661259615 0.9035568704334309 -0.4357256240740689
Ni 8.055147240958604 -0.0453659609526501 5.734960148706627 -0.2690790584546915 0.7537726277870309 0.4016135128817083
Ni 6.053021950827823 1.3444846271856346 4.101396913820033 0.08967853560375523 0.495733886306901 0.3194184301391918
Ni 7.541856166314683 4.674526667166723 9.80965598039308 1.970494234140458 -0.08216140129110366 0.8793357931025372
Ni 0.8211708616556462 2.2746525975832417 13.32680452035117 -0.9537046949324156 0.15596491753581526 -0.16006736973996305
Ni 7.204696639218353 2.2716963504322467 2.1601076904495073 -0.7723164522274892 0.05674321832831518 -0.6406458884626645
Ni 6.735307216190608 4.655103847099907 1.4966834660999222 -0.9700787654150649 -0.6149667385290054 0.16096159941945828
Ni 1.1382840860305725 8.994800988818904 7.00685463362168 -1.5845035153976712 0.27007227560589614 0.4057000242462561
Ni 5.109168674304426 6.393487685797071 1.3706957643085207 0.5549723602532443 0.7185006919586142 -0.3964137138483237
P 2.0349847600209667 5.4890602474462895 1.5735412872794476 -0.8999953783344178 -1.6741517119841232 0.6437427822204332
Ni 6.497269458833088 1.6501108513380192 9.87760361740255 1.0781494303727626 -0.6771352416379499 1.137986714245369
P 3.6566935359269976 6.5119493901685574 4.603046268764351 -1.5437965245966123 0.33832452301507543 1.0585259997148804
Ni 6.324121786914538 7.650657112862513 8.279679277297639 -0.431626771414347 2.5805591644924717 1.02317924478447
P 1.940817697345196 7.473770386914978 11.56912679448474 -0.2505894842909362 0.26736156154295243 -1.2351849552649372
P 6.390181477924152 5.6512854610437175 8.146964041101871 0.30464204316096566 -2.046277756929676 -0.5724188378644658
P 5.026605572408261 6.933136328497525 12.597859360313882 2.141864944708382 0.6082479317479331 0.4708312095279504
Ni 1.6512159904598864 6.147142966040183 3.6761476682689342 -0.42385792610220546 0.184660742808611 -0.5219519394631656
Ni 7.532048056608111 1.0552420905149318 12.140394388411083 -0.3490303394683537 0.7824316862846202 -0.8950627169194907
Ni 2.472509338368206 4.151031474630896 12.974355393503805 -1.1238793283097095 -0.15883992509076517 0.284358096100949
Ni 0.8644858685879643 8.398513966122755 4.454021941977627 -0.41101860824569214 -0.31703116085393784 0.19194596361611457
Ni 8.98336279890758 4.801829484513147 7.689230152012752 0.7083682315103026 1.1243688663516183 -1.109587851387702
Ni 8.33646961392259 6.308318297471837 1.0830446279733068 -0.4596703078151245 0.6908927004333585 0.5237553112204916
Ni 4.252151704281748 1.4508266391873095 5.972137739447628 -0.08649885232419297 0.490253065697988 0.02635123630001913
Ni 6.975859165050378 5.593809017213939 12.731840901753454 -0.5114466690564676 -0.7338674042226716 -0.586301509383829
Ni 2.254870607301818 7.097544191860641 7.59687183369977 -2.3020328445819516 -0.6585888460943303 0.7158606832326059
Ni 7.409930183641781 3.081358109082914 13.404781294891587 1.2726659829295308 0.2053889764948979 -0.5387281304802399
Ni 8.214609606751363 4.8575929627040315 5.0176742064050375 1.52809608314222 -0.1022337465609465 1.4015055050034637
Ni 7.976765248740169 0.08707759520899254 3.0738100088805607 0.6664708199455683 2.9597300320999476 0.4585385082035264
Ni 4.429802818121906 3.8866821966802525 7.248101899178957 0.012516130189139735 0.9168330187170467 0.79880704231885
Ni 0.23495534015677938 5.033899490612584 12.699154570325694 -0.5063420008400505 -0.7508513403751779 -0.7699253262874933
Ni 9.57999057283297 2.982558671587983 9.034881621921224 0.4186601839513499 1.6991490053594092 1.6878268954783706
Ni 5.478589054266597 9.0424232754787 11.228983391759368 0.1197972093660066 -0.5735465237110058 0.8603073157161764
Ni 5.218245905632722 1.977047841557077 8.134847111579864 -0.6891741750803551 -0.9956370735001434 -0.692645164348091
Ni 4.352627269444844 1.1148735556323515 1.8986824264254711 0.27591382198833775 0.5043684220534475 -1.8750834240386158
Ni 1.3509865290192866 1.7941381073953668 10.873191219068357 0.1356511456791277 -0.1479595307328355 0.07823635520508461
Ni 8.991789484711816 0.7555173092733184 9.541922213881717 -2.2045391838091515 1.00181697705861 -1.6155074199783532
Ni 4.626130783121622 4.606873733923084 12.927461577715176 2.461818678525754 -0.9745324303110442 1.267682156561694
Ni 1.967884396338261 -0.18265278931587592 0.7242050341537466 -0.302915290277846 2.260651196311371 -0.7837951422910502
Ni 0.6660480088147513 7.280932819641828 13.266809280272803 -0.08084653913442205 0.9400315683206972 -0.6343106902732559
Ni 4.103455235434511 8.809174454315938 -0.1382197499719354 1.2882769499939104 0.20496962956929213 0.0755508379531215
Ni 9.189821205857744 4.048133812892373 1.4030183207753328 0.6212240322926268 0.2597984044837139 0.4334681954984599
P 4.899542201871576 3.2352211033248803 1.5924787670819107 0.4733999986963912 0.3825600957946831 -0.17951519405192956
Ni 1.0348983211798923 6.085568297966812 9.651398216243155 0.7147255411868981 0.9379662011512362 -0.6089632126474028
P 8.11108569951045 5.523227465297351 3.061193924855178 0.21120481184572656 -1.0495333092979666 -1.1778308428255007
Ni 2.812956654352091 4.840988247397976 8.786274129812313 -0.02837160916415759 0.963438891501044 -0.7732672461765329
P 6.321165539763543 8.276350045693013 2.5807613991521747 -1.3684778851245336 0.388536367982776 -1.280324527916053
P 0.7259916757340986 3.403229878326747 5.76398110204686 -0.576694068201052 0.643676447758872 0.001320775693952564
P 4.157220253713352 2.8831514075760247 11.424024790631375 -0.367444066088851 0.3335114178971482 -0.1792269733875494
Ni 6.958324290983417 2.5494086022648017 5.967311965282141 -0.8748530747408352 -0.9336457193990113 0.14046399368673873
Ni 0.3960063434372237 1.679802255745519 2.214387519369285 1.312517824819146 0.008704983973165653 0.2587594216962382
Ni 3.5756960477868116 5.9875608768425534 11.47640470121081 -1.223035978607229 -1.529180317345334 -0.774683409797769
Ni 2.8391484515403445 1.4636554624936515 12.532997824302223 1.2848190733522968 0.632501404978659 1.3206970181958289
Ni 5.119639867484118 4.64742313020293 9.588963381553265 -1.7688870932854956 -2.0536012871742826 -0.6381930560467977
Ni 6.160561196878187 6.356005050580408 10.461851991264494 -0.9868629268519391 2.412406189530897 1.4514934068858163
Ni 2.5371047200413464 2.959921738575069 7.04518914691145 -2.9215260102264007 -1.7201155803087471 0.2028546401088184
Ni 3.5717543849188185 4.510017499384103 3.4464647626727296 0.622316236915541 0.7652867990742175 -0.42154084793325464
Ni 0.09013238393168722 6.981771659352367 6.228643292480817 0.017272156816886382 -0.724106982401798 -0.5061586811846508
Ni 1.0618729252461352 3.572509563318761 3.455306796596936 0.8229473870104794 1.0607847138420698 1.280564411841001
Ni 3.0073874638592666 6.7664260919638535 13.74429108452042 -0.4753306400602007 -0.9718793089589134 -2.0881761969356747
Ni 5.2456809843330765 8.517334840708846 5.7956562311781115 1.1775585630007204 1.0368382303288015 0.1741899251842742
Ni 3.1677799884129323 7.816004344479216 2.2129186052864696 -0.3412542950673607 -0.6622979195148013 1.4031767220582996
Ni 4.239304461990041 8.836554276060198 8.076994920448652 0.04865787021701942 0.4160024346135287 -0.02050763303504855
Ni 8.400641358932349 2.378683026921678 4.21091435889854 0.08566890022372989 -0.39118049047384246 0.328698312779221
Ni 6.048757955715952 4.745679207629609 6.118465526776996 2.18635222848748 2.3464681920771913 -0.2708184097433013
Ni 4.226862437376353 6.708608896904832 6.900074249768331 1.9776470431351556 -1.8881520842971158 -0.8450719868236608
Ni 9.029944412894283 1.7856101171716248 7.337750784744827 -0.7415758286105228 -0.3199822730624618 -2.126662268826015
Ni 0.4128081418866786 8.12282780268029 2.1372202592356366 0.8031447504622554 -1.6472551447035952 0.45405810383466966
Ni 7.4465471265463155 8.467152315083393 10.264600314148751 -0.5893901756114817 0.5615512990223425 -0.2261706891269395
Ni 3.214647096672785 2.209421760915028 3.711947729172555 -0.01275035768713288 -1.4677474068508334 1.3815126068213046
Ni 0.18028963349361646 -0.10636227288557584 11.598618352901035 1.2503539496958918 -1.5787095344237134 1.4121431872229682
Ni 4.485833371600576 8.943071268422836 3.6301978254802307 -0.8233096554459046 0.27455267997475297 1.7489121928254654
Ni 7.1962975818921615 3.3669352676660904 8.056951380575052 -0.6225535497373278 -0.40753476346214973 0.013339911642015735
Ni 3.365120997607692 0.34416150438262694 10.580063197435022 0.2819340600404886 0.09397433476563172 -0.41132636929409805
P 7.121203378561283 0.6845747452435874 8.005610300770174 0.41039820105287383 -0.0972414355526777 -0.6078252423882177
Ni 7.189574652234136 7.954091477756527 12.870135248616116 0.9327206364815808 -1.2739494776276448 -1.7380659941395808
P 9.01364361084674 3.1196695986409786 11.435482320477334 -1.3052626859186294 0.5950509734416848 0.3474930768882209
Ni 6.439875900437449 0.1641094758002119 0.802622943393641 -0.8120821621612013 1.131608064412535 1.1689068008629935
P 2.057262522819274 0.3588819574858985 3.0553035333356258 0.52753097621284 0.5467779973679099 0.03398715557872211
P 2.536008790412161 0.8662476445380743 8.149242469591453 0.5245803782249482 1.3054431773605517 0.1312123931814837
P 4.862446365347565 3.3578547078814145 5.052598444554579 -1.5515082914185732 -1.57396456353956 -0.04789296702653687
Ni 2.640950959526138 2.946365365346831 1.598760562040458 -0.35481660713282764 0.7105613825068796 -0.8473368715984374
