# total energy = -340861.6185967105 ev
CRYSTAL
PRIMVEC
9.35261593585094 0.00000000000000 0.00000000000000
0.00000000000000 9.35261593585094 0.00000000000000
0.00000000000000 0.00000000000000 13.68849879902678
PRIMCOORD
 96 1
Ni 0.322731657875469 8.201645723073868 5.550357703129276 -1.6606076547511013 2.234918053211325 -0.3372433741357547
Ni 7.1140300006764985 1.6437409789559083 6.337309265260572 -0.8138713928511402 0.3083125500340174 -0.08849994191462177
Ni 6.315849687695513 6.401098783143548 2.6952930138000557 0.09283019385885947 -1.126229059488809 0.6738892238968265
Ni 7.308171604989204 8.387070689212402 2.0817333419758692 0.8620081004573671 2.7360669398862103 0.006615191323672479
Ni 3.536383129295093 0.5227747629262673 11.09049019111282 0.774761314223556 0.7527943230341615 -1.5962413726598896
Ni 6.172221562759092 8.698802735331817 6.3786627924611246 0.27013166808892186 1.4887893151227973 -1.1374480681330796
Ni 1.1878196509360701 1.811171511782099 3.8215827388948664 0.9676801832759012 -0.6178139781698134 -0.03572804952922879
Ni 5.465173140732101 8.509702191079066 3.5235288937730105 -0.8563226200368155 -0.20525296513766586 2.409184854380122
Ni 1.7303929668139497 3.8254818445330767 9.450443495503263 0.5738637978411084 0.8899158826112287 0.21424462711331488
Ni 2.103066659224028 6.476228348007407 13.436972712397 -0.6722925688336681 0.6535199162118551 0.2486835255174749
Ni 9.272118100220963 7.7145053626233615 12.819375516216818 0.8095694230416767 1.1873290121239228 0.3973948468146704
Ni 1.7457499623954829 4.901425502079197 11.70634967122781 0.2263288119713586 -0.4656334673770949 0.16994400542372667
Ni 7.636130439984356 6.521878467029003 11.616594485358837 -1.7566568697678906 -0.26460431051278943 -0.1329759128398097
Ni 4.968633401134553 0.7853045664419493 7.992577343518697 0.19603941695919785 -0.36681183182149085 -0.3051853172589454
Ni 6.6734750208542595 6.382075562063866 5.251510756164964 0.5737532404051732 -0.11761254300986197 -0.35496290290270477
Ni 4.071016074132338 4.4475149865137 0.8814354306835984 -0.14538225692396253 -0.9433655177899366 0.6009953639505778
Ni 6.029725104366742 2.300519089624349 0.4953772094204556 -3.1735416854409024 2.7165648652975407 -1.0112135877821617
Ni 8.8411495518671 4.847638607079563 6.660289702723415 0.6301033370601278 -0.12217907933462185 0.6291147478946134
Ni 0.5816335816188752 5.718937672470065 8.594995243822616 0.14170737917553658 1.2706546089264568 -0.15339407148484552
Ni 5.452612577354513 8.54621480420349 9.428336716906387 0.09577847785390603 0.019686679795649965 1.5726988094532592
Ni 3.658743405295822 5.175148516503513 9.509893399531284 -0.7001129334800458 -0.23100693417331827 -1.5141067108416633
Ni 8.775101377204015 2.6861555079028827 5.215427428118001 2.113845576677321 -1.161143611977807 1.366301446298505
Ni 9.064190739825932 5.3340214056286674 13.196027811501672 0.6609051529323329 -0.41921477090323933 0.3975984781850443
Ni 3.1035253524957547 7.784444225570197 1.541680556127967 0.6001150182281535 1.5665857545769857 0.15202418772051238
P 8.489191904044779 0.24928930495004473 7.171829167968748 0.6421672102031973 -2.1552537073104623 -0.06256985231242126
P 4.591592037021323 4.290484562753687 7.623727000556689 -1.2526964817861392 1.8985887062494078 0.14211438480596814
P 1.0408245842156343 6.543183726428962 6.444217148995889 0.42022315756309564 -2.3282498692969513 1.146428160144503
P 1.0309014585688583 8.146446583048162 1.1605885739962456 1.1179984440489006 -2.118198454329378 -6.177265863733613
P 3.7832828408400943 7.436844896834961 12.560689637904552 0.10904202773203155 2.232298870420923 0.8153749739798603
P 0.6632510562482082 2.9037160628466236 7.912500244755551 -2.103460376788255 0.3331797455893424 0.17617893058984496
P 8.25200020797702 4.556033390735703 1.3697532854969034 -0.69244333274993 0.6335645561358507 0.03455074139167598
P -0.02333197130161423 5.817935113536159 10.662054331189822 1.5416059447031967 -0.6180942284143935 0.13558506832788264
Ni 1.7214331606220443 6.002331291907358 2.374818142181483 1.5076329301918616 0.5878678254296844 -2.194818614087278
Ni 3.6084543887051383 4.325622341316307 3.2928915110448003 2.5199598056428605 0.7505386942307655 -0.9864543785596107
Ni 5.37709955523192 0.04797985568381416 1.4725815581039214 -0.6020335754071051 -0.18397297271296703 -0.7536417586361215
Ni 4.361611207940995 5.580275786665066 5.660344468073752 -1.7815592894365255 1.138616120299252 0.3342079297435406
Ni 2.135576352671902 1.0242236906972293 8.641001697516355 1.449293313910704 1.3334185795275553 1.6701896420125815
Ni 6.393354817040315 4.032595527330305 2.7357561719510577 -0.37975296536319114 0.4295202665943055 -0.05727003736606266
Ni 2.3092076699503195 0.8065770916856748 1.4297774401514232 -0.2001956052194165 -1.2255286631220959 -2.275010293246521
Ni 5.833974850090563 1.6986969509638794 2.987103987697384 0.3380525003006114 0.2750033943589264 1.3439701297911564
Ni 2.9627404228436123 6.621811169701769 7.4100496518038454 -0.2215887261832119 0.08472787646669924 0.9800032236176284
Ni 7.551844663991192 1.3828216959269135 8.707253759209694 -0.03691409941752998 -0.6196304625532619 1.2584030452526136
Ni 1.0990633244630195 8.535188069860844 8.059774954696381 -0.4395015461767334 -1.9230072443030881 -1.6325990853533172
Ni 5.388958672404504 7.074047566991325 7.613501785410958 -1.9918580445282148 -0.08904013068880794 0.3462280941328682
Ni 2.0320990085098543 7.047579663522544 10.64060410624083 0.07724982292209921 0.2581621544318715 -0.2796465495578926
Ni 8.60392979795114 8.355907772478135 9.363179846554457 -1.646420307507126 -0.2398687554393224 1.147647891484217
Ni 0.6072784548737862 1.8511352402351384 12.486745049496346 0.22137892416525098 -1.7656572734942881 -1.6736284924908016
Ni 0.22879491736306942 2.0736807395424344 9.86632814466474 0.21139275948681657 -1.3675743994736576 0.8094336687947609
Ni 7.47765971335007 2.391931559060344 11.026770817850347 -1.2403184198367607 -0.526483765895248 0.5916290922443295
Ni 2.6176288899821203 7.027172255264989 4.61162814642103 -0.38944319606776157 -0.1394260393405276 -0.5536916937686077
Ni 8.258808912473583 2.9449891575490024 13.281663169993264 -1.6166572173120801 2.019362934816703 1.251253835802342
Ni 8.813447103077515 6.722164740097537 1.9537867483984959 0.48501701411002923 -1.2189312124102363 -0.6006791182617397
Ni 7.876109215639993 7.298865752002831 7.3565274358389 1.4917720519002051 0.9457191056237777 -0.48256726701795605
Ni 8.361612868278826 0.7746510014803634 3.9905255897390437 -1.2789410173049651 -0.7747957670059172 -0.13430928693925254
Ni 6.206049975072371 8.441530972568838 12.050505366727286 -1.1972208173163381 -0.5281333856835291 -0.456162294661866
Ni 8.20680836714269 3.872553561196814 9.371036979312098 0.7664209126786607 1.6047129004660106 -1.0323210591847385
P 5.659211866268073 1.450113768526871 10.047632348164285 -1.1203026667020448 0.34171760785702443 -0.2513387037521349
P 2.1306755818529473 2.7698894795481115 11.236615464539051 0.7879634147361269 -1.3197644790792304 -0.5515743903152888
P 2.0551812649624877 9.355983008491126 5.016547788505901 -0.12174199179720323 1.3588647875148017 -1.752306820329311
P 4.195976377399612 6.680470777672156 3.016301919796037 0.034841790269533546 -0.8293949424080361 0.5241517753279619
P 3.857720312115016 2.2115195951335638 1.5725759880427275 1.8270117653423694 1.9825334246931794 -1.0634573755782266
P 7.323173201160203 7.443429138545922 0.1538823331919588 -0.7368943639744535 -0.22174144971099227 -0.7220511283140338
P 6.6016001663816155 6.696987497645961 9.681971247281023 -0.20401317919329381 -0.4621035998469655 -1.0440928550086856
P 5.3328990917006625 1.1610711689852877 5.218356667470093 -0.4276150791517926 -0.6763996490235061 -0.7543534399911653
Ni 2.4687258895840762 2.8506119088198605 13.392348575357921 0.39518498364754523 -0.6302090094000565 1.1430330184200252
Ni 0.31186391800595537 1.5360923680281096 1.1054174918187405 -1.9270562175614814 0.6835336889651261 0.5035369272910876
Ni 7.386013428512407 0.643452503296596 13.218422650673403 1.0980857642853734 -0.9599257361414629 -0.2484194732228109
Ni 5.722734834593148 4.389014373016447 10.285072823819418 1.173182802530528 0.6716441366163918 1.0246602002053709
Ni 5.751999170265874 3.9398736916449715 5.586577579370812 2.0587002989637444 -1.870998712446281 -0.38742333742425533
Ni 4.797321532640679 5.44484055340308 12.620494941343111 -0.2027929336329475 -0.9519563447827413 -0.10502493615283848
Ni 1.440443163513896 4.297003336152183 3.7050388548260225 -1.5041259454798677 -3.5883354444583104 0.3217455356104717
Ni 4.3731242783191115 0.7420103714075554 13.340509830284985 -1.0805048179788166 0.28001061776553066 -0.9995883448384074
Ni 6.190543337633771 3.235369181188125 8.33417416326232 0.43318820236419586 -1.6641064119329791 -0.29267818593087014
Ni 5.105275121869144 6.9293813016715 0.7285098701152637 0.716500887919766 0.7095331983526814 -0.45659295444138137
Ni 0.42969285152236486 6.078629933779554 4.198207911593129 -2.5797806344552345 1.254825098093368 2.3393945730598613
Ni 3.6374568511279968 8.500134464842825 6.010743034797754 2.271362154970972 0.9975618013266818 1.193769111322312
Ni 0.6109895729290555 8.928811622260346 2.7802437607955635 -0.6841988333529506 1.4931247092733577 5.320466304060378
Ni 1.8453366182737803 4.278466451107969 6.786771676624743 0.7511601298648483 0.9515791639489806 0.8846788025820054
Ni 2.184602766093581 9.151609642201443 12.770096582161338 -0.39317592363731635 -1.1202378749023805 1.8290475648254756
Ni 3.8800637118983796 2.6767467761397756 9.146134620755992 0.3975234019727347 0.1310686685147678 1.2145688216764823
Ni 3.5043784771148214 0.9263448225127127 3.165492980768936 1.2916548653272077 -0.9838776189713702 3.79778676394804
Ni 8.599477952703388 3.1476042320181454 2.8688223875633465 0.2959434869457032 -0.8120289403257627 0.47675991630755954
Ni 1.5262160054616667 1.5983153227199118 6.538914257194511 0.12750640508480623 -0.34835619621946456 -2.2403525939633355
Ni 4.610007338056669 6.709781876425216 10.8223048606616 0.9883960756670139 1.3624743592429311 -1.690520897370766
Ni 1.0032457728596051 9.269087852615352 10.782334585377315 0.28228475851168805 0.10359668834674417 -0.6181088837024129
Ni 4.144883035827191 2.3489282303856247 6.737643319687937 -1.4710350764631697 1.1104779673021392 -2.039377430265417
Ni 4.436450841706786 3.006838007598136 12.054886132092932 0.10324856097870606 -0.8447714248641064 -0.8756514022724144
Ni 6.721061131401665 5.3880421160299665 7.5184623714642935 0.037825812598521955 -1.9829645986933266 0.9611686074096286
P 8.13616805799085 7.593931436291373 4.072656522990439 -1.0122296877515018 0.6511087356672013 -1.2367867525344183
P 8.277523497223063 0.264304930045143 11.204981175955021 0.22204792520781758 0.150161937700793 -0.09415996841387654
P 3.1473423587682774 8.458468560265645 8.945680935859865 0.7351115610424178 -0.4758119505719935 0.4938315270778657
P 6.343215442306698 4.030827882893698 12.460682114303253 1.4401196178312359 -0.9954645524780211 -0.11629510975001908
P 2.893138254075178 3.6501764089787185 5.121127806102213 0.9525191592647467 -1.2233123721970676 0.11463057756340259
P 7.4958318463676825 1.4597282578434458 1.5169185698297531 2.4726036849564 -1.2798229056892862 2.715721800570955
P 7.927239967676681 4.409384370809735 4.858486706455337 -2.5204609136489946 2.040949402738227 -2.2926177219156387
P 1.8036613610805332 4.561504671134727 0.7088740526832122 -0.5468744137364581 0.47911401836203293 -0.02843228719876394
