# total energy = -340871.25709268934 ev
CRYSTAL
PRIMVEC
9.24232067441727 0.00000000000000 0.00000000000000
0.00000000000000 9.24232067441727 0.00000000000000
0.00000000000000 0.00000000000000 13.52707053509893
PRIMCOORD
 96 1
Ni 6.892054014473661 7.606540860017214 7.0297340935362 1.3623931123830344 1.0677840279780386 -0.37064997462065846
Ni 1.2855143888786484 3.9829873563997586 12.736900410197107 -0.01326252143686103 0.11346381094881104 -0.2530382029417449
Ni 5.059985747525217 8.464976850767359 2.605936098882869 -2.1404989175987907 -1.8618504702881096 -0.3038162048255606
Ni 8.069488704858191 0.5911896659847379 6.768824303856099 0.44685978631401746 -0.7474073476906354 0.04811151079524617
Ni 2.425092533596007 8.650581135456848 12.799341528978214 -1.8259974651452424 0.5477012805131276 -2.359366131085782
Ni 1.0692163570796192 8.58449854231225 10.099919356017354 -0.2766712689796525 0.15152127994216485 -0.24811248350535334
Ni 1.1190417080785753 4.747484399356659 10.373517927813293 -0.4819347756402796 -1.0378237341705223 -0.8864150685468218
Ni 5.187252503833069 8.818347741157655 9.530673732116986 0.5869239734591762 0.0918148652204677 -0.42931097879697677
Ni 6.175219619467349 5.250451492913177 12.865650558980443 -0.5455137859435056 1.7926183754641642 0.45034491664914056
Ni 8.239473467531685 3.538071279282574 10.97081954048985 -0.20717640741262386 -0.6920116445291501 -0.573417197221993
Ni 9.137217048301967 2.8775226174581654 6.106687811332075 0.04587542237587583 0.6525033020218827 -0.26888622571759496
Ni 5.959808850457394 5.907164591638983 3.4997101029041158 1.6844546365720279 0.22032451475880765 -0.6108095218275222
Ni 3.3540936430397212 8.123584008029567 1.1209382322902215 0.017353660787099143 -0.5674326975037841 1.5530648372724156
Ni 4.883217121443594 4.834620999100335 8.029642287540106 0.7929991773878213 0.9024651800311491 0.2918934852460457
Ni 3.9578852133255307 1.762704649948413 8.643568062494875 0.4541627477333339 0.5691113707577876 0.4896365151599116
Ni 1.4619872606972475 3.4013496288786493 3.7865381325779803 -0.995964117822259 0.20452868537713165 -0.352443993135593
Ni 3.9189103468512965 6.627159860331373 4.0627605992261895 -1.3503310390121777 1.238337899071622 0.8999308436450695
Ni 5.928163144313742 2.862189607384474 12.710143891714083 0.2836970654781824 0.29784276085094513 0.8226617374492607
Ni 4.870813927037993 2.759165458323936 6.529571120085986 0.22130256240136081 -0.1160940494828065 0.7431891958442298
Ni 5.600236362864297 7.315047306844134 11.42003976636612 -0.7052821363858112 -0.8341604821174796 -0.5223232067596552
Ni 7.656153637639622 8.31844909808002 10.7533985667234 0.12069169615581796 0.07965097616442411 -0.3677448851587215
Ni 0.12467520957809632 6.706329579614819 12.731759831412909 0.7946706515529733 0.3975236590830509 1.3025139195288988
Ni 6.101613777257057 8.482740591190286 4.735029447955028 2.014244896863847 -1.425719640355822 1.5259155305511334
Ni 1.3831317803182654 0.14775236018267682 2.9507273429492304 0.23462550476251207 -0.6138220834016009 0.5334892506788037
P 3.3004789405457604 1.1331085202136912 6.747667707497035 -0.9692999782675112 -0.4514859722321192 -1.7337750800737108
P 8.568121149997252 4.536251159311929 3.355660216401681 0.7853331762021314 0.23344228308768825 0.500212490903545
P 8.421380823933363 5.034227399679903 9.077340673520528 0.0650476244289525 0.08355236810135934 1.9885354079128852
P 3.9660369402001514 4.387976608008599 13.161339201528113 0.17002910893836523 -1.130510203362666 0.17797176082420965
P 1.574179791911554 2.2888976954730955 9.724610893167196 0.5444542343307398 -0.5300434582220485 0.7912228022136889
P 1.4036312476741704 7.899799696447723 5.040456723844863 2.05829020800952 -0.9040070705969722 -0.017162370711899473
P 8.807709830009484 1.595187586907033 4.16687903905992 -0.004183699064044407 -0.5442050944344111 -0.3056709986461123
P 8.228521317479048 4.582028373835733 12.75321403049914 1.1709461998905255 0.4823458950357693 1.504998577892808
Ni 6.942369208470752 0.23819401381565475 2.930436752041586 3.680505121915036 1.8695105579365288 -0.6911526389629645
Ni 8.519044426976578 2.2597843852065935 13.070559278956802 -0.46194907654697215 0.4243374368417854 0.14507012500018243
Ni 0.23853782814642108 7.661865391844287 6.924588831870531 0.0010970897189206913 0.5206694732063162 0.935396126431215
Ni 3.6360768481924106 1.9893818079154681 13.097883275932004 -0.11831162595941558 -0.01986228614156579 0.1708616321419896
Ni 8.52191878872035 6.662354617631321 2.74774010145046 -1.0282582019692743 0.4067912004279059 -0.40501636791567025
Ni 2.509826129952607 5.770137944651314 1.016324404065925 -1.57486779208012 -0.4824181430346015 0.4323469374098231
Ni 5.878596578294933 0.5890935076455498 0.6424032135557666 -0.7269426520783804 -0.44164404644103294 0.24123555387986192
Ni 3.347485383725261 7.78754246898838 10.323494791150939 -1.0383369263615148 0.6172084833753305 0.773183685323791
Ni 7.2617283586131975 5.140255302974287 7.34653866623177 0.026418084982212566 -0.1749319455566213 -1.4156090342843812
Ni 3.1405867920979884 0.9494358805545828 10.616694476728842 0.43737704363456287 -1.7992117124109661 0.4339587619816333
Ni 0.33947136426020313 4.236014370738179 1.4546876757929672 -0.5924747280740764 0.8063642858408178 -0.06000543401935472
Ni 9.071624298155504 2.889842630977291 8.696675361581333 -0.6752508801310436 0.34895243504256673 -0.5868121304716604
Ni 7.004366695857322 4.086713921834981 5.053645515511624 1.920967845275556 1.8572808486395562 2.084521373791907
Ni 1.0816934900509771 0.770882562342019 5.606388975767284 1.2043319744398227 -0.04490097427774847 -0.6901501658403791
Ni 6.987776730165776 3.0121462610587573 3.0927208130915713 0.5685938076914208 -0.7374826323777556 0.9866500395101846
Ni 1.323204572772869 0.9209122303499867 7.971448939361693 -0.38080248967362806 0.49437171585205175 0.7982339434241994
Ni 1.4516081345292215 6.074496808265972 3.7282495884961557 0.4610707877070768 -0.021825323405207573 -0.8607235773179885
Ni 3.1248656045540772 3.178739092028185 11.000199953825147 0.7074742589411235 1.835688724291077 0.14281346775552178
Ni 8.722403209768272 1.0350105280966593 10.708760006112241 0.5681438646381958 2.1362784517595403 -0.335236628118371
Ni 2.456997024719805 3.3892237040946336 5.985512668610463 -0.28842789529494844 0.33769820228498615 0.9759424232846934
Ni 6.0778332860457205 0.6632418740820782 11.767496495727992 0.976025727027119 0.4037647548967563 -1.325174594351208
Ni 4.9844944718881425 3.7400899255699382 4.235190879962069 -2.782098942444609 -0.4956582958739593 -1.0849386853804541
Ni 5.109940491014247 3.537720071095232 1.6152406501721852 -1.169925729045811 -0.3432852094544604 -0.44260049681703134
Ni 6.880926260327354 6.795259189578083 9.117583586397481 -0.8044745250172725 -0.4049742018238251 -0.04483746802966472
P 1.646029593185137 1.3076867162847876 1.016226435466298 1.0484688725891942 0.3952438619099387 -0.8395114620167478
P 8.774243386684084 9.164528106028161 12.710305632326675 0.7920949204059972 0.8675218311867445 -0.7828278932817744
P 4.642611786152216 6.904253877823433 8.698852852342853 -0.27165453249135146 0.4326313014194614 -0.8333346437820744
P 4.552138708628791 8.79495542741654 12.59078116808557 -1.4998759119542622 -0.5473863203758702 0.7583725884528875
P 4.203047012731635 4.719082747785561 6.014893081945759 -0.8423219348823494 1.3196816895574368 -0.7885226296737065
P 8.34546440154319 8.982140148949068 8.732359961879418 0.21270659320223365 -0.7087747229201019 0.5945316106031051
P 3.5220913067585164 5.08463501688419 2.799873259933081 -0.07853948826780022 -2.118441937798752 -0.08905709996967243
P 1.4918769259041895 6.659637375339781 11.073071031538237 1.1740330663459653 0.9940357904512944 0.24655002411423993
Ni 9.161857075340219 5.567897482666681 5.648160568491247 -0.5706092954595529 -0.12192171190817712 -2.3667385122904534
Ni 8.674084357046599 8.44030909676695 4.648591567657747 -1.463141532647706 0.6085073560569069 -0.7139102443744544
Ni 3.4266273760465484 6.411619698831344 12.53852601096945 0.5069829768581591 0.2438513942361542 -1.4076699819429626
Ni 6.56717719886166 3.576907510946016 9.171691828817865 0.7623778529575387 0.5984977943397047 -1.317908142596782
Ni 8.899800313658824 0.7537500724242366 1.3754329271589016 -1.1702879974812364 -0.30498271432983604 -0.20718669182526897
Ni 5.534902397697979 4.691411239551304 10.884841003532333 0.08361484590817858 -0.5460483182907371 -0.9056044969910791
Ni 6.54713984754173 1.3467909752490952 8.979742690954422 1.3743906510645427 -1.0950143244489012 -0.17437607305315128
Ni 5.013829597851913 6.778308773378475 6.163419948604732 -1.1729573167832832 -0.531308183867085 0.8115679415289442
Ni 1.7407171689566643 6.591003901676593 8.780313742932668 -0.6789784654942759 -1.9057129759990146 0.24693440403685213
Ni 1.3943242307096093 1.5566286248651773 12.19845482009455 -0.346175643628378 -0.22328334027681548 0.16006685551933078
Ni 2.4090478648269125 6.383153351015209 6.3745099326783095 0.19447438646492313 -1.6264289519868635 -1.548046815232534
Ni 2.621556545130937 8.243456907761798 7.5954094089426185 2.1193595645170147 2.1036146429779317 0.06554410444939679
Ni 4.015206086428021 8.887905446892796 4.873587547485921 -2.5021677717667616 -0.117652652219178 1.1235895649834327
Ni 2.384241476015709 3.336311417975357 1.4632636251886137 1.431002228911 0.3634634841745482 -0.21934081068929967
Ni 4.8868585958070865 5.969337683119224 1.2224531103772616 0.4375223109631755 0.8776949150650045 0.2898288894075331
Ni 7.234149273586137 4.663702762034171 1.2553160301596744 0.5018569684855034 0.025454692627678743 1.2901890794149586
Ni 5.358558918369454 0.2828519833003247 7.008483225505797 -0.3233475899902689 -0.09260753632509212 -0.06140951345573294
Ni 7.127086230371167 7.8645587275441775 13.092297217289122 0.1618200907650116 -0.37272434065118387 -0.7346071106021737
Ni 3.63861848639028 1.4335763668054295 1.9295414781848355 0.7144332067574599 -1.2120442554824158 0.5823792915112874
Ni 3.663609721615874 5.528894889230289 10.128718427379393 -1.292089638871781 -0.2332592205426047 0.17515151776659513
Ni 6.477277145222845 1.687416705367167 5.159779705494282 0.9101792608459551 -1.327039929694721 -1.8323827998462958
Ni 2.856024979464552 3.957108858385091 8.510515613416601 -2.1709286948435578 -0.3861838085901994 -0.27251173828532427
Ni 3.135660635154482 1.7249312851677165 4.404319803736934 -0.03133917643291377 0.6610020835215132 -0.01959103475805013
Ni 7.846859683366288 6.063895866400678 11.036020416237807 0.32998412147018 -1.7293209009570991 0.8608914703544206
P 7.066909480166343 2.2971695725170695 1.2378064535565356 0.22526900324827653 -0.8209498969644764 -2.593208477825366
P 0.909752128081161 4.97344989862831 7.282109524263893 1.6343980862352692 -1.279592277735719 2.0044284249940576
P 7.342293668325293 6.630727396129109 5.088343035956863 -0.8119479505761822 0.023160754387179468 0.2406763389422823
P 5.121410211027177 1.2321584713648341 3.5270479633603973 -1.4080692742639105 0.7677283186361745 0.038246445075708325
P 6.6378717100453 7.4736547727118925 1.507240435636255 -0.004533369093979289 -0.6853874543444132 1.9177200277622197
P 5.326118372643923 2.4170055029664232 10.640488831421258 -0.49952909168327514 -0.10672932043845491 -0.7484743555025691
P 1.116204315617681 7.288734419755649 1.5885377371493352 -0.12643862594192418 0.8223861151903707 0.3497080822616687
P 7.136393247335728 2.456433243155914 6.9632892014193954 -0.5981599513843118 2.225638170571296 2.5011370165094022
