# total energy = -340889.298127401 ev
CRYSTAL
PRIMVEC
9.11271863419903 0.00000000000000 0.00000000000000
0.00000000000000 9.11271863419903 0.00000000000000
0.00000000000000 0.00000000000000 13.33738484886345
PRIMCOORD
 96 1
Ni 6.546959590987662 1.9843764334126934 11.716625665596828 -1.1414422768941375 -0.7665216999225831 -0.8520864704682809
Ni 4.699401510760178 0.2928353813731245 5.819007400410237 -0.7029727715263442 -0.7605839942819095 1.2579973251737626
Ni 2.8959581000258083 1.59497175322684 4.771422968903511 -0.5702567972161405 0.04475107896344551 0.35649913704157316
Ni 3.8653781899549307 4.521029161935927 4.960546502827529 -0.5295780885498557 0.014340070771755949 -0.08181327392306556
Ni 5.103067595151097 4.782099429712875 2.6174214850029514 -0.20615953611233528 0.17769356746215847 0.7988098705323275
Ni 7.203029748012385 6.10071888650341 2.9445343564191138 -0.21642877924882725 0.32387852279307444 -1.0507424991147194
Ni 5.037027725327385 4.016421496471839 11.912231987349271 1.3266277818579668 1.0347330110603408 -0.3000104579262252
Ni 5.6107189085413784 8.08108572384567 12.342549127802897 -0.061983640791648094 -0.5193525541671057 0.3911624927517134
Ni 1.797356114881984 6.35632152327522 0.6972095239792084 0.799400710038791 0.23818005488298977 -1.6434296003099182
Ni 2.8069359545438375 1.740201145441619 0.15144062103661474 -0.7640758094852518 -0.4342567528380263 1.6675293215715992
Ni 0.6347108565031564 0.2676004417407491 4.797190091287053 0.8600831155205123 -0.7771213298153002 0.0771058411450672
Ni -0.24328588666090512 2.471879526549045 1.2134231475235344 -0.7858638518946208 -0.8191884341886795 1.145530845141214
Ni 6.769446609305025 0.7020820944766196 4.783786193877959 1.6398675939902725 -0.1737330401525137 -0.5408901711285652
Ni 0.6527020963255596 7.5150583367572095 2.336416234581275 0.1956972031284307 0.4979656038508972 1.7508672596693073
Ni 7.750576542303483 3.697421678195466 4.051590210368714 -0.8074588044565771 0.5331830322922946 -0.8032082567103392
Ni 7.397422255681687 3.909593099349805 12.983010109579789 1.3133968849899895 -0.40526885024610854 -0.1880602554084632
Ni 7.916792524859646 9.07819936481581 7.108225582742482 -0.005873942282273754 -0.6667235593863228 -0.6929292712474131
Ni 7.005757621347044 0.6291776139259578 0.5454299098202753 -0.05482980335568622 0.4745299985357762 -1.2365949482385865
Ni 2.0136282592901757 6.320007340682769 9.405429790298582 -0.2690880573157559 -0.023833612084487983 0.5169434305049806
Ni -0.015753156197633726 4.964372021987456 1.3996251439471417 -0.3127114504326614 -0.42279194673153636 0.5800586137979107
Ni 6.375731613343457 2.0745650068424273 6.95288562952737 0.7326700414804608 -0.34554186669912107 2.03397657096482
Ni 3.6431645531878236 4.4227940582103 0.6380269747077719 -0.5325114601465668 -0.4043213987311746 -1.088201672402442
Ni 6.00064301367272 5.780634654744351 5.082196736332655 0.024702902063318745 0.44970599751356105 -0.4145127374418797
Ni 5.555103988500794 2.8091412323825757 9.380102812210954 -0.3951896116332355 -0.6265073921787533 0.20334649214357237
P -0.06818956008056541 5.594115535722446 12.511093409895414 1.4302257557562916 -0.28321909740049933 0.7478902008643249
P 4.089131876121819 5.915402646302635 12.398539491839168 0.6056380049289118 1.0032470246369174 0.6044288151121591
P 2.4492799850611457 8.422748872638335 1.1915489784156499 -0.738215139668406 0.6695103781028405 -0.5858045151427523
P 6.488191670400781 7.880806400127502 5.811018280239897 -0.8598090359235192 -0.24489860455374599 1.0322128157416481
P 4.657765500656061 1.0006767138418218 12.554946544372115 1.0430523295593133 1.3104252039561755 -0.1882929402445596
P 4.049910736378303 6.040119309529809 8.610055330524979 0.22506897142232848 -0.6689269947955448 -1.9671371447427672
P 4.707785211634722 1.0445817908130715 3.68109168692679 -0.291432229338911 -0.4358366957306365 0.4966939362273252
P 0.05609880538453925 5.696597166195396 3.6634057231688404 0.34805306315674894 -0.48256289614258185 -0.1581866077774824
Ni 1.74775558894705 0.9739399982267021 2.738751862094277 -0.9102216840481163 1.0374876909873423 -1.852377497800668
Ni 1.5340896819846401 6.650671438436768 4.84360481088966 1.8842918300107614 0.18651990750453684 -0.4935906147116531
Ni 6.151722771062995 5.839675956881488 9.31021464143146 -0.34660141831188696 -1.1450176529502216 0.045052412253948224
Ni 8.88223035687336 2.407735102140447 10.290565437011685 -0.0798108987810561 0.6403921205806454 -1.112619439125174
Ni 2.3867485117990626 5.302116701893108 7.051354930114384 0.19180892381761808 0.433178432172183 -0.036429189361311454
Ni 0.41010786498680424 9.139054097902985 9.203809074440489 0.13109849331143875 0.3884515215784536 -0.839633846527225
Ni 1.3772962501939963 1.0076843942467388 11.309848499163987 0.4575388632944185 0.2466212436718075 0.3282712525441314
Ni 4.162808203916039 6.863453411720013 1.5096183881493155 0.43808229723170355 0.4745785923855246 -0.8372378354912227
Ni 5.869082698970783 8.138559638428001 8.222857750721534 -0.8400927884415145 -0.32792981004431265 -0.9308954103473839
Ni 5.641383205761855 2.7634774007713405 4.988541684845665 -1.3267373108526377 1.2371688184641856 -1.2856899059930245
Ni 0.7327791974831269 7.678194220513811 6.8773020097841915 -0.07989497385443015 -0.08140061186567916 0.8140719388977207
Ni 5.205767930864253 4.567850308776583 7.165256619213397 -0.08398482765308762 0.3069678630806649 0.6683785784912425
Ni 8.511178691428082 7.092474249088516 9.725433830136232 0.17983195396139995 -0.30188993433712524 -1.0201481712676304
Ni 4.850262562910248 0.32600111977845103 10.319400811660943 -0.03304870292485276 1.5763289500066788 0.12256217370565343
Ni 8.330373246806547 7.559327922462135 4.733744612375278 -0.5948190599365369 -0.6138969025035943 -0.16761021508422747
Ni 7.479227128236878 6.381545527645585 7.119508950593416 0.48012060524967637 -0.6845500460447823 0.11947119348515554
Ni 2.5220906046128864 5.056310237338835 2.56970091286195 -1.0712488465981873 0.44889661423838817 1.4717040775057364
Ni 2.0857371995295906 5.451510606390133 11.763519714184222 -0.22216928127703026 -0.7763757098985274 -0.6905445730653205
Ni 0.9378627463111401 3.2919512755728517 3.789551260632023 0.8974561568523317 -0.3118832981044113 -0.18962400035115728
Ni 3.8191858206798655 2.8523355173231577 2.6847890778890777 -0.8743537665069135 -0.9583540207789688 -0.06734079133850338
Ni 1.116927661729375 3.5153222275693796 7.981424479699536 -0.7865860747726259 -0.5364496188587083 0.4810338610925651
Ni 3.8808880365728355 2.481775938668343 6.896361260196264 -0.6718639659366816 0.53981596422778 -0.4582785696739204
Ni 4.019729413229947 6.9361273404966255 6.3497949943987555 1.1007710244270204 -0.6364938139675038 -0.7782068495699953
Ni 0.7936876956085183 7.619316947306828 11.802504834522683 -0.00035018425056713884 -0.6332645083969287 -0.05483905932706685
P 0.38404275671348226 5.867752242092867 8.040976094063819 -0.6646620488716037 -1.0033709518092913 -0.21784365731848288
P 8.628504940079981 1.777672643263491 7.968980151531844 0.21158199267948724 0.7604161012454775 0.9065218665990259
P 1.8117633225805199 3.6766082295025777 10.271039615420507 -0.4948797658367219 -0.47119939150064655 -0.20173543890271065
P 3.964624805416508 6.353879314759593 3.7630496531501243 -0.012485019840888175 -1.5986944621860726 0.7171542052330487
P 6.930513905998018 3.9039978902878816 10.699209799432781 0.05184758079891071 1.0812548087709637 -0.5455320407759507
P 6.522264124281127 7.699326614348665 10.298594653142729 -1.2654033878298465 0.8745545696638098 -0.36780710585522464
P 2.500411447677518 8.474481774665271 5.910928301596764 0.12135246966826843 1.063280226570414 -0.43683634063974436
P 6.990074633080643 4.054303066619096 1.9454705937238073 0.3520842958033291 -0.34162659080511487 -1.2837222407436923
Ni 5.355052482741175 2.662399128923042 0.5507663176812889 -0.023088763498663463 0.01145272192163189 0.16622259070808149
Ni 1.3969888345308312 1.1685147602628423 6.901189178373801 0.5731899117025354 -0.23730305159467513 -0.15023547125120576
Ni 7.039356213873612 0.8333343992986004 9.303692668914167 0.19433786088705884 0.7436306542570226 -1.1533053468803105
Ni 2.5541491477396723 1.2609997387147336 8.91722866293724 0.7350861071211211 1.4616646909918631 1.5855368417581919
Ni 6.317209736151807 2.0119970827069764 2.68065463757736 1.4127445682523927 0.21023447751265728 -0.5711700530590292
Ni 4.130713209915885 7.2582072575725585 10.398825442185231 0.14285152008230884 -1.466432544694152 0.44076910003524733
Ni 8.427369020837675 7.298020724008298 0.4335184384071323 -1.537963719964919 -0.2663403193672897 -0.10956678988725001
Ni 7.572377335127729 3.7908179284815464 8.522641579830353 0.5724080392311883 0.18549198046065474 -1.2773122234522905
Ni 3.160919498534745 8.6116737493025 12.26000339124651 -0.6401735768119362 -0.6632361150583546 1.4843256229244888
Ni -0.1452594641853074 4.85882851815163 10.26822560799653 0.7985049376973989 -0.11091404794376382 0.5500468979271689
Ni 8.635913580091941 2.1756341659723835 5.746572224854182 -0.35262499879814757 0.7126380625302501 0.07622832363612032
Ni 3.3322841669540786 2.6893272116233415 11.456173240123464 -0.3186023619957997 -0.5230783397581249 -1.3329352121332334
Ni 1.0324527627000093 3.163270579866954 12.56635020010516 -0.12342529303689713 0.97543591596192 -0.14254787279896095
Ni 3.1506039013717198 8.269163117704037 8.11715841940206 -0.054091896748397164 -0.5173411801640316 0.33371504926752205
Ni 5.357248647861573 7.947338356741677 3.90027807866072 1.0570033924227664 0.369391419623209 -0.8660989826972891
Ni 3.035245999881672 8.1928076507173 3.250707112357435 -0.4686066910728059 0.6230950240630946 1.3525702127553414
Ni 3.5736253995208234 3.772073066852269 8.905424958868984 -1.3644808481499984 1.1330213998202938 0.47807040758886693
Ni 7.184312224538132 6.155623014513327 11.662249163978908 -0.3925837985792723 -0.785886220492124 -0.02700892448867606
Ni 0.532828842897103 0.24416708652456637 0.2280603568552671 0.524470077899329 -0.10362445626088605 0.9617082819631824
Ni 4.476723125357634 0.5001096276905294 1.545909788945912 0.1758734835342842 -1.1763203197182452 -0.15066613103072116
Ni 6.022987399047046 5.581193701113639 0.4663324258844616 -0.43115034599856067 1.2453456978480228 -0.03804872724260544
Ni 7.959895682616809 8.998590657381017 11.143411077552116 0.8320169534119156 0.06157354983742299 1.9160274705511453
Ni 0.19288982041472372 4.741839440078383 5.770885868662192 -0.33817874146583043 0.22151442130185076 0.7487939436255169
Ni 7.638599459318278 8.725992800901572 2.5684734297012968 -0.1404195136020485 -0.7694075061108104 0.45596714793192444
P 8.522779181877317 1.350113011380124 3.430508335417695 0.14452093736493174 1.582151984446359 -0.11528749442111114
P 1.7527493585984086 3.173905122171945 1.7077188609119347 1.002840533227118 -0.09239439187302151 -1.003670485327581
P 4.668418268397736 0.9238929490930152 8.096086169508263 0.22830419053017453 -0.015980948809288603 0.8755213044524534
P 8.536767204532124 1.6474154472844453 12.29401387864213 0.6006847746886945 0.25793332625051707 2.0405465108728538
P 6.27793392009824 7.737107944594163 1.129747433892753 0.1019252141815922 -0.43238550395724246 0.7274463311876763
P 2.116720441892033 3.4940075793676875 5.743171358368987 -0.6360796092482207 -0.5965640676521016 0.6555462026132646
P 7.096884804765993 4.20287682646535 6.142212738201394 0.1933680407746218 -0.40550333485441775 0.2620771732155615
P 2.2100346777130366 8.408706173673474 10.342994550719943 0.09408334953967024 -0.01633216150112026 -1.8480960968164946
