# total energy = -340859.4097865041 ev
CRYSTAL
PRIMVEC
9.38694151826956 0.00000000000000 0.00000000000000

0.00000000000000 9.38694151826956 0.00000000000000

0.00000000000000 0.00000000000000 13.73873775857795

PRIMCOORD
 96 1
Ni 8.793133132053454 1.0812818116013256 4.361238811030967 -0.44777998413544173 -0.015804314022108266 -0.41454204801791833
Ni 5.318622379457313 3.9794437322631855 1.2486519203697326 0.28345409622944084 -0.20876123540124047 -0.10834011656900053
Ni 0.6659068263777632 5.975642588150876 8.205172653266574 -2.5466244594182403 -0.8278558800556903 -0.6106920224130514
Ni 2.8799981885197594 7.003146610893239 4.582981840760564 -0.4193692942032326 0.7569649094720834 0.2204636114398332
Ni 8.495266698806354 7.576200626299418 3.546119037167724 -1.1687026552719872 -1.4108962021897444 0.1354631980380377
Ni 6.815999154708711 5.789180378708662 2.733349753500028 -0.07672300388435173 1.19554111562107 -0.6610707319759196
Ni 8.44059715048822 7.872612083586812 11.584366522701309 -0.9128490943686344 0.6392109557883507 0.036440245104904984
Ni 0.372669094070856 8.89973124172048 2.0248149475854653 -1.372579565997733 0.4912704512189088 -1.2651434493002405
Ni 8.334421453196592 6.985226939234701 6.921617267664814 1.9336662666788311 -1.8336395550715323 0.2977556004537775
Ni 8.278728728235825 2.4356673043097694 12.7118499225353 -0.27240889415887276 -0.0041081086311026025 -0.5845336188501288
Ni 1.6359092604984897 4.43520791143394 3.7073707373520377 0.08979809190075502 0.5532684901882601 -0.4488055971864787
Ni 9.095082884929397 1.9259375974465418 1.2318718234306012 1.3871862601673142 -0.052479815066270905 1.0054085510646105
Ni 2.9164476830457424 5.63870770365033 12.168454888047043 0.27445112139988215 0.02438897036732574 -0.5847696461203349
Ni 6.866388257622818 8.908892896795772 10.047344937977586 0.6432352464563954 0.3185324279898127 0.10657479713846162
Ni 1.6923623277349717 0.6871316402002458 5.928004797841861 -0.7097831095799582 0.7260311960077044 0.11445857076191256
Ni 8.02979642194313 5.481711104127522 11.870722688065905 -1.3762019932416687 -0.8647165005274656 3.177522010244889
Ni 7.3029655280088415 2.324244306621535 5.840021932211527 -1.604487928939398 0.03195315586782884 -0.36694141542081965
Ni 4.679183912521968 3.089683691667172 10.394976242517371 0.4654511761629596 -1.2246992252422648 -1.2468361663506207
Ni 0.9737262338833989 8.708988586874234 4.145087582457467 1.2882437827631297 -1.3676543607819736 2.323450391025779
Ni 5.403020372061771 3.785190361230302 5.709833499419792 -0.5709671930196037 1.4694469060404434 0.3421809206466881
Ni 4.109837739077614 7.618854889272908 13.132214067259394 -0.34373798072116285 -0.494646052559361 0.03792120052580566
Ni 2.6015721114826302 2.9484947019259136 5.33501291831691 -0.4644738998513549 -0.265091277451537 -1.0670468927016976
Ni 1.080080283066861 7.205538460358784 12.426482202129135 1.061589212021236 0.25417925852472356 0.6746793238982897
Ni 5.290442780547449 7.366092710776607 4.041455746359901 0.005561296137861389 1.1890565363379908 -0.8755503579181759
P 0.4790606910210203 5.209414700004498 13.188363936279757 0.9168139925536533 -0.07022582619578228 -0.06551247988051298
P 1.3448389730244563 2.3891362344242952 11.289313355874361 -2.9128937884726995 2.074456019136105 0.9253166307080257
P 7.795442036072492 5.6352439221720685 5.189780972796013 0.018431981452942447 0.32691473851623704 -1.8347212181714854
P 6.568005542583567 8.205810965300508 1.8958224111631894 -0.12604678982014422 -1.9709053535359475 -0.4097973342440814
P 5.905343781943026 2.996640325779574 7.886667151357545 0.8504211669507161 0.1971946136095636 -0.1023018807947206
P 7.800942783894338 6.332994070795645 10.068915191253728 0.30494029112767485 2.3393444365482163 -2.5255604396590896
P 3.9563518557414454 5.0295984452685385 10.163107518802407 0.15605670591867318 -0.03902703199547472 3.074583267197118
P 4.6885990150225 1.847500312806029 1.7127676615491827 1.2294305692796632 -0.6907849712109005 -0.5722321757749564
Ni 6.170524884276019 6.405282908638703 -0.20330613758473956 0.7621572523063004 -0.4242793299103403 1.508633346431918
Ni 1.491866640487878 8.962708233421436 7.984913699015874 -1.8560125234500937 -0.9185422880986696 -0.670805185654864
Ni 1.3873899796395164 0.17163178028908585 11.852642499704716 1.0607402337573795 -0.6691133997747379 -0.5439143026668698
Ni 6.5715068718285305 7.430336939603757 8.18647386544897 0.809841959976773 -0.5185051185651457 0.9142747710715674
Ni 9.028839237525363 1.7377481907360344 7.063923303465458 -1.0918750074889711 -3.5009595888458027 0.38582051171350973
Ni 0.6274485263332228 5.799177471593073 5.411551224656469 -0.4968538588439573 -1.1266628045921177 -0.5135488030011349
Ni 0.6671487187614324 5.2660367321911385 10.847516945916755 0.18311062471267173 0.10190310269440513 0.04614795931097214
Ni 5.911417133207077 6.486724014615376 6.005023715595204 1.0037681872477098 -2.1840312936637867 1.0863947011006903
Ni 4.120707817537848 1.919423059923742 3.765458071134225 1.7744159935235249 1.0894118906604593 0.7164697775715145
Ni -0.12701846258791716 3.3784447914890308 5.415645808615324 2.1158080997203306 0.3175368968457628 -0.2792981650795383
Ni 0.06577523901442528 4.633957627529389 1.6540476478980664 0.3553483112665816 0.08880564608049867 -0.5013131801668915
Ni 1.9780445106872655 4.458618943972647 6.964056569673937 0.7072390030018658 -0.08175490988130436 0.32127013863594994
Ni 0.3529931256248317 0.8642988999953765 9.909298696309287 -0.956398696824811 0.8504173102959741 -1.405626726260689
Ni 3.2742309650075834 0.9623304866893366 0.49028747326492333 -0.9566455227282944 0.1693433957252503 -0.7082517605370964
Ni 6.454949217043795 4.656364257308818 9.522882426154656 0.21523347338914545 -0.1876589062049865 -0.17655739697518627
Ni 2.3148385910626796 8.205501196225217 0.9400468258458573 0.5643561154609894 -0.18906787073737116 -1.4141509616816161
Ni 3.8252632152430297 9.09682885608104 2.7668583191990757 0.01971290504789508 -0.7415557740058648 -0.3825187010337864
Ni 4.091392398685248 5.143246148133869 3.7082230716561737 -1.3240721053156488 -0.033589148809355054 1.1845835881683018
Ni 4.758475408854952 6.287420468961072 1.816783423561277 -1.0266970281297416 1.9540782546762796 -1.2557985177502309
Ni 2.6896216243988595 6.870734411618576 7.079943058128873 -1.420201024530438 1.5347490696823634 1.1747779149317896
Ni 4.497011535425459 5.457220573296132 8.282961300237309 0.8632486577326874 0.18936020516680938 -1.9260416602540378
Ni 7.303190814609054 8.595453527309012 6.073799959863288 -1.5456405197838865 3.4074619366062735 -1.3776250988414402
Ni 3.8670444926406984 2.6232559467530447 7.160698917363235 -1.2096546722043167 0.686534937685295 2.866908579991837
Ni 1.2391044619915772 2.9218357875674816 13.517846527784119 0.24709304110190347 0.46168116759756617 -2.7737788526146874
P 3.239884145416914 0.46260444356969393 8.426229497559692 2.0479250627251115 1.1948512886428968 0.10770762519132418
P 6.893084719747952 9.050241464545513 3.9077913290657276 0.22780256830340767 1.3451656927611544 0.5957958220275094
P 0.1522787226366989 2.8745725362313177 3.2054950845887045 2.744946758874344 -1.9256467388084642 -0.2875100114663694
P 6.858090201181673 0.6697179246980179 12.229166810721704 0.15603330887990546 0.33316483319100687 -0.6644591888321782
P 3.4079104014084383 9.452744136649455 4.921312563488258 1.482444603851692 -0.4915830973633212 -0.4122298549449739
P 3.888812810386193 5.560354901484897 6.152742261965943 0.9435370103707944 -1.6212885454365047 -2.515252372864862
P 5.575965385491259 3.800444141452996 3.551518406019474 1.8881286872583483 -0.3768941557581573 -0.7404311734831185
P 8.23153118549139 9.286144695792608 8.318558460459156 -0.16760275888505974 -0.04797061434200771 -0.2068917862926695
Ni 5.140157844322627 2.1052657312153737 12.518628176392555 0.18992919029640193 -0.5089894657652267 0.9917475086377501
Ni 5.005183009970553 9.35571132054977 11.41176694872548 -1.6270691566740239 -0.6317611843785249 -0.40974771195306847
Ni 6.977238651868847 1.45680641332987 0.8762128063699264 -1.298033772270358 1.8996163761829736 0.23038986941460968
Ni 0.7705674712829647 7.972498529955852 9.93821798622318 -0.05903509968628543 -1.1604473572417306 0.5745184007059718
Ni 5.459830143081922 0.889417417224858 8.544766858343792 -0.5116297316015511 0.3369173582549036 -0.0026716332948921733
Ni 5.146803799028884 4.440962106681024 12.31014326308544 -1.0417163843567092 1.762815947390751 -0.002232745985260671
Ni 2.2086159590626746 3.9515269677202363 9.449503764383072 -0.4583541601068622 -1.6602734113401343 0.3731681130568218
Ni 2.2862647406024452 3.1751893433893392 1.6822948327879934 1.4743181180898157 -0.16106675753875488 1.7126218430348634
Ni 2.3032269442100812 6.205632046142404 9.509638390144687 2.9657230164585893 2.707317892777976 1.409893986177475
Ni 6.601244703056527 1.9523336774380597 3.304427817683513 0.1728102712279282 -1.161927541331683 0.49526208887680506
Ni 4.52400837968421 7.939935229283528 8.687897067623544 -2.290842118072455 0.5460699155572918 1.6268444422577273
Ni 4.704744554704367 8.331689853169019 6.411841564787378 -0.7372080385601303 1.1994026554590052 -0.6421780088364747
Ni 5.961909492479614 6.924286913877327 11.377021184113602 -0.41173440336579414 0.031795547244042016 -1.4084834789831937
Ni 5.262413372704394 1.408285311809189 6.10006837744802 0.43392970851591073 -2.6338033685285933 -1.4645186155008907
Ni 7.968959652944187 4.08462441373721 3.5056585024637985 -1.4111170599512988 0.2628369341997215 1.138618434292097
Ni 1.6388849210096244 2.2005901239301187 7.877957008176844 1.9655744282413377 -1.0579608712400297 0.8352076924350713
Ni 2.0271382156501523 1.2285159917816084 3.5180924454071714 -2.045248030113581 1.3866206174718314 -1.1620165015010633
Ni 8.567555536649413 6.822335340339677 0.3989506533739326 0.6651919532331446 -1.6028203114289878 0.6224404211982313
Ni 8.706801429463843 3.1988256625282587 10.311472825454588 0.7612270271825471 -0.0021229598802737634 -0.5914524574571491
Ni 2.8438021414190153 1.4377321478452454 10.448214282229992 3.0829267540658063 -1.0277982316137202 -1.6872134302640878
Ni 2.4882060168675664 5.623904496628059 1.0022587818002613 -1.0872202823257793 1.1582560060173666 0.6997596639056851
Ni 5.494730792231446 9.242429708409786 0.2975050359925915 -2.759527742012312 -0.029585426966600662 0.1509432959515078
Ni 7.63323568391978 8.780329343608066 13.70359439096483 2.3541133673272747 -0.19056888076292985 0.5051811477627299
Ni 7.820523944229439 4.527040361845397 7.010946220731415 -2.4185495834244732 0.5029242334077532 0.8255339167907331
P 1.759319382706343 7.22940945303959 2.6864591637483817 0.07014200823272436 -1.1366880500386036 0.012522300836726822
P 0.7752233943540147 7.688843926405467 6.065089816682588 1.4081196678858716 2.7040669899408463 1.2322484983444326
P 6.913463770125471 3.6870592729545817 11.504791540729727 -0.04849280539406488 -1.78826266959863 -0.42817455119968834
P 7.540342509098991 4.296074661919617 0.667381514914985 -0.6620202403733824 0.32809050399189305 -0.014108414376924089
P 3.070121305215421 7.988597134929342 11.271480044079237 -0.6747369166091024 -0.0936406055752968 -0.353427697205101
P 3.4552487482780063 4.102891402237741 13.676322509314986 -0.08563110500725897 -1.1981248171878462 -0.058107959886325736
P 9.43509668629951 3.6068009216290213 7.854299099072072 1.1956262191357088 1.3784049144302584 1.8978687973642476
P 0.6269247349877295 0.1460345290341535 -0.025418899363097748 -0.8158051195387434 -0.0911144967193334 2.008961794088037
