# total energy = -340861.57868019544 ev
CRYSTAL
PRIMVEC
9.37577047849308 0.00000000000000 0.00000000000000
0.00000000000000 9.37577047849308 0.00000000000000
0.00000000000000 0.00000000000000 13.72238781268111
PRIMCOORD
 96 1
Ni 9.003223985947374 5.419823361139518 12.805402583270824 0.22569194971830805 -0.5166413258835296 0.018402927987219916
Ni 6.6240285360725935 5.428102166239769 13.59127026696035 1.082651174897858 -0.12405881285583793 0.8141333882632753
Ni 2.109801444274007 8.220356548726794 1.7406164283850007 1.0201186035812753 1.395825681009867 -1.576751639366394
Ni 3.8319054143685847 0.23197718182492028 0.35731060291112804 -0.820209419254026 -0.5395899642599029 1.2014137723517633
Ni 8.581876872464663 1.8427513812270992 6.288640359079251 1.1370390056201192 0.2228411105330743 -0.3281157008028736
Ni 0.9220938746120537 3.6718328894800596 0.5919767556338419 -0.6559686348626638 0.37677819900558335 0.049265164783715155
Ni 1.131214803805729 6.833942655426497 3.1644096423802885 -0.4990830052847921 -0.708456934569367 0.37167070257568896
Ni 6.019206975243573 3.9550655319188492 8.712233831232313 3.104522992179344 -0.8665952056074173 3.1789554002573057
Ni 8.447784606843173 3.0951855181484924 11.323068935204256 0.978515069107876 -0.19242444591442992 0.2463006271075952
Ni 2.3803767969219276 0.6831458076319399 8.249720523464589 -0.9051224151483379 0.8525711234141833 -0.7876934489041918
Ni 9.220957497660969 6.058866483254962 4.967010225236708 -0.6709355405851413 -2.5348161539294023 1.2362902725139742
Ni 6.637135862833803 8.542395504087366 7.944260742576011 -0.3292176756178008 0.2455940879588738 2.2793125201663003
Ni 7.23951034763659 1.273782765701993 12.010094436551352 -0.5049314936457691 0.747330728816429 1.7203865745819469
Ni 7.36556757818343 1.7764459342633758 8.25359084140953 -0.5887062621705796 1.2785725782219528 -0.42414794653879856
Ni 4.58883009540299 1.4557664655840445 2.2964552153003788 -0.19370614084033091 0.0389432140324168 -0.5224882715826098
Ni 4.341112870540358 5.439690618226075 4.490541083503272 1.5359112083112645 -0.7355170240109526 -1.1467274365524767
Ni 7.269194036138732 6.892044303451693 11.711755553141417 -0.9952915172352664 0.04679227776319038 -1.3568374726721277
Ni 5.843008125584459 0.451031739561874 3.9438961768611733 1.80990518756907 0.8952820320191485 1.4146633825416604
Ni -0.10247904360900581 3.8342774842330956 9.103308457843351 -0.6927374669515811 0.7725995306855469 0.3356413197559574
Ni 1.540045264050802 8.833119386928306 12.788578701196206 -0.5250724873700183 -1.0670206674494527 -0.0240243879390554
Ni 8.294640776143872 0.9408304138106263 3.901467066328137 -1.4693911131018438 0.6779721357169485 0.09713782009527788
Ni 8.331675068494933 0.8174434026211477 0.5825878593400816 -0.403012450111764 0.2153370888465453 0.03806081142746349
Ni 3.764878033098271 2.8502997758909294 10.243638385452549 0.27074281931035954 0.5449692262939454 0.030205834159418944
Ni 2.047940112392411 3.1883994256305823 8.304102803445312 0.44541456922705874 1.314559280729207 0.09309218927099451
P 7.888913695840116 4.962792066216773 10.54274514444313 -0.3860115446783932 1.6050011211303907 -0.8241833163001095
P 4.017339397689925 3.2740189592381506 4.517945522266037 0.03819682278469551 -0.30154077852782263 -1.0219296886480853
P 1.0806700265741915 6.808431184670233 0.2938647658631196 -0.9870642442294677 0.3371382160164581 -1.024970532356938
P 5.95671746675754 8.761610387495004 10.267982572816985 0.21677382129307182 -0.5557105239708493 -0.37079524194927105
P 2.2815186757701316 8.905294066046908 10.148734964177633 -1.293041461262089 0.567084570135746 0.8529267069813891
P 1.45158487206795 1.128214557336782 1.1593139871414584 1.1483767992304417 -0.24980504071642787 -0.3549539040416403
P 6.675576520717185 2.4846166101773965 2.885832069853474 0.05984474007177436 -0.5305247687338411 -2.760565953468839
P 4.544042041083744 2.4911608977877866 8.115351672621742 -0.35535705301732995 -1.0121384135892764 0.38452107617579584
Ni 1.4037028135776028 2.2716741170439003 10.344841386735231 -0.5140506823382179 -0.8906933842072015 0.8945955474750852
Ni 2.504999534625804 5.652145571308368 1.3209757050815039 0.40256893481644224 -1.164721559137052 1.3192016645972247
Ni 4.1670891995712305 4.631471098342896 8.043816421031837 -4.3197433313968965 3.3169521633504746 1.6640051104684246
Ni 8.943631590457917 8.162751816523015 4.541218059094848 -0.36110989634070717 0.7982326578726189 0.49990627251703584
Ni 5.990835894571595 6.189011549615744 7.169906504711069 -1.6195916173500557 0.9054412319403374 1.1243714374547797
Ni 4.456950511552349 8.464726623622507 2.9880223397398438 -1.7456188667861743 -1.6817968872342068 -0.8719626405669175
Ni 3.8767309717686924 7.639161928840728 10.043950418672646 1.3786594536432255 -0.6082921547223072 -0.2345270315114348
Ni 3.1436207470815516 7.1490716681382755 13.001948729451525 1.2743569974787086 1.3159209369634242 0.32651056109928284
Ni 1.0524677097660922 1.6409754304202142 12.650998649054566 -1.1266481493040983 1.1174795954309529 0.670483283539071
Ni 3.0433375088570065 2.8821023884617643 6.348539342254751 -0.13442087281645237 -1.58718466177426 -0.9358504403598141
Ni 6.0166380142045375 6.4183335133156465 9.320108142843486 0.3889659993210269 0.3144772840838326 2.6049365648955716
Ni 2.2129724197249137 5.097231235336234 12.73926027470885 -1.804214822052512 -1.8315590183934196 0.798896773819179
Ni 3.322932352452198 1.0501706460633047 4.337386001879713 0.7663784894764996 0.5774448303241475 0.26505373934538223
Ni 4.499975921071089 7.4592315226358625 5.351923095662145 0.9152718448775139 1.1829154564372595 1.6667644183811163
Ni 6.100166751054058 3.9804269903516647 11.570456132955304 0.2302677420144486 0.7292579304751182 -0.7753477828546452
Ni 0.5403106362845356 8.650723153156775 8.646448739515547 0.03189582026733217 0.5322263248059802 0.18145432005617135
Ni 1.4335646417138386 7.363889315314864 6.799291683864205 -0.7715520632576389 0.5487739447520161 -0.8942402210181953
Ni 6.596585656651946 7.208382790521267 3.567834033519128 0.26484805109247933 -0.5278639340722264 -0.1848162945498688
Ni 4.497472590423561 4.459585102982893 13.477498108126824 -0.3765419146250612 1.7114849012169426 -0.3696780976256924
Ni 2.3622628088656614 2.8138280297527953 2.724896036528105 0.10112097311274199 -0.9279311855127375 -1.215719647451474
Ni 4.564837499421631 0.39920716969592646 8.688151227856887 0.9572782712162868 -0.3641605102415728 -0.17068011225880284
Ni 8.383785599352453 7.697563601512821 13.57076920780723 0.33912773564266113 -1.005434004985907 2.347236180591467
Ni 9.370172880639993 2.2694989383539137 2.3023422614186653 -0.7059691351505067 0.18056754657584387 0.11591278670993585
Ni 3.7528864229926993 5.37221319998542 11.127923529093744 3.280770571223595 0.8913994091352906 -0.868590381660575
P 8.272317067260865 8.41595386696169 2.388107119464573 -0.07674562959217104 -0.5327611142635277 0.2168877211631168
P 4.611791356660648 5.636188010401657 1.8148265872173772 1.68459861834906 3.72777331087338 -0.6935442791235927
P 8.179450063276748 3.1463490962142506 13.495007359004195 0.18417429009049574 0.21457784208301758 0.1239323145803027
P 6.066704627155087 0.32281808186547734 1.155939647440915 -0.5628993284098048 -0.34331246314797004 -0.5154120814621188
P 8.504536143957344 8.010226786657935 7.140896934087417 1.2476740888708837 -0.9849713662561811 -0.6120063703491009
P 2.6789200721225606 7.73639804174525 4.375451628954475 -1.2640319614036166 0.9472998198473361 -0.8859772096784548
P 3.3934568960128777 6.698369018110965 7.45986063681732 1.5116389660274612 0.8339136562139959 0.6962786473356202
P 0.5819728088139475 4.367036875186101 2.8795606171563537 -1.4914090121338315 0.3081150893112306 -1.3289368896071176
Ni 5.908985420590642 2.8364142602018347 0.6981348514753937 1.9195863915469973 -0.8781327739333715 -0.35514467989620774
Ni 1.5062174851134273 6.6951156258462 11.08436838855783 0.7871262635468121 0.7932267200175952 0.08479523936952493
Ni 8.988916560598582 6.905536036791738 9.871816902978955 -1.1421336465342071 -0.7467460599575526 0.2249967234234964
Ni 7.585391886655074 4.15889477640292 7.118501969350773 0.9281034494245436 -1.1758053277550395 -1.734859057166509
Ni 7.695032143554647 4.392632727874303 3.457245886250772 0.6345644581552748 0.8141840389955527 0.1986413733584192
Ni 0.9772834084083293 2.595203819868731 4.552909644553525 -0.5054467427192908 -0.4235126269476448 1.208056217368945
Ni 4.383022563403458 3.7547897043464378 2.24424155097049 0.08915043101442711 -0.9742694064576445 1.498378244362813
Ni 5.986213639855373 7.484827375324064 1.1587851937013065 -0.39876575902026806 -0.4889909111561127 -0.06665739211823359
Ni 3.7354568661621617 0.6404832404205386 11.791469289090266 -1.3781539747617169 0.2608774964805055 -1.4434106298776819
Ni 8.897502800997861 5.815246469976485 7.700002239345861 1.2705157693557474 1.7561501053348014 -0.380448448768319
Ni 2.18387002897613 4.795312682858035 4.134486833801017 -0.3816090447353234 -0.11896468616238222 -0.07981552676674641
Ni 1.0600620836406134 0.1821627770931671 3.5334737108335155 1.319074137880425 0.44860427980895 -1.6922445649300921
Ni 1.9020437520696594 5.762029598233542 8.821395923850897 -0.264411477775693 -0.2194739938330543 0.6229019342156821
Ni 5.350648928489865 3.814044572108136 6.475155368706433 0.5334357717330491 -0.9412574703079982 -3.273287375472673
Ni 8.368746863926857 6.134585203515007 1.9052577660995187 0.6336761420130506 0.49298511991717037 -0.26629198262785747
Ni 6.869129921045113 8.27005750663894 5.696752673262455 0.005256363302932883 -0.8044290164913178 -0.762680471799622
Ni 5.818452983390173 1.6444538411701493 10.30416835796355 0.07064748711423317 0.09333438718878764 -0.5803175238862521
Ni 6.769118580156815 2.7247019580846454 4.821045421791383 -0.16195790189445655 -0.049721278484527266 3.081424458488667
Ni 6.12268735111159 0.937236681087041 6.347015779594739 -0.22695718958397687 1.318318490661323 0.3125492138231843
Ni 5.615111278957306 8.940865738244357 12.716179941169454 1.0638196440136518 -1.4886625597369458 -0.5078766923170221
Ni 8.149625738221374 0.48232149750192405 9.815926061570563 0.18469905224571417 -0.9891308969505094 1.7307134104292519
Ni 2.42917768089339 5.181978822313765 6.382460878894279 -0.31612150455547494 -0.8387558147976458 0.09397999119258654
Ni 3.1950093436324805 2.6885958669849144 0.17401335762189046 -0.9062393023616006 -1.5953129473083492 0.23241178494064488
Ni 1.6611520879238812 0.3519064089589377 5.733666018177737 -0.2301841811617068 -0.5012167637983432 1.5947809860642792
P 0.35526293469607184 1.820137023467413 8.319389059204596 -0.9731658889808209 -1.5235598858347632 -0.414695285766331
P 8.673768796346373 9.18286374327556 12.230585362285314 1.4255538042019191 0.6392487510048217 -1.7011570369283735
P 4.9675362059457955 2.3716198275406892 12.34618298357979 -1.0224536794723553 -0.44341527940884273 0.2272544091094215
P 6.695143753156847 5.645835677953364 5.455952891664788 1.4380956454226717 -1.1029940002202683 -4.19984044969096
P 4.166948563017999 9.470277979230445 6.381609558958717 -1.0891740636180405 -0.09930680272213865 -0.015663931789502056
P 5.172359282072703 6.616902950708844 12.499654028659611 0.3998561638709694 -0.18996004353433737 0.011773595596160367
P 0.5238795989819444 4.172967807496323 6.0072631815661 -0.7535990783236441 -0.2895545527002239 0.8375399401126736
P 2.059894219417121 4.335196759534403 10.700841256970238 -1.8366816843319658 -0.6376793496351727 -1.2831401429879772
