# total energy = -340860.4350179771 ev
CRYSTAL
PRIMVEC
9.36913178168740 0.00000000000000 0.00000000000000
0.00000000000000 9.36913178168740 0.00000000000000
0.00000000000000 0.00000000000000 13.71267140884988
PRIMCOORD
 96 1
Ni 1.2962943220024983 7.600848618362195 10.114274658001014 -1.1786299416880281 3.0752908347871037 1.7594022937235119
Ni 0.5194387144458686 3.271766369154847 9.591369364830815 0.2762467798477242 1.9616964333431697 -1.7571518071264385
Ni 6.679638114332262 2.713703409327755 8.253985778900143 0.08475770126337016 1.2131048355364462 0.62151405272922
Ni 6.6767898982992975 5.955975751930731 8.163495894323923 1.2731112979970656 -0.21557722988180938 1.2183863956503598
Ni 7.599996027378643 1.163730477757761 6.540601137004714 -2.437349746850112 0.08592703898112299 1.136807092114971
Ni 4.748613227904841 8.275679066409102 9.855694118734679 -0.15795212316917312 -1.3126949738269587 0.2471768590649614
Ni 4.094797742232728 1.0673876966164342 1.6322741950514448 -0.31684732697790596 0.6424577448604226 -0.1361584243328494
Ni 4.697186064072814 3.3611666237158255 0.46694346960147953 -1.4732397974239724 -0.3509712652448085 0.0386922743638753
Ni 9.272685845789939 1.6583082012711672 5.28893573688188 2.3768069522700483 -1.66743496208558 -0.9882240688655238
Ni 0.4908253862726107 7.116080375725476 2.1338703351118675 1.0750111418540969 0.4719131297382195 -0.8815461704902947
Ni 0.5477166277047185 7.695467479273044 7.8242583741872735 -1.5721239107863956 -0.4500260998571411 0.36927314887778984
Ni 8.013165365660406 4.029766599190625 12.79021952971546 -5.013651164507494e-05 -0.9783741726546377 0.35985391244641896
Ni 1.1511477339016098 2.445643182620131 13.086893084596342 -0.9729990243856533 -0.6054402870958089 1.755951873281066
Ni 4.8896467671949715 4.627676476084143 8.754772425982775 1.692932335025736 -0.06387340161519323 -1.1408941177001513
Ni 8.526612520392195 6.4888170092553965 9.58451303426199 0.40419078669058134 -0.6909240678919262 -1.4673560849496858
Ni 6.362961463298823 6.981811349513635 6.220670586536249 -1.4387060253131612 1.281623963453767 -1.0477980717744149
Ni 4.467689183390445 5.661138546860576 1.8797738622711142 0.1266877658382528 -0.5615317586383167 0.38637149912097324
Ni 1.5834675773523772 8.188677309560093 5.315854189132891 1.9389352283872545 0.5538958393596137 1.902037841140273
Ni 5.686472678943249 7.836351112456175 2.54470113812446 -0.1531744992748717 -0.19388740361320156 2.235091345564396
Ni 7.735323765471158 8.177584257642236 1.5867889345355533 0.7024220412291967 0.6886404140640721 -1.0482055916254787
Ni 1.9508031234194783 5.761500685495787 9.403423646268807 1.1166069630180124 -1.8673588017008487 -2.888963760019663
Ni 7.663471894560643 4.3882202084180895 10.362268078460607 -0.4899177938457562 -0.5735871471409542 -0.18313839262681364
Ni 7.8246959126370745 1.312053201500671 12.65849609658308 2.007962406289245 0.42123334399516493 0.13808880858634281
Ni 6.259901014737645 4.2283078687778906 6.540272280482486 -1.0463747090643267 0.6803540056855637 -0.07347055838532508
P 1.00865261006825 2.009144706436792 11.094442297000123 0.2782926066331594 -0.9632293465933992 -0.38332062810979145
P 5.847293824357125 7.898861959074373 0.3754435926293594 0.8826198631704477 -0.1679478009293043 -0.9899407944463143
P 5.537644022089222 8.62142813306848 7.411122764779585 -0.8271200303309303 -0.7090691142320692 -0.9288346711636133
P 3.935438181362085 5.9869032556307715 4.620950376445773 2.8787716499780096 2.8096753094009803 0.17849729431037645
P 0.1026931785990328 0.18764871708751812 6.957028122374179 0.626372666373102 1.2448906125884753 0.9788076606476305
P 9.793553352818133 4.761645690081988 3.009917876755956 -0.7588945223946285 0.7176861664771188 -0.7327602872014218
P 9.641398654215086 8.614485606488131 13.85569404964133 -2.254697035610465 -2.1633462545106097 2.4055706546663025
P 0.6829956463124583 9.262604660094318 3.7936654175818223 -2.2717578477474945 0.31487091997782546 -1.5918041628241424
Ni 3.2172099153392346 2.7968731913166263 12.235514466685125 0.8796695222928721 0.7309913682264573 -0.08219611118378102
Ni 5.800569964632161 2.7455490879331594 2.3918193949024715 -0.3948558824429006 -0.49714799304560825 0.3361329146803953
Ni 2.656935840433921 9.424784329602863 7.167037209146797 -0.5364750727800051 0.32573357372394224 0.5586351538168122
Ni 2.5453775894322894 3.8800103982995457 8.200300654331457 -0.9345672027720163 -0.3270353232545013 -0.6497144264228359
Ni 8.639885322492619 8.126869147818448 5.6034087681424465 -0.5158555967574406 0.6924047662025108 0.48132413863947426
Ni 6.008976929886239 5.623427791818871 4.053671001777806 -0.353519742698275 -0.7074359495040202 0.8412369293482866
Ni 1.2696391423519024 5.345408178127562 6.211743677864512 0.4150254154122401 0.29656440835915376 2.2254612786737997
Ni 8.766274908955372 5.8866254391807455 0.21486698155252526 0.25255200733394567 0.34781189368022036 0.6729088622614281
Ni -0.15679054496196393 3.2949081244226757 1.2889020771011555 2.0535370095952503 0.27152983398802916 -1.39341604312711
Ni 7.526813739768521 8.639548033751872 8.279642209112865 2.1236476503694073 -1.179821390892968 -1.122804607188292
Ni 4.383835454788396 6.7676142608767575 7.987781577179789 -0.468083214469168 0.11259554941124479 0.3995342617551764
Ni 6.300591153655936 -0.06423757758818231 4.920024302864962 -0.8459849855562335 -0.449541961131871 -0.4413149452363883
Ni 0.8893264119846118 0.08298146244195438 12.193745940709617 -0.08379919400484277 0.5577818046775813 -3.087206612388083
Ni 5.913552323650275 0.6282077749441672 8.886523966510218 -0.716279001716947 2.2160147885489194 0.5185277442729651
Ni 2.761945068386074 1.440269768642464 9.275017822666928 -0.7385090167597411 -0.27853763276443 0.8488512513604348
Ni 4.181424733814242 5.613946230551242 12.995196455858787 -1.2945522414796606 0.5431563414549225 -0.001142341134559323
Ni 3.810107306780005 8.010214089178882 1.1665562078746747 0.42337841536262566 -0.5844893958757547 -0.8150607851735511
Ni 5.58005808123799 4.013417464396147 12.09073608545955 0.39125196714172616 -1.2127459095351307 -1.62079540785017
Ni 7.945370328770527 3.473736740939694 5.225116959480124 1.289784130667056 0.5565610448966027 -0.808006449429931
Ni 4.2674802083628265 1.9178612564066506 6.227555024500135 0.09626621612360195 0.28337387781080875 0.0555805654787817
Ni 0.5992637164223449 6.432311776048809 4.443412826275275 -1.5460830066379436 -0.8265199348530863 -2.1772680067980246
Ni 3.6359538869749883 4.284166631898049 10.464674561630005 -1.880684315165161 -0.04235918169250125 2.084038520618217
Ni 8.155904086917639 1.8173398425327525 10.138929528036355 -0.8043367138878277 -0.40104864151717384 0.943768152544994
Ni 7.7644898724139715 5.848755408900356 2.5340877857489965 0.12382458535784481 1.0755682999091476 -0.5694661829940451
P 6.926205552949036 1.3072655752084197 1.2385242560181142 1.4530545807253492 -0.404122138236175 0.2825138438033586
P 6.215491330539465 2.541920379839646 10.56461227859978 0.7971026580332337 0.7183695656973886 0.28569224153134026
P 2.026084096527575 3.425026625297006 5.818176436899086 0.9362075665889167 -0.7460647176198119 -1.1700571124173529
P 2.896860564684344 8.843261064030573 10.745825339131239 -0.20878206133684687 0.7745497124333822 0.3163822144160293
P 2.4270548253523696 6.317539912878406 0.9955676807536554 0.3205576859499576 0.34557271993705646 1.2229989547217066
P 4.824531301967681 6.08334909722066 10.615061305083646 0.5486093941496939 0.1273930194353935 0.44066394191595076
P 1.8326771111049933 1.9761278863704657 1.6521030253546156 0.19241930370810734 0.19809681370885884 0.049567012294850124
P 8.584138988952708 4.5435885191899095 8.12409963249166 -1.0730187940144165 0.39868734037384884 -0.03143893523557166
Ni 2.5551964394406634 4.023077039165836 1.7994860251892815 0.07219580543795953 -0.962545176042181 -0.17985637944143218
Ni 2.5914924555975727 4.7629573685182205 3.9180668743005134 -2.029666887845872 -1.0803736917175908 0.9385015048294159
Ni 3.1965416108368747 0.5428521745326309 12.658345253562914 -0.8068396828153394 0.9569838799043195 1.4070426327716092
Ni 1.0647362323489056 2.858053621235216 3.769736655252254 0.16028359951582719 -0.17413336091472592 -0.9106646851228059
Ni 0.43454969679236377 0.6016668987001577 9.17845299310461 0.4752259961615364 -1.2926817639298254 -0.09859537847741084
Ni 6.579781908808167 6.076350355850186 12.710933252811007 0.495443865870308 0.05680980990019248 0.3892639901774199
Ni 1.1684150436014509 2.0914618974421115 7.183766730687783 0.5221835958579975 -0.30967446337855054 1.5654575545098137
Ni 1.886024946932934 7.127922958178324 12.717323000621802 0.20119525012852446 0.4103346948047901 -0.12647899226155634
Ni 9.232211196900458 0.7850507870435806 1.832903844091828 -0.0671423021744521 -0.02521275182020174 -0.80302159462083
Ni 3.962749200230797 2.580324450626216 3.7782382053453825 0.2042296660794741 0.9134571602662785 0.4649991762272056
Ni 1.7535547940050706 4.696867513595444 13.508640799851069 -0.7640657821829228 0.34090976724374833 -2.624417299328003
Ni 2.4969860242669726 0.8684276268427424 4.079395826651845 0.015608653071534407 -0.27048030967759223 0.545630256916712
Ni 4.06714943462327 7.923231070593248 5.913315284618585 -0.23933833685714906 0.46696735569716996 -1.4322440717379012
Ni 6.3894667368424205 8.098218343118441 11.749894569978022 2.76191475418725 1.6705336556155619 -1.0807413594696549
Ni 4.3857936033110585 8.115035934497287 12.439819626086466 -1.1747498899073316 -1.5866200475200418 -0.12233823062030542
Ni 3.8956943247442193 4.867179589408634 6.436617828972329 -0.5518798373708496 -0.2528721096775258 -0.41936800865165197
Ni 8.892233515360507 6.897798345672901 11.812012849978517 -0.0829245047093733 0.3855405185792457 0.40730130729510505
Ni 7.728090795808501 3.601025764044437 2.7753485481780396 0.12442596638726959 1.2548793483700713 1.576617170671059
Ni 5.715835537651499 1.2056573420587857 13.229066847212826 -2.3908045521007213 -0.4809107052511395 -0.44510680817865284
Ni 2.7419888178919547 7.357579114099378 3.3205092767584405 0.7537376607840374 0.21660258582253017 -0.08895759827733067
Ni 8.137165823542878 5.755232736396931 5.926685035536475 1.6333056245020385 -1.435059172589193 0.5074480894200357
Ni 4.681698889393576 1.162990316354458 10.874203055338054 -0.6342844650210109 -0.21681290206112336 0.6678358186138951
Ni 7.871663369785909 1.4430992464120527 3.4787267404763926 -1.695705012674867 -0.6129502223196088 0.7319313635422233
Ni 1.9482734578638854 9.221202467167787 1.3015822599268554 0.008352742840069486 0.01639721041110079 0.340726961808981
P 7.387410429391995 7.392394807449683 4.1622620487740445 -1.540747196247327 -0.6816426425900002 -1.527934103643059
P 4.204650811267257 2.635012072285452 8.32579923637074 1.7486486547514337 -1.0219785396081495 -0.38573437975760666
P 6.052365378730494 2.713422335377134 4.960819376058152 -1.5089058833670141 -1.0814682103333504 -0.9065856299574256
P 1.3629088482997687 5.403065814531698 11.28779119380624 -0.6382208239609395 0.04091396460554244 2.1685265131599687
P 2.359147358882241 7.100059160540056 7.223670799457501 2.0706644133041565 -0.7908685041980638 -0.2880669124111039
P 4.368976011932212 9.388151024705207 3.578389941887727 0.9549107994253747 -0.738563009926128 0.07231021952863675
P 8.055841760496422 8.469395233177368 10.319676005809779 0.6156007725685785 0.6477367338711747 1.0509062783860934
P 6.2808410240589385 4.724141055937406 0.6677483214044164 1.0139523268695636 0.09290886961559483 0.5197271638977049
