# total energy = -340897.4622157703 ev
CRYSTAL
PRIMVEC
8.99507681997535 0.00000000000000 0.00000000000000
0.00000000000000 8.99507681997535 0.00000000000000
0.00000000000000 0.00000000000000 13.16520416233914
PRIMCOORD
 96 1
Ni 6.41367876674735 2.048979584891065 11.360729125365424 -0.6474634256051301 -0.3184216134435613 0.5721231610009179
Ni 4.719950751184426 0.2902729324082886 5.969827488411049 -1.4486058009253762 -0.2697426601806193 0.45055831821152725
Ni 2.7824471550178154 1.5550149338135644 4.726518956378213 0.0704939922555044 -0.05661363472898637 0.7109979558236659
Ni 3.3078675902129167 4.180471010705993 4.930987849696484 0.4136699298256102 -0.3598037759347739 -0.5133240885848385
Ni 5.101935689227895 4.412418065111609 2.8831011666556585 0.07325741393325448 0.8898760305122287 -0.3076684886921153
Ni 7.284735034003873 6.196717510551605 2.4949905812046715 -0.7592323653500215 -0.25139501091136707 0.1937688757574663
Ni 4.983479520785036 4.453966325574633 11.529440788765399 0.8624115065433727 0.9723302804534028 -0.9759748191845257
Ni 5.756795281829993 7.912753316967161 12.239650687912889 -1.3034896531786067 0.4762940324147345 0.10644289954628763
Ni 1.7510716311619248 6.4379294942226295 0.33952277776164436 1.1477687333327975 0.5526115733305516 0.0575510589415912
Ni 2.682700746644904 1.629269294091171 0.36441845225471914 0.5776173513462698 -0.9480822065393157 0.08503075241909872
Ni 0.6889968091604924 9.062989787728963 4.746675124822798 -0.1284821387345142 -0.0442527991707883 0.0380474416910248
Ni 8.448149292507248 2.3261358960810856 1.3920889039121427 0.6812448929309494 0.5960966410973798 0.05341801060982414
Ni 6.738589941500521 0.806862001047296 4.838752330582422 0.8563917827118541 -0.8406535460409909 -0.9286616359208588
Ni 0.7219691632529934 7.351550465638284 2.318524261960321 0.037404151680071065 -0.20471843279043453 0.7374088417170268
Ni 7.533062123547651 3.801121630210838 3.6527910121793674 0.5384774479220146 0.6447997627300379 0.4930460550620928
Ni 7.48080072642919 3.8563873830328386 12.522491887739548 0.9735572108819683 0.3870297015302625 0.24446485945043706
Ni 8.064320363687655 8.874902728564244 6.910296965527079 -0.45518321857804833 -0.04921425694112169 -0.37450251559752923
Ni 6.770252612388127 0.7427675801922886 0.504938644964682 -0.05497558490493113 0.22235697180780412 -0.6972680078320831
Ni 1.818363801875041 6.321317316555894 9.12800260594125 0.5173149549117865 0.659741985862167 -0.3580171163479963
Ni 8.931733624776712 4.88098961394033 1.3403887995957804 0.6036831951953862 -0.5537893956887365 -0.09203649431297052
Ni 6.485027717167941 1.8744660968540152 6.959245475802385 -0.9820189684960765 0.05761893606504915 0.9243820347088982
Ni 3.2891308449120986 4.358834391680513 0.3566799875488651 0.366892050240123 0.2962368498164059 0.25457752240440673
Ni 5.970662231552631 5.63575752630056 4.8568414303423575 0.5356906292054968 -1.0697133837902675 -0.5037526428463196
Ni 5.256462116267144 2.8911166797317787 9.262273918689388 -0.32713019696115275 0.1426517453666769 -0.11339182006029504
P 0.11363300817867346 5.664955546102027 12.372514271117305 -0.567886497211751 -0.5261554360215519 -0.5267187647241897
P 3.873001290171874 6.245407862118254 12.414485300197295 0.3935533615813932 -0.18660706790170442 0.7100147659747902
P 2.4288057044649256 8.375819878698378 1.3220100583578391 -0.021923539545968696 0.39326436958606464 0.27752101857445755
P 6.412329505203845 7.789628703583771 5.77656286295005 -0.006502834115524285 -0.7714147663488263 -0.06917810165755828
P 4.7222534908853415 1.0476026426857883 12.646903696635441 0.4052557376199859 0.44993302592270246 -1.2371014555613598
P 3.9319999999309077 6.009682875390822 8.204120950241082 0.09840280285063052 0.6743265685445612 -0.059451618398413744
P 4.781719944646124 0.8285122517743913 3.7817444354307024 -0.43800233592338766 0.7487268378330072 0.23572002337827147
P 0.15592875953679997 5.53797204470421 3.509001108995642 0.5377824787375189 -0.27826458160870143 0.04018917062437594
Ni 1.3109784959781352 0.9915183378607273 2.490211496817574 0.6855820868537225 0.3740474303379816 0.025253118139833927
Ni 1.8676208432899621 6.381179553702772 4.748544301814402 -0.7039341069983489 0.3266074916884633 0.3232612009240497
Ni 6.1204932284204805 5.823106989154828 9.015426519304988 -0.37184399492875964 -0.3790590246199601 0.5860482557224422
Ni 8.522286716784418 2.5673928551368927 10.21302566827463 0.30213290358586675 -0.8947212744196721 0.11397134671284888
Ni 2.308262678168111 5.2205807542868445 6.8539239187317085 -0.5865624763546996 -0.2763791916605305 1.301131180248759
Ni 0.7569672086761444 -0.11982881718645243 8.861551335837405 0.2876845893710207 0.4579409838288435 1.1692428440461733
Ni 1.3607032813948048 1.0729957449345688 11.32940916690987 0.04130091563131597 0.37223634527117183 -0.3208443639524409
Ni 4.021177192879689 6.6334644771075 1.701879354301092 -0.037438347352116166 0.7342029331852193 -0.3618506311614736
Ni 5.794277767508587 8.08502703084199 7.933075894335446 -0.676227642222016 -0.4696978672544556 -0.40413730774482653
Ni 5.252819110099678 2.832621694282321 5.1306380802890486 -0.8749839438917447 -0.4150321002804594 -1.3007475716570953
Ni 0.7082651635094519 7.26573743147131 6.871802533690857 0.6987811020424998 -0.7293096096486601 -0.20282584375341198
Ni 5.109257681870654 4.475203702269416 7.219390297451883 0.3459193046431978 -0.27233484638782773 -0.6722977110399905
Ni 8.386533015353814 7.116608050606084 9.010845326610939 -1.309578539685164 -0.42365249495961876 0.27793573751437295
Ni 4.781881856031345 0.45752829284897256 10.363766966930498 -1.1315795251674448 -0.5748094495838294 0.3993000342571833
Ni 8.286624695595682 7.19547688536248 4.670632543246199 -0.7809116500956681 -0.1627109780103972 0.2597492964133333
Ni 7.2424221919995295 6.050376603542959 6.885731410358315 0.054928790827395726 0.13159857287630886 0.2176765356129993
Ni 2.2937446239599875 4.98991100080908 2.68687356284512 -0.992599058004768 0.2003953799350484 -0.8599980120058738
Ni 2.1993862666841433 5.269190150160884 11.37588223200669 -0.04233347066088838 -0.30161148386475795 -0.33810906457015966
Ni 0.9501589740137939 3.1879362291491575 3.815552432172481 0.3816165009344912 0.15611095619537632 -0.19235271213623
Ni 3.8776697351124048 2.5275626543725993 2.7647061647361046 -1.514131650542328 -0.1749527714922277 -0.7834938090005474
Ni 1.2281968027455712 3.0104993411011787 8.18667679749894 -1.1862638040842022 2.071309245977007 0.5421507830085438
Ni 3.5350472538314794 2.7077430408923733 7.02924516467947 0.047301870409757245 -0.3857886300343098 0.09407177957544444
Ni 4.284211233247682 6.694478084104836 6.0081123349541805 -1.0739299929747763 0.9002267776189335 0.5502736692259943
Ni 0.8010754680410471 7.460633763892255 11.20048182938171 0.5090848536925103 -0.5083896273976987 -0.002700686760614704
P 0.10131604930185616 5.294673203179231 7.902611367698475 1.1266885156237305 1.0798008499332565 -0.04877588385212245
P 8.56761290956926 1.5890253197868691 8.127710470016952 -0.554965675385025 0.15891371575149407 -0.1793593852003556
P 1.6428878406036236 3.215281263097544 10.494221668525908 0.9086026603874545 -0.057724094184345744 -0.5572074202313501
P 3.7664815888505636 5.981933062979384 3.8285862986827475 2.175181042362009 1.1226189735400471 0.2716699591103192
P 6.850065930224977 4.0559701505482275 10.260644706175734 -0.46365577482543374 0.5390446332793942 0.7688498338351275
P 6.4958847750546855 7.84678342256668 10.0128492256801 -0.5844737121464709 -0.47612665359893486 0.36571705609541527
P 2.4363885543394286 8.331672040994865 5.879238068380065 0.22399682140407232 0.1120990693908005 -0.49022169823942024
P 6.7930731226272885 4.126824371736199 1.537774969318342 0.23878992055284678 -0.7028334177350025 -0.14756100974283617
Ni 5.191922439102781 2.9399329623758215 0.4703849563431922 0.23603935439090315 -0.18560150945532553 0.11332060050272742
Ni 1.5480167639412472 1.0149055379481624 6.998714973980715 0.1938436948594597 0.18095166938813997 -1.3272394473000368
Ni 6.756786982183938 0.9107335517125523 9.177582570618917 1.376242359561301 0.0362281290940989 0.15900344725182292
Ni 2.789004566119254 1.6087155432450981 9.178003540220491 0.5376598371167256 -0.7710434990523366 0.7242995580285785
Ni 6.3445785855659365 2.0245399607996952 2.6420456973236814 -0.30757618608862514 -0.36165882686564166 -0.15462408723720467
Ni 4.228459746270018 6.909622334755326 10.298362862870594 -0.2953675598375752 0.11065822317921588 -0.30763506435101856
Ni 7.852972035512893 7.272474744111883 0.20042470671853668 0.8317973812019417 -0.028777329243008503 0.31823340869215516
Ni 7.505681109291438 3.726084698237998 8.142165558686377 0.6389548739134867 0.28928947196429533 -0.08921599414503989
Ni 3.17703419587763 8.423304889952828 12.233292068012194 -0.11039802753929374 -0.3238291576123778 0.471136399473195
Ni 0.06539780750603409 4.922834711942926 10.071631154084475 -0.394060897345431 -0.10908033716913473 0.7238964090528888
Ni 8.548750233191047 2.2329648889635263 5.854540285580037 1.1335374202247641 0.7427307681505726 -0.5139768916774891
Ni 3.653656338582602 2.68937509374678 11.36544164618304 -0.9038036963369145 -1.2855472097675733 0.24955461526851863
Ni 1.1472411101352187 3.3625396679557746 12.666217026369186 -1.0641304903858513 0.15224967346775714 -0.07962680779470802
Ni 3.1329942990975987 8.21642711502555 7.978745699060033 0.8929243304202493 -0.311892811186108 -0.12985742181548604
Ni 5.530497135753189 7.617336999555028 3.632161702686858 -0.4350941611376571 0.9139893786206646 -0.16736518895295693
Ni 2.9622587433823653 8.25937860749382 3.674948585246821 0.7500699821244631 0.2301744109696939 -0.7000463419081686
Ni 3.2853439175133254 4.250020945735242 9.334709474406349 0.08668577152401846 -0.13474791713856793 -0.32964499296320643
Ni 7.082822541556697 6.144357167586621 11.330923038361682 0.8471959751451991 -0.9198347816578482 -0.687280814712384
Ni 0.5568195503278742 -0.040096455042211925 0.24935072930145108 0.05755028761064282 0.07440849681856218 0.12715056440728423
Ni 4.571181173397468 0.33168356819387523 1.592015283367278 -1.0888231080365247 -0.4996018539027396 0.29447461570966055
Ni 5.845720612623987 5.6425578044798295 0.25619778188089554 -0.2998281667120901 0.6710694950598443 0.8995593192382636
Ni 7.956523361438492 8.845875615224953 11.25868537433777 -0.10403069056036922 0.46766361043324617 0.09690359259728472
Ni 0.018919345363039377 4.877346607772864 5.662552061539195 -0.08520610165469843 -0.8437866923533339 -0.1417415748475817
Ni 7.8369068280682175 8.74226132376066 2.620033844502926 -0.20703602518001762 0.06654220669660799 -0.10226202869572067
P 8.453951117144324 1.5455251276242397 3.6246310242587043 -0.4449944509705046 0.7460541760968505 -0.10060392426700737
P 1.8805557639537052 3.173768982942346 1.6319057511471815 -0.5701066447915214 -0.8117618027073051 0.387612570616926
P 4.666654920215943 1.0762069874081128 8.148089716370064 0.4603909880312329 0.173665677249688 -0.544940687048855
P 8.41753904562358 1.6671205779249891 12.395289805971684 0.04522930415144469 0.3274225313905909 0.26828304491595734
P 6.137628850023005 7.827066213877581 1.4261343706855787 0.2787194097579329 -1.2080932412544678 0.13356572390500868
P 1.6489775077033135 3.241528897657211 6.024160451752639 0.10816476733340082 -0.820631337282793 -0.8936020732135643
P 6.9021024504195205 3.87964865204288 5.878460893731005 0.49473732672158666 0.5850473252617536 0.5807204157516257
P 2.530486054383528 8.514586930909477 10.08132065098224 -0.3514386917995302 -0.11932824014938803 0.889914597059648
