# total energy = -381167.5684915088 ev
CRYSTAL
PRIMVEC
9.25342097295781 0.00000000000000 0.00000000000000

0.00000000000000 9.25342097295781 0.00000000000000

0.00000000000000 0.00000000000000 13.54331694404913

PRIMCOORD
 96 1
Ni 5.178380808039294 2.1008318710112706 9.842117816114332 0.17666384064606347 0.2794246633550736 -0.27285215234387844
Ni 2.583860433673035 2.575939505519041 8.228012174692788 0.6040711746624241 -0.45613349830645955 0.7927441239542218
Ni 4.894180496831808 0.8175424984623691 11.905143911347613 0.609413412810944 -0.8405640716509781 0.3538349599458487
Ni 8.927135871910876 8.68328047513261 4.0693740630880315 1.5106963996085336 -0.18046727355255368 -1.1988159297176
Ni 2.0530842199895325 0.6213783068393229 3.9068405038047924 -0.5616672557749165 -1.098106847331296 -0.2085907712616472
Ni 8.073554075689911 5.664620307698063 9.553225095249262 -0.14697299844985012 -0.6861821823315667 0.6085574925685518
Ni 4.397151508589445 7.583261577746739 0.1346317197239669 -0.1049503741611612 -0.38912129395196854 0.6991220303216863
Ni 6.386748008877401 7.611336456273861 10.637788003972032 -0.3317095888017191 -0.5222674138210553 0.8196319494840014
Ni 1.5690562878877787 8.853395362028662 10.096826550079301 -1.4242014039390827 2.6482141446372847 -0.7803107832868754
Ni 8.788501122374505 1.2402822489725969 12.144684438034515 1.2546988569281488 -0.412935879873063 -0.2681303213881769
Ni 7.83164189726718 9.198066777776274 5.988177267999668 -1.433035971511577 0.37658485204785463 0.7745270867255628
Ni 7.1655714189346815 5.303838686440984 11.809622699726065 -1.1339210288164276 0.09640505569431138 -2.0494805801376894
Ni 7.782496979713605 4.950265479940869 2.1672964161651143 -0.15198047896677053 -0.22683866172824158 -0.8114026195956737
Ni 0.5530482720641646 6.747057705676706 2.1494058525051476 -0.5853969952916886 -0.3352199159478227 0.4247413571484233
Ni 3.697537380072102 6.36670509955316 4.228521795722268 -2.4640177430596015 -0.12885109203815875 -2.581948845751147
Ni 4.659245397647526 3.885659423729452 7.468177709337387 -0.36953411584866036 -1.9654900960576471 0.13421955543892367
Ni 1.6082260178829368 2.212742741448653 0.015589237921767704 -2.450814614105766 1.3681644676491727 -1.1091764748818962
Ni 1.4129788402552887 2.2050253885509536 6.340939874842903 -1.362338862106331 0.7176936226762864 -0.5135344048234317
Ni 6.021163862255927 2.2168975273612035 0.3511256767142141 0.9973458286611339 -0.14554012265806548 0.3156067697025855
Ni 8.125262190788645 1.146434055820957 8.174136908456592 -0.17550787266474935 -0.45096198140784916 -0.19764661354531768
Ni 6.82866362318847 8.211855702079617 8.200844131398247 -0.3224528460901414 -0.20078130251955742 -0.2111431053698557
Ni 3.123066513651266 4.226805286174878 3.0194957513274283 0.09725249129627123 -1.0188132545062905 1.1455938371686658
Ni 3.7968265846192426 7.200549349334326 7.877984879020487 0.21874302920430067 -0.00940226715050639 0.47979510358945754
Ni 1.7666445809628104 7.249518451893829 0.18630559716596096 -0.13378143946024057 -0.6096476403089371 0.6053726670826671
P 0.15221136844704775 8.396739048477741 7.887153168290321 0.004848329231236811 -0.1859025856355121 -0.11818718456640935
Ni 3.0936128754337866 4.272119287541826 5.53282383608903 -1.7436468306614679 -1.4808466632369528 -0.470246540669074
P 5.303857193282465 8.253903245925116 6.701504040712576 0.11165118322010448 -0.10251913901184924 -0.5149922203158808
Ni 0.3798436679828115 3.2363376369375234 1.8726073525481053 -0.07814071016748479 0.2009409680258733 0.5494421744636344
P 3.1413142593518213 1.5795866806906347 10.137226985032965 -0.35184312632680054 1.207942060388584 -2.041261277551691
P 6.420300912482985 7.01004917654663 13.483658120574407 1.4230822027329748 -0.3695510851295249 -0.2837618572778468
P 1.7948582608010426 7.653180424863066 4.301045480777088 -0.4868111298959745 -0.07938358143565037 -0.8445197138646166
Ni 9.051714675342204 6.231447848587125 4.644017043134644 -0.5353497009263103 1.8536645920432078 1.1519763436562418
Ni 5.118427895060644 3.9060724698833185 2.4219376001586777 2.5197412618741506 -2.669502364592099 -1.0344607312355603
Ni 7.702325342416641 7.207202558846851 2.924800870178019 -1.6277389290475388 -0.497619276255072 -0.5410562643927842
Ni 6.17658431701583 8.68199424964966 1.823201488529644 0.0811069918846603 0.5274535860076852 -1.948026134944929
Ni 2.9667299702380374 8.015655422115683 11.922330289689219 1.8151792914838156 0.7011424031858247 -1.3321921633196216
Ni 1.9135241283790974 6.940222863637709 9.438378114410872 1.106278841619127 -2.6372499323162972 -1.9117980058508302
Ni 7.034977892021932 3.41825988869864 9.184372640422191 -0.21193654780542856 0.10334009225124784 -0.5333049025821396
Ni 8.51343393743804 5.898815133223094 13.236939715418986 2.0129140938675656 -0.27131103310900373 3.2274168381928026
Ni 6.677777344591484 4.633308059311493 6.829028207965653 2.0552858739655573 -0.41189406887211 -1.214424325678818
Ni 2.0803540509122187 6.520598739890857 6.113967344205946 -0.5106295724718108 0.3088031165171908 0.17936504162731046
Ni 0.6303356181162691 6.1204993339067695 11.31549558422797 -0.3242384772356545 -1.387491707222875 -0.38373149039496496
Ni 4.175726403686508 1.444653299450523 3.574717651923571 0.8516149301485011 0.25212237599569487 -0.5793878129831312
Ni 5.757015713793422 5.621554887571093 8.630532275542627 -0.4544090594161852 1.1095806522988503 1.734737186876664
Ni 4.554311606448591 0.8923850907547947 7.872703026461727 2.028283377234784 0.2900096379597715 -0.6994441895477954
Ni 2.0997584742053554 1.000785213363176 11.741148311587352 -0.7036898521980268 0.7347001845366121 1.4283298242851596
Ni 4.233042091754074 8.951148498732856 10.028690837139697 0.03069408664974714 -0.5543213569328066 -1.3868872408696569
Ni 5.127301925550924 3.419351792346036 4.669965485575566 0.9406206080549476 0.7167369151899721 1.2103879508259154
Ni 8.267033849956094 1.0469967965419662 1.3685254070172215 0.10178766016246342 0.15993624347873744 -0.29949289485985836
Ni 8.602821981792687 8.138577863234435 0.28511639986080994 1.2895704719943535 -0.32899913184909146 0.48325169467949036
Ni 2.4581249526491256 0.1970839816446664 7.808087314771863 -1.55025462151713 -0.9421275316177774 0.11260969047863188
Ni 5.393319265003038 7.778980679832158 3.7378739664226552 0.3357629329354863 1.1390429234240256 0.43182860301250797
Ni 3.6303945591779687 8.64635007295669 5.342770603523108 0.008293864577676039 -0.79920684886043 0.419362095114381
Ni 1.98108335320656 3.9053969701692517 11.65746407577724 -1.3691900807002098 -1.6453216751263082 0.35378585187546807
Ni 6.989719411179429 0.07756865004262013 12.980388625384553 -2.1796791873426784 -0.28586681943599157 -0.5046443014226535
Ni 7.1709661632264785 2.479685422974833 2.9185844221244523 -0.38236083529968345 -0.3506017977205317 -0.08974795538910996
P 5.97357351938678 5.5907409965047385 3.8358732441185497 0.7580748547068106 -0.8457281323504209 0.6922049914868789
Ni 8.491558850807149 7.969388318412449 9.810114860482804 2.0122576912304897 0.6544190309873568 0.6115296878229983
P 6.758060022937335 2.200768815010256 11.68804478064093 0.3901422790173152 1.2001331058671265 0.5980414235285765
Ni 1.114805863729426 4.888054732301501 3.5906039246511128 -0.44409379353310613 -1.1182347284294225 -0.09235685376686675
P 4.476619885910121 6.8366215650254265 10.239681784815481 -1.3419847239300113 -1.7016774282082179 -0.4344994649764517
P 0.8937897600232249 8.065059435449996 12.033115018822462 -2.606753306389336 2.0306127966989096 -0.4472233403010233
P 1.8527846746374916 2.710354695197677 3.8221541225284668 -0.4265637550691428 1.0350546560658176 0.7387373307204632
Ni 3.4955999792489663 1.6195522048694886 5.757480235514602 -0.5009825363003502 1.5454152911469579 1.1881435376054181
Ni 6.949827914366501 0.6534830500989971 10.315632936912635 0.6451154941982438 -0.9238804124821314 -0.6863737295170824
Ni 5.685098127797114 1.1124647482820424 5.306149265599924 1.4895197655309187 -1.204574429467932 0.2178328586852055
Ni 8.18142120126363 3.2583237646173004 13.362580811551341 -0.025504314918691564 0.478320318816144 0.17848906678026036
Ni 2.5417018487786476 4.8496067691241125 7.760401661669088 -0.48636247239433017 1.1596996804424287 0.17303549986485683
Ni 3.313927569847847 0.5069495806184103 0.17266235362595128 -0.6007179419194751 -1.4218894679764547 0.3651447285317131
Ni 2.678967092045403 2.080613146692957 1.832776002969991 0.6859294428908123 0.029303634060123727 1.6130892974551638
Ni 4.683952031025053 5.816672517308371 5.9473308181663045 2.052610384015923 -0.008580799690475545 2.9895715409414123
Ni 3.4309278216925856 4.498485719120269 0.6912749457458729 0.9444885756507863 -1.1892730232241713 -1.4264187233053756
Ni 8.753393644084491 6.039420861377223 7.427574624469503 0.23328030358852728 1.20471866835528 -0.7587405133152675
Ni 2.7608321053379052 6.170504819589224 1.9574834289496141 0.2537336863468727 0.8449503736441318 0.4857448934149893
Ni 9.214213996968702 1.80140042926468 4.449697058265208 -0.4526478537507043 0.35267462108916037 -1.4297069071383444
Ni 1.119423320679009 9.102340140214283 1.7868919908854197 0.1052221397653091 0.4304985713471747 -0.30822641807811435
Ni 8.787575780300442 3.4451318225294782 10.961865931861338 -0.47793722444511233 0.8931924964799713 0.04402371387911773
Ni 0.8655770055270667 9.2313328253389 5.955118497061633 1.445392436194401 -0.9563133361998563 0.9684227178688806
Ni 0.5411243140977672 1.9992200578582275 9.474267506753472 1.4366270312969451 -2.2591054490908062 2.0222713667127494
Ni 5.704447030565808 4.508923577715719 0.023884004273683517 1.043129719764468 1.0260010305039815 1.2101038439265932
Ni 7.757216634250159 4.182944071864212 4.387655648225394 -0.1297062409496024 0.6570312717992233 0.6433301201630469
Ni 0.5721852714978963 4.472585394467199 6.000704548998356 0.09821125566511472 -0.31361982117954373 -0.5036068612970747
Ni 5.312601675882377 5.968798754284605 1.8265058850761289 0.14858533724229248 2.865899164890716 -0.6279040154159637
Ni 3.453913318812352 8.270337321160506 2.497739772181909 -0.21269348057611115 1.2310218250261833 -0.16765238117607256
Ni 5.347773928117575 3.954541887722827 11.521245394396251 0.41497502179027884 -0.582090813736591 -1.7971435170280277
Ni 8.03219128497922 2.6317006189021788 6.196419024373407 0.6851138889680524 0.4043414533358327 0.18227604462651834
Ni 3.200582419195664 5.724573220676714 11.806385853150987 1.787972649162037 0.7525467257997297 -0.07783449178097562
Ni 6.694470515607611 7.061951613480917 5.43449976332514 1.593268663184811 -0.649114845165624 1.1421022790756394
P 1.503939966135847 4.813490667973368 9.603958825144007 -1.0163442241405078 -0.9526536279600819 0.9338151550973401
Ni 3.9234226337720317 2.625917230939274 12.765402050632957 -1.3528545767649798 1.0139111892189827 0.4208147684005076
P 7.068836158511959 0.3594879930375366 3.6088738785614463 -0.08174848212340115 0.3599678123164639 0.31074584206585837
Ni 0.09759952991989831 3.5603924312749755 8.118486836122342 -0.23231074058640638 2.2866306510942684 -0.4525758628621883
P 1.39840470258877 4.803274891475694 0.55106433865737 -2.2217390926272063 0.3151311156177476 -0.4512944250466034
P 6.299867641543467 2.1435364077293553 7.169317203650495 -1.0843306194828102 0.8749811156782673 1.378902165781651
P 4.742507677471867 1.104247710664348 1.5892130142871297 -0.1627796264648035 -0.26014370363827455 0.008984205776481301
Ni 3.711926449323808 3.9914075159535636 9.948906918171765 -0.8889951705691723 0.6255619975463484 -0.9574410220463961
