# total energy = -340890.3333727993 ev
CRYSTAL
PRIMVEC
9.10584986854867 0.00000000000000 0.00000000000000

0.00000000000000 9.10584986854867 0.00000000000000

0.00000000000000 0.00000000000000 13.32733171603001

PRIMCOORD
 96 1
Ni 6.600994296085616 1.8904108048697346 11.758997350805073 -1.8797875143825045 0.3619192796158799 -0.838779983167362
Ni 4.65574806479382 0.5667098358880938 5.801973292893047 -0.6535600254211712 -1.0896887984709296 0.8183309712843906
Ni 2.5745423927999673 1.4770871846897662 4.753525767447001 0.6239213766191319 1.0325254618860604 1.0014179418479785
Ni 3.4143475858633043 4.452341595943605 4.916079752554284 0.5847866154011993 -0.09856015436410122 -0.5508804495720577
Ni 5.164601153355362 4.743592196094655 2.5454938219216845 0.5534973183696146 -0.3383787732917785 0.35745275920409403
Ni 7.547210447828495 6.347933629248105 2.821089645403055 0.20858100106963431 -0.6234323527978554 -0.5118395336195121
Ni 5.117360005517825 4.513314365010712 11.699837556397652 0.8176249463563015 -0.7752048295188778 -0.8190040860920152
Ni 5.863356735778095 7.8896086053048045 12.574656562426467 -1.441105635893589 -0.3910429364547136 -0.27260146978565314
Ni 1.5710413410867814 6.704964887066534 0.30883399577061094 1.3519094392428912 -0.060296225786896154 1.6522878220314963
Ni 2.843347073633451 1.6053977117095704 0.39935615744519587 -0.490581138461368 0.2734692171025871 1.192451678062469
Ni 0.516153248203284 9.305358786942595 4.775876075343537 0.3520092195910196 -2.262788040148716 0.30609368800582765
Ni 8.751677600693272 2.287034296843449 1.3504849150589988 -0.033069785970775305 0.34265528917994537 0.7068533375276731
Ni 6.7915706228188135 0.5992031496782768 4.834716254429236 0.501737926409136 0.30842002214615916 -1.2804546257360143
Ni 0.725097894793436 7.5726795092204755 2.66619914333742 0.48957892244909873 -0.5983175600080985 0.026943618468379404
Ni 7.689789841205552 3.8160430360763224 3.611520190062483 -0.33976562633697616 -0.8445461962271779 -0.4353397014895599
Ni 7.740117872064856 3.904451730053704 12.583026659398763 0.4038565432796141 -0.5796199835985952 -0.02993843943064521
Ni 7.82543968302047 8.9741972478995 6.768564693749512 1.2276194842128534 -1.1702910828050297 1.0056054975667648
Ni 6.996852896691105 0.4863953316394688 0.45040355042461694 -0.6705398478086194 0.8789532129521379 0.54590202252086
Ni 1.7677094812169163 6.613050440984788 9.4185180907768 1.0664385696937375 -0.42219030859179546 -0.15241088163596977
Ni 0.07794880451689942 4.828877583651782 1.2702842339306453 -0.47583354783854825 -0.08792478613744213 0.6551592515874911
Ni 6.763488182585395 1.8651420721694325 6.904743585427453 -1.1991833403593475 1.2163341411070212 0.29931985961710383
Ni 3.434781112414467 4.729842363165842 0.3851228039014689 -0.8714926429090347 1.084048826576333 0.021641232418859502
Ni 6.225551010332047 5.547829940535512 4.778127951954992 -0.44555880811440685 0.6226229695226826 0.18502943900193938
Ni 5.245807120281956 3.090834960502464 8.964682545629755 1.3177821585418787 0.11196768601925879 1.3562412338490255
P 0.18404470079952992 5.573244366829762 12.438198121165138 -0.3135735413226406 -0.33971317583248595 -0.6528570858168756
P 4.287935481023261 6.271462704124811 12.316266241805357 -1.0913929256462302 1.0207750062183516 1.7140403206489447
P 2.3916514031475105 8.485550039648578 1.4988583605503616 -0.18916557265750003 0.23838651446684106 -0.3867533079404243
P 6.2980791025691305 7.694452036211877 5.764657521143196 -0.3385353534743008 0.5316064318337941 -0.8657467415641928
P 4.8049109874473865 1.1270492193808248 12.759240329523603 0.17264520640497363 -0.08583936436332314 0.2547770400097225
P 4.037843321162433 6.216718336198968 8.137561801089488 0.18078043391759835 -0.09503774303313955 -0.8306977203798596
P 4.6276018836130515 1.1123614839409737 3.6493832233746004 -1.070484457628337 -0.5138282819147667 0.02183715047974949
P 0.19833815295076027 5.327277156847578 3.72167092118167 1.1233303977847753 2.3097127297247124 -1.698264031651295
Ni 1.5387428924785034 1.1646381666193284 2.601241654475843 -0.18353897049934198 -0.19273554939694548 -0.8266970838608988
Ni 1.9374425181659725 6.537817911410049 4.6521448800985015 -1.1617557916405088 -0.07264806248402972 0.2794218351415962
Ni 6.091667703343743 5.634881862919256 9.011928246392102 -1.4826076117921176 -0.030905688439920965 0.6676980074844501
Ni 8.242168890958967 2.132826733499443 10.122441242859866 1.163891607036589 1.1654617797371865 0.5628049689237856
Ni 2.2275548871143056 5.405687627940299 6.799217715331142 0.15886486479142964 -0.029481297288568582 1.2228745133287005
Ni 0.5352500360299771 -0.4217064653417333 9.375390965798362 0.2122535648252151 1.9656117092371763 1.0626341083459827
Ni 1.5545779649706928 0.9565057618154348 11.88791250623976 -0.9833227749091645 0.7226784774853876 -2.1007072395231496
Ni 4.30350648387642 6.7789590210927155 1.5164107962812094 -0.4994445023892689 0.9710118187522954 -0.3227654922345538
Ni 5.792176309285028 7.827880050719094 8.045029978403388 -0.6800151342889063 0.8529375056146665 0.14597412487169054
Ni 5.395871522048074 2.8591548285767754 4.59371810658563 0.02177133023882057 1.083798915349056 0.951976142277083
Ni 0.6716347199093697 7.617671512201445 7.37431859164566 0.47791099919286734 -0.763866264577607 -1.5346212858552473
Ni 5.089805704562469 4.5716555435371395 6.818635939649482 0.4355163362767403 0.849241287710002 0.1125209874195675
Ni 8.153987843222128 6.879278166375321 9.317203676130541 0.1788053124690985 0.33496871916896503 -0.11232506935867752
Ni 4.737272736457173 0.24025511051447218 10.723304388924182 -0.00301487556692384 1.1302078416308987 -0.19283119443454533
Ni 8.560682404877475 7.255604719542199 5.039810037214357 -0.7120881035640511 -1.0775709321614733 -0.33755653450079925
Ni 7.267551594245909 6.367483888385959 7.026342190691079 1.7137937518557773 -1.6773519640889758 -0.2523617457000106
Ni 2.283546756438326 5.221895159175292 2.610717201592216 -0.10355400803426681 0.50666081763205 -0.31501901551991557
Ni 2.3150438902798918 5.223115343024603 11.562166215966709 -0.33558038461103495 0.272217346973357 -0.21402762600650235
Ni 1.1111048766931748 3.275856718966405 3.8230254015662655 -0.34579460613987545 -0.106467582136636 -0.023249971666876087
Ni 3.5160963495365203 3.0435300717175737 2.842452879200597 0.2571799930242603 -1.3044227065158374 -0.0972468348693164
Ni 1.0901705284128165 3.2136182368018775 8.48059372569947 -0.6132176170483826 0.40007702163252384 -0.0765579390613972
Ni 3.470731006721059 3.0973547488316227 7.538778431078772 -1.2510376060264776 -0.23546599838593643 -1.2872675348927896
Ni 3.950363423846469 7.087456100427323 5.81312886926463 1.2150046236623204 -0.10067437249362662 1.0145048569389237
Ni 0.9493212464638894 7.560769057915252 11.61067762982648 0.034096170352760635 0.06725105983817452 -0.9817286909491673
P 0.4596041008824133 5.459612469400187 8.030676427644654 -1.4990269336904054 0.08850174168683468 0.2560646484728945
P 8.74518512991298 1.2584193118735305 8.26723729496759 0.2731776540040972 0.25937571512399843 -1.2924241393930644
P 1.7670811775930169 3.1584641056430556 10.592843060223727 0.4222417306550212 0.1813123951616684 -0.3380807824353855
P 4.133636859183039 6.294646197261737 3.757947715489682 -0.9576505669540409 -0.9557667196677667 -0.3799568538438811
P 6.782856324730817 4.04424473344651 10.323724227578293 0.9485982269437857 -0.9419228718061392 0.3265493847570182
P 6.448443997372766 7.889353641515396 10.287500247198087 0.5906003938694989 0.6007441671717203 -0.21716591452516792
P 2.197842499798599 8.53503122649306 5.845754217874328 0.785312350266525 -0.014068048057291902 0.7836696724567794
P 6.937154946571041 3.5940515281481553 1.4995249087426723 -0.33282879000782684 1.3720316639140628 -0.6230914245186688
Ni 4.93089952281365 3.1528549022760703 0.5835374459890517 1.7891057343252157 -1.8957255257689998 0.2022442602183291
Ni 1.7803575063414998 1.1763209716840084 7.359938633923024 -0.48636298661496236 -0.7751464654771166 -0.9531992160509067
Ni 6.529977774885739 0.9060110939080527 9.021310913842335 -0.05690596915842458 -1.0314515120955912 1.144656670066377
Ni 2.925399884574864 1.6061717089274175 9.400619632760328 0.43098450984465775 -0.4993437151453465 0.8483046348283454
Ni 6.308905957769368 1.7644769046012019 2.5293546140521292 1.0234204142609988 0.5431943937817096 -0.29853104516722134
Ni 4.402732927204418 7.058745356570007 10.279317730728001 -0.9111629649154631 -0.7143041373787633 -0.4587670792745647
Ni 8.09990820231867 7.052580696376095 0.3180409203231427 1.141483671655034 0.45318315742888404 -0.22331470773538317
Ni 7.681394247854315 4.115443371638821 8.17398519957641 0.7136179099450162 -0.6564502024847726 -0.711790112707658
Ni 3.1887956907330404 8.508369298800634 12.650529233229612 0.771036299963485 -1.2409753366944691 -0.06008462399672233
Ni -0.06969890475961162 4.771884070869371 10.245972109413223 0.6779137716751873 -0.47156294548765243 0.6180662033899356
Ni 9.026455718878612 2.0949008698249356 5.955224742026771 -0.2588779495519735 1.1485588333342607 0.35613995392994147
Ni 3.6552246259069405 2.8130519119419533 11.751707207597915 -0.7766464470614108 -0.718116569146318 -0.809556053305238
Ni 1.1741082502259281 3.292893763608663 12.773887088640159 -0.7383665776446058 0.21934672422657064 -0.8694298468427349
Ni 3.3922385829817423 8.409816688344645 7.9871759628317225 -0.40218275512161705 0.27931462013977054 0.012449281506946302
Ni 5.68410808597433 7.844780507617026 3.5139510113656405 -0.44935195660825195 0.3999579795561563 0.6116757264825594
Ni 3.149103292231917 8.451239198273898 3.6919102728629682 0.5129901022841875 -0.08048349936804848 -0.650978380736924
Ni 3.4102772710823905 4.610200604985924 9.423569105561976 -0.1379178302261173 -0.03795205376374109 0.5129425368757037
Ni 7.0852706965181085 6.009851644492495 11.477950765740134 0.7398048527530291 0.46889131219276026 -0.7246613122433714
Ni 0.3328743493569416 -0.03537986812027161 0.4923305244229127 0.9335526454645728 0.0035743476148196508 0.3899903268204832
Ni 4.500766504231968 0.33157858695576936 1.5265528915898927 0.37852706337589004 -0.9531668201510747 0.1987287908659029
Ni 6.292615592796092 5.511998422274003 0.40117095327480673 -0.8602633498521185 -0.15335936159216815 0.9500118194618608
Ni 8.020732839857724 8.842572191617387 11.670344620057831 0.09145233967472637 -0.23698166369951448 -1.1399746912096755
Ni -0.14575915606496412 4.6005028751387815 5.630744164851141 0.07928793639805055 0.4476550285218032 2.456233728238809
Ni 7.896720273859376 8.951742222732312 2.7032089585399808 -0.17349881265452055 -1.6902745856879149 -0.8878595143028322
P 8.55770479205117 1.497229324053034 3.6568463777245706 -0.3204376154323256 3.7544716461001726 -0.6154429068344756
P 1.9306131309496746 3.3631180758914483 1.4291294064869984 -0.46285256219784804 -0.39939413663288637 1.0432114808449968
P 4.674542538413072 1.3141106881600342 7.847132548574319 0.1272356679219228 -0.8081638009434018 0.5547489313885284
P 8.568950516334008 1.6769150546386415 12.566367507515805 0.8467128648611933 -0.23196724120405857 -0.16610817661740424
P 6.407294662932165 7.726759590669777 1.45173285700302 -0.4835224318423737 -0.3729734805475125 -0.10374529810946649
P 1.8813869078945995 3.310440735829738 6.090604140107925 -0.5943884001570215 -0.8013678610674908 -0.7120050569319415
P 6.953636534386372 3.743451202891887 5.954824995228377 0.338159715302437 0.6285776444442206 -0.35775743492870643
P 2.625152704997545 8.612403630728906 10.169699691811683 -0.6995578323075242 0.14499659144976962 1.1869744569979814
