# total energy = -340861.4165995331 ev
CRYSTAL
PRIMVEC
9.31927091136877 0.00000000000000 0.00000000000000

0.00000000000000 9.31927091136877 0.00000000000000

0.00000000000000 0.00000000000000 13.63969498512868

PRIMCOORD
 96 1
Ni 1.2477012816804354 0.14150381121743993 12.284973394608988 1.489650377571512 -0.3138864445773691 1.1578759969701284
Ni 5.679955899622062 7.061668298617222 13.456336799629351 -0.7259445498311691 0.20875712163618243 -1.1311375525340197
Ni 1.6144798313435533 1.885810407186267 10.58218042334045 0.20344650805654638 0.4893824901675765 0.50140625410133
Ni 7.665221567168743 8.160102816317828 12.64267404236833 -0.12671141998733662 -1.9369117701993226 -0.27528441593445496
Ni 1.38617632981531 2.922458158002545 12.825719436099133 -0.3225088961390575 -0.02974972045860683 -0.3613302398816293
Ni 0.4768083868536441 2.5540580551813767 6.899503663541177 -3.2206625501881048 -0.8379353757788796 -1.0385140753693276
Ni 8.565164931344569 4.6715175821932435 13.106546349114565 -0.4023467915033071 0.13503613780294807 0.9068064877189802
Ni 0.394638510387205 9.408083676128962 7.927868446271966 0.22718550354469905 -1.141955211974814 -1.224089102462092
Ni 0.6622404458935054 4.062046576541942 4.107348484913195 -0.9296713081322957 0.7725270255763986 -0.5978370208272543
Ni 6.978493804734474 2.4197953175490237 12.046046856041311 -0.4410076984086147 0.11051192740933871 -0.3175106715935177
Ni 8.443818703350477 0.49949987986822164 5.671425970854456 1.2559982924658628 1.0735242728959253 -0.6448694396257086
Ni 3.34340031085295 6.274208535692352 7.2788231562203185 -0.6443359357197419 -0.1676634369196661 -1.1147136026500415
Ni 1.2870845210248045 6.197091567974733 8.723335326860036 -0.542501224369427 0.9750682482098562 0.03277847998260161
Ni 5.634813350785307 2.4244456337896385 0.3649473129070441 -0.22186949064842432 0.5637061405818162 -0.33196207113215737
Ni 5.159297546822591 5.589111645687156 5.3543172718912 -0.8913083920833811 1.190124315480873 -0.9005034283190878
Ni 9.208436932997294 8.4914308590084 1.1101525690852743 2.623616143582946 1.6263299645151539 -1.397702843427922
Ni 7.366688039209083 5.3539584799568045 5.712659085496946 0.6233179387071782 -1.9965389949436516 0.1731314020127728
Ni 4.02362322211297 0.1977651823120663 1.4812981291499 0.6066484484712972 2.0022905527154484 -0.5485111780089328
Ni 2.5420455148323726 3.6005096791141424 7.125853845862941 2.26641586670929 0.06928505954906777 -1.0761691667179403
Ni 3.4892282638251904 5.748629607792591 0.011504640078235616 -1.5863117722510036 -0.3754885336598824 0.8016095447646517
Ni 2.547739589427595 7.802774007472313 1.8388627155523039 -0.3771489520814408 -3.129585848685242 0.4850488957892291
Ni 1.7925897391404257 1.4469845732421933 5.319876973897578 0.8867788796441437 -0.13615019680273324 0.6038940256546116
Ni 2.7120476568389944 8.565323358951963 4.4669726302117425 1.7305573444673614 0.12522352258790048 0.45929981184958313
Ni 4.682896412112665 5.33324174047206 11.813735136045958 1.673189862291486 1.5820293428255658 -1.4594226890352222
P 1.5524880404967136 7.008669604307845 12.989136581200706 1.6301341687525925 0.775161377875452 -0.691365526304719
P 0.719304206223236 8.315483022088927 5.831747254122097 1.0087512422845981 0.5808949936562771 0.33898503941720975
P 2.103284915785462 5.071780272642996 5.225721582968101 -1.9896240129913734 1.7981621881005287 2.344769721328846
P 1.9537572122169804 1.7218191949896593 8.10077820083785 1.2802054858396854 -1.3936284162482322 0.9595889216273343
P 8.997737534432023 6.622972934467474 0.2799919063317474 -1.412899091552386 -1.1785186129211447 0.6503438324767187
P 8.96829795726949 2.916680209968113 0.7926030686026175 0.8235533960255945 -0.7965262167044734 -0.8737449292783211
P 7.600033266360918 8.629812714433042 7.745546227972572 -0.6232685735264814 -1.1812496386990623 -1.7446778430291436
P 0.12290720589049044 2.09858800318973 4.1762971115789105 -1.1423809866583228 -0.9513919876388389 0.6413370009924181
Ni 0.7748545169387863 6.0407142002041425 11.019100466360264 -1.3385718415937204 1.0353837572704618 0.7391595058595464
Ni 1.246210198316711 4.22492879548678 1.3273689338771244 0.7043148873765354 -0.3046721250679527 -0.48025584527596005
Ni 5.561209748243464 3.4624446789042915 5.999283517015959 0.8167235175879547 -0.7300279758719234 -0.7553628550922862
Ni 3.249210438620688 2.91942939491998 0.6870996013480972 -0.05132436130558903 -0.8901657938385056 -0.5738766533569148
Ni 3.322394673966483 6.2722142116933695 4.02522427287477 0.26048797435157073 1.4016505152217602 -1.3378218508015733
Ni 5.552719892341259 8.291252917428405 9.076044573059313 -1.8945883268407633 -0.28067344816051015 -0.6200166422480871
Ni 7.121442102960522 7.643610177665762 1.3631111340326993 0.3883859584478408 -1.741201454444769 0.4699948296695841
Ni 7.084705536586763 0.4983051493230375 9.42065071310385 -0.6095699929934664 0.7023382232661388 -0.3952862851120999
Ni 2.137486640440889 2.270407403045891 3.0144682527424624 0.25892577207077344 -0.059574002908890956 -0.7379292329968711
Ni 4.867026568990574 2.8173647386730485 2.618548342589557 -0.1424455428931418 0.48125420463348734 -0.19671613131124832
Ni 8.843466321912693 7.49649616529231 3.0511181498957045 -1.0735803229448415 0.04983903500931417 1.3327531780294144
Ni 5.24961060230917 2.119109037982987 7.9189210141625175 1.991687066167989 -0.15590063995678313 2.160719358410724
Ni 1.1471836244233682 5.9595433495913985 2.7502948770456257 1.348574204222071 0.8474106622591664 0.8206256808558384
Ni 7.295367658067943 2.837680749503793 2.0060168883342118 -1.1627392385997006 0.8307514564359306 0.775583038793903
Ni 8.529173906652671 0.8337457863161815 13.084191281783928 -0.2103992852252957 2.397529529529381 0.6623956214349301
Ni 0.15664296699475364 6.41258107184597 5.1100983193094045 1.1563225364400795 -0.7915344199168368 -1.0035894955780007
Ni 3.443647709250342 5.362280588980592 9.423869589315292 0.01379473979124721 0.19006777275679526 1.901702569288041
Ni 0.80839830105997 0.014345153886130486 3.765960289152995 -0.7937026312127492 -1.2074574074426818 0.5978074531408994
Ni 2.7549908577142554 8.77660055232068 7.175052141449026 -0.32306553997347587 0.7070088892689307 -1.3983494758729853
Ni 3.493859941523759 0.4555939982962561 10.517472996917428 0.4028633261284094 -0.7544858518039715 0.14408590671004218
Ni 6.538708085875002 0.4394744552072936 1.6310345843893026 -0.2470174506689617 1.688855336742885 -0.2995358322826519
Ni 4.935141120899707 7.445305409561449 2.264039545155686 -0.5011465726820401 0.4180839997329058 0.022089118589555506
Ni 0.6817960042087502 4.8724410654550985 6.866263687655352 -0.6891695470946647 0.5717246400109186 -0.5701413546841987
Ni 6.681600468474911 6.320087306939945 3.3744465303398954 -0.10738598018584732 0.27529650011931295 0.5058774024988061
P 8.394547717450411 5.033841520307235 9.013683739079953 1.1435729500838951 0.32313573108977894 0.6955952481153505
P 3.839856516804969 4.669206402979471 1.7454854837532716 -0.11520624756121449 -0.12293884031878183 2.2098407985277233
P 4.259941296721232 7.833313258615592 5.701706146263288 0.7484794977088916 -0.9889804874155741 0.9390406651623375
P 1.8717383079411185 0.34388669232154007 1.9048245158550592 -1.1441702173482617 1.7772362365811392 -0.5087341552213109
P 4.435255423211122 4.167838941198185 8.025650897483702 1.0339809633856645 0.8299135339156676 -1.7197106315608448
P 3.0259207049029677 7.904978452784593 9.063986368282295 -0.09926720773345485 -1.1408067001926674 0.9609811739891709
P 6.372461610090762 4.42393250891784 12.941792820548255 -0.6461439354627582 -0.654539358615305 -0.41981512349139954
P 3.764426337142564 1.0871116034073238 12.629143392769636 -1.2033073898300501 0.07122804220805153 1.3927994925890337
Ni 3.606222392251411 2.8996725403506325 9.454190769516623 -1.0646526814379083 -1.3314421725274748 1.2415744037310488
Ni 5.95377472082799 5.3764458809359725 1.2461048905541479 -0.4303304212004266 -1.608934651856842 0.5407832132370558
Ni -0.3784900775580704 1.6298659478029838 9.447520967245264 2.0360776764682225 0.4049166091130123 0.47293077236945646
Ni 5.585132316960217 6.77777534543513 7.291126457825249 1.7887943737323837 0.37679362562455104 -0.11052118338071933
Ni 4.318568830728668 3.1794277371983886 11.881456414717908 -0.26784364338569355 -2.0775436569224928 0.06818565583730192
Ni 8.9712242083708 3.646928968081086 11.179666846455818 0.3411820470685285 -0.5019184178510582 -1.86194740087729
Ni 6.560440625901284 4.454285374640653 8.02825656566181 0.4030481884457058 0.40568176941381096 -0.932111285032356
Ni 1.0801035115978195 8.68483369055447 10.171938657478973 1.1107281356397323 -0.45118978114793906 -0.7813993883653639
Ni 7.1465854961813235 2.84367304077176 9.729699174559075 -1.4040262145427884 1.5477040871811345 -0.40523568301532786
Ni 5.754127977696324 0.30295738591440924 12.864428892148517 0.034486720922959964 0.027064974537592098 0.636014303227924
Ni 8.346497556054393 5.165392350071815 1.9760777982448317 -0.06012884697109644 -0.2967631546335212 -0.14372415249524925
Ni 8.482064991630006 6.574139954305503 7.246865512027297 -0.40789497501504596 1.334204051543328 2.1742734429460744
Ni 0.9850003508052763 3.6071077229986224 8.938106314935379 -0.3257155760018133 1.526706658993861 1.3412676432583286
Ni 7.42005950435939 7.604814052395859 5.302881419332427 -0.8371316489306616 1.7327628367591126 0.10036841121743359
Ni 7.675938728845511 5.913338403857991 11.050854018517878 -0.7086112007590442 -1.2808276928047169 0.7406702860771179
Ni 3.5352747819512027 3.99942107526552 4.460207771375946 1.7826972596957105 -3.260531618468901 -1.0296214008653881
Ni 3.954269207157742 1.6025232066206887 6.192557742621908 -0.3844639976856153 -0.42342469521952886 -0.9892676796386899
Ni 6.465095164062136 1.789439825534558 4.081106349638749 0.058973907431046815 -0.6668693409355676 0.4850391255972163
Ni 3.51965568371619 7.965833292566593 13.13029371553608 -0.4851900493527838 2.3480311656889366 1.1314347720594644
Ni 6.301029397697342 0.6351679635708855 6.451071525026309 -0.6830804034777913 -0.78796984249403 0.09767646620756726
Ni 8.871880779262664 1.0688085551176074 2.3703742913854824 -1.4273178380808773 1.9706284457254772 -1.7802662816567145
Ni 2.9219083210121717 6.904414919370443 11.144735422879268 -0.49448175906735486 0.7256450163128794 -0.5929128440527596
Ni 8.345043749774762 7.667486150027399 9.67484035375345 -0.30626003838036286 -0.6615538422599252 -0.9055610453476532
Ni 5.017849651231291 7.901828539178726 11.391519038846669 0.47571681975502583 0.8007376836826596 -0.22071377977742634
P 6.866392293595473 8.721933708498137 3.447283156876522 -0.05050443650745495 -0.19669659092722255 0.7566777172489678
P 1.8133623942513106 4.269027585968927 10.943577093987628 1.5559182475608109 -1.9754916873550492 -0.04632947919415892
P 6.955298139157537 4.323442809473843 3.9045266661438984 -0.266594858580257 -1.8034175229621974 -0.8574261375136395
P 5.399436522550396 1.454635694752304 10.204824501065913 -0.9436033448323556 1.406246876343191 -0.029686471320839198
P 8.36690675959537 9.372670446240509 10.996663389444622 1.652907457893366 0.34807388909235537 1.4498628132609288
P 7.538339692186824 2.4917960054748622 6.7594778887080285 -1.1791526469607174 0.14423323092118387 0.23303013525093416
P 5.769337028006312 6.424947744493859 10.165773959697077 -0.1434888965559916 -0.9176953667173422 -1.1169008401093474
P 4.006401209261955 1.3739774040458406 3.9736933637515586 -0.014316159512355991 -0.14374472132053953 0.6923965386723947
