# total energy = -340895.01754599623 ev
CRYSTAL
PRIMVEC
9.00703005948350 0.00000000000000 0.00000000000000

0.00000000000000 9.00703005948350 0.00000000000000

0.00000000000000 0.00000000000000 13.18269893661157

PRIMCOORD
 96 1
Ni 6.437468461690745 2.0252937472931847 11.40967868533061 -0.380914332661144 -0.8814883206691657 0.5359284562479156
Ni 4.599430868336398 0.3350561122093513 5.988636447079277 -0.627968550105312 -0.720215874877508 -0.8653312512933291
Ni 2.7536562362021835 1.744913910065571 4.80800756301543 0.0037167867299548896 -1.3521518942710002 0.3018120299113383
Ni 3.7318917516898855 4.578993917240332 5.077474482681125 -0.9659346613397042 -0.846028180089343 -0.15813030061825026
Ni 5.115209434914254 4.301811575666796 2.965896089986887 0.4282231450494367 0.613570115291795 -0.3756168317076305
Ni 7.084533497716052 5.888850263691004 2.640046063152278 0.4706370912392734 0.968689598377022 -1.0561834676246324
Ni 5.110408687918131 4.585325859338408 11.466812078099482 -0.04546378875975396 -0.020383191642042317 -0.10751402112327937
Ni 5.752934180817648 7.823857542149032 12.437467277129514 -1.2174965368462385 0.3687663844447004 0.10536817842487015
Ni 1.6440712020569501 6.511596318685292 0.4811681530557116 0.8104304854903913 0.18032380599615394 -0.8319483049575092
Ni 2.6614152418545336 1.7826623728437179 0.32763071666788046 0.8834732123096785 -1.468028685536678 0.646199728401358
Ni 0.5014006445705174 0.039817377571785544 4.791766086498714 -0.18222333701171198 -0.3935291932116771 0.3881969823654863
Ni 8.680777370412 2.1583275805628643 1.238733234667957 0.31664318138689984 0.8150260752808738 0.6695106352131567
Ni 6.8535752341614735 0.71350629360805 4.8225611221079925 -0.47563325890228403 -0.054815662288299136 -0.5508524245475996
Ni 0.6270856420538238 7.619397960888251 2.3755222015568878 0.07635019392596529 -0.6147651640411606 0.7763985927166629
Ni 7.559131923081384 3.8136305490441402 3.629026064740684 0.9939972239038753 -1.1470531953230114 1.0255747415998404
Ni 7.592854243444395 3.7430514618741193 12.556454647096277 0.6986471475677968 0.6861161049803216 0.3526108577307605
Ni 7.756331838152905 8.586635892731927 6.822389293449697 0.20727976575970755 0.8447428856190161 0.6543871493081569
Ni 6.892962976401711 0.725551394842413 0.508800820427956 -0.38031603695551275 -0.7082502178751995 -1.9273701492574742
Ni 1.9932737556023445 6.38683994599617 9.140092667253839 -0.29479420383260846 0.37127963778485734 -0.03548765138364856
Ni -0.14012056448271842 4.7896863632690625 1.4042347090200478 0.7349359546965021 -0.27795604922934714 -0.10298090913961618
Ni 6.519783708965735 1.7258640415912738 6.920982946064449 0.07931287609871503 0.9797124318500868 0.5475218175124699
Ni 3.353983793497878 4.463568827643112 0.5075461411473557 0.08196265501673626 0.034475665179366434 -0.6112910894496311
Ni 6.076872015180818 5.631519416262788 4.7207771794631705 -0.746356794938934 -0.1015914849912573 1.5864058746267067
Ni 5.247234480822646 2.6273686684111084 9.491319100442816 0.8661475765470373 0.8919455114467477 -1.633496657466922
P 0.16950419848919612 5.492694062695722 12.366346867455803 -0.05743355952712045 -0.335870405047628 0.49830061859281277
P 3.9827015093897837 6.206176938025742 12.543654756746953 -0.3421513529603333 0.302857183346401 -0.13661916601935178
P 2.3936632607030264 8.625185981181096 1.3480101255793353 -0.23909716738062048 -0.307999903889605 0.1765378565911605
P 6.139506901880707 7.67755635367243 5.72980773056015 0.07767534049529204 -0.22800594256346543 0.7813721346718543
P 4.835649237417686 0.9468189948076315 12.588040499940565 0.3343254291580113 0.01028389842451132 0.14104352033929257
P 3.9860070894039996 6.07409784993728 7.99455517211475 -0.03829015382945018 0.088668349171686 0.5791533283748219
P 4.5327157970413054 1.1604026974700494 3.64600521701534 0.996794069922722 -0.5262724212153904 1.3249820187244277
P 0.22146485392246995 5.635266340747567 3.469382762708065 -0.4097603103585588 -0.05136009963953091 -0.5459567870181953
Ni 1.4380443975741706 1.0144617901939073 2.7319564994985064 -0.07139182147942542 0.9165882496960923 -0.578697471784326
Ni 1.701914348790727 6.513496802017717 4.768960286509627 0.17291594356785706 0.4217406226488866 -0.943774323192581
Ni 5.967139368550859 5.67511344151839 9.230077400583612 -0.11138764514607268 -1.3507706976527576 -0.22165917440983113
Ni 8.361595247894895 2.2034257798303853 10.059018691521894 1.1857470123487837 0.9229620144329201 -0.0591752248085755
Ni 2.15182450489457 5.498575653293224 6.903094083758632 0.20127932520189853 -1.7984195555269735 -0.192708552813752
Ni 0.4662804331497229 -0.0492513408058182 9.203672391401932 0.10975679441086904 0.25791455719743966 -0.006465810230001767
Ni 1.6715786717120347 1.1911526979292697 11.317676377278264 -1.053500778586147 0.9167923952870985 -0.7181610492310083
Ni 3.9494835827074155 7.050549973482707 1.5077182782280372 0.45013177219706996 -0.6639079443143986 -0.3488547331224379
Ni 5.547069502875075 7.7322740609922205 7.969983093540409 -0.305096614199881 0.5450751557441903 -0.07705621885405439
Ni 5.1510033721799084 2.6403387916276513 5.194735204994687 0.6357962736798469 0.40785820823983954 -1.2338513240551783
Ni 0.7302710785684328 7.48049154405108 7.076248831511485 0.4969070806793959 0.3027484256826786 -0.19718484341755071
Ni 5.2316162907827275 4.440717992503966 7.072689253250945 -0.2733028667280519 0.23844873516334417 0.6127010824232803
Ni 7.9943155851164445 6.998921677456858 9.051320280163614 1.0676670427842 0.860770114285208 0.7267706452768903
Ni 4.525005779351472 0.43164209783454305 10.352400176571091 0.9399199824434974 -2.096433808958776 0.6138825043258911
Ni 7.926060311689388 7.207308323802646 4.516920168510159 1.193845473086202 0.3621658484090472 0.36338095176307095
Ni 7.129721767283687 6.154305452189582 7.070448304184087 0.7267657601808839 -1.322155605019226 -1.6038405251633863
Ni 2.3487181809457005 5.154759303694699 2.549995578503422 -0.9459294218623708 0.9851379737410324 0.41552395231521344
Ni 2.2528203324133864 5.210017432815179 11.357857638862514 0.6442328344829743 0.02273780791714794 0.5608259908205437
Ni 1.284708718658597 3.3156678878290076 3.7790318446610107 -1.4147816532870796 0.3028702959725236 0.23468489724553776
Ni 3.654368244381007 2.7118636169488783 2.4771872514055575 -0.003165799322491322 -0.5726862325932396 0.04988531486621731
Ni 1.180083058045151 3.0340991226398777 8.304572641595165 -0.0032501315061814993 1.5254640448360115 -0.14748773330273957
Ni 3.5729356860471433 2.7392630022438254 7.046139230886081 0.32875436282813697 -0.4972842615131564 0.9551344854004067
Ni 3.851379011822287 6.883037229329051 5.820438267941746 1.6874808249928617 0.7202559840868241 0.2663770861424961
Ni 0.8543393141646772 7.14601548457447 11.160630702700958 -0.7277247816600435 1.2421909542691252 0.10725279704209272
P 0.20503062696350874 5.553536550423323 7.89735941055778 -0.28271181874677764 -0.6726229555898932 0.24008215700170912
P 8.49193597919114 1.6931595156195605 7.901920570555598 -0.15899393417012617 -1.9155093932641465 0.6397640000783433
P 1.9684864090107292 3.2551046180317615 10.469989655480072 -0.43751691164653683 -0.46271732217156436 -0.6142689411310325
P 3.9363062978006087 6.114989766189436 3.5851798426447603 0.8075811889670543 0.8724040989797105 0.5426503483527816
P 7.002011088750798 4.065043777754808 10.397010194811989 -0.8437301280837856 -0.5176476556608569 -0.8254917506988879
P 6.2858621325373765 7.682915536529266 10.218318825711075 -0.5412447262545066 0.6448131324664766 0.13580412631722416
P 2.29769335593062 8.421825257581716 5.757913267007998 0.5174052006327476 0.9204958122806147 0.6678533021153917
P 6.779510426377007 3.8115048899614288 1.5426259237405606 0.6097142318808144 0.41185215989058105 -0.21111790855887513
Ni 5.191787204071926 3.032757075168166 0.30920413467037805 0.38718576749215255 -1.0277583795147203 0.25088438982353567
Ni 1.5088396534644672 0.9857023433672257 7.194471504630274 0.18793427135356022 -0.34265888872437117 -1.2667437039078249
Ni 6.839317105653287 0.5829205710954929 9.157348335349848 -0.46523211817361815 -0.3610433047688298 -0.43901509345861806
Ni 2.9685729793063014 1.6386940051400918 9.19553904330156 -1.0034388289327494 0.39449155712494643 -0.26180772160425875
Ni 6.288005805680111 1.8691388679840153 2.463147993726651 -0.048570966930167964 1.5523572696824297 1.324334872058732
Ni 4.147232926609638 6.760487578992744 10.312495430808195 -0.3036367418249029 1.0280823385130424 0.657294552762939
Ni 8.059931798750135 7.132225721626881 0.3528062662529909 0.36335112696640004 0.3694785800203766 0.0399189476821248
Ni 7.496127748151025 3.734377691973056 8.012616068693786 0.8756082077393049 0.6935622768457217 0.847665972803082
Ni 2.994252021869054 8.495836023186115 12.27856345226084 1.2389572778231759 -1.3066785924295496 0.46845293910376096
Ni 0.11411546743354992 4.688690535750245 9.984048677221272 0.12480957497893344 0.40917435594810175 0.4788746486577173
Ni 8.906439500319824 2.3286595251101163 5.852353778084455 -0.10975113798391421 0.7180494633538085 -0.3771746631130537
Ni 3.9006474659851267 2.522661944527559 11.474300522851031 -1.1225472397618472 0.7004780301289484 -0.17164890392997534
Ni 1.1836678559897231 3.3912458766554043 12.706328924378438 -1.0550092448108732 0.5729453997918971 -0.8348935036287621
Ni 3.2228684576206454 8.428400389490102 8.050898648351614 -0.46618034101950034 -0.8041107139199506 -0.5068292248891143
Ni 5.612919899289065 7.802123578731311 3.6507636309704097 -0.9926437951997744 0.5557714591157719 -0.9313366116498606
Ni 3.1744286502188626 8.355479474517095 3.55712744767398 -0.38964271367307735 -0.07734443951843453 0.49037776420131035
Ni 3.5749352467096935 4.317411751646694 9.385949459150421 0.06159540421429392 0.2019177301168458 -0.7498612085477667
Ni 7.179683762757413 6.093219774651669 11.4594560366891 0.8214618036038884 -0.6523870881589925 -0.38625528525808317
Ni 0.7154689254475534 0.03068154703113314 0.047127483129109304 -0.9428919205876278 -0.39124322539097783 0.39400304752430204
Ni 4.564744795762158 0.44274146091769984 1.5690579540122733 -0.3578600219448418 -0.671466987608579 -0.4920700643020686
Ni 5.876978998135862 5.575117394330849 0.5110327624648028 -0.23050736882908043 0.23183817182536204 -0.20418544310509998
Ni 7.962872043346339 8.786907205037364 11.229998344334435 0.13723443100584753 -0.05884380961108576 0.5565744146330415
Ni 0.04031276422241739 4.844962506449565 5.537431980762783 -0.48730683858547047 -0.03140988176984913 0.8615843826563871
Ni 7.744919931128349 9.05125452884453 2.6075775213668657 0.8890154822841464 -1.3533577416536435 0.1136324753161914
P 8.489900390408543 1.6783519582806739 3.762553483254993 0.18318004449802647 0.9388056663333961 -0.9983287613996935
P 1.8292377250331229 3.264733133114042 1.666411338594444 -1.878406574874578 -0.4635927827979822 -0.9833934802460998
P 4.807295106941521 0.9877019040297761 8.027340761356566 0.13740283826291175 0.43443544450773575 1.0826630019724
P 8.567811200007915 1.6794778370321097 12.21417940033272 -0.08752600803712668 -0.4861886658206272 0.8713990547539636
P 6.322466702504065 7.6589838577887415 1.5611218598691512 -0.3811269628925823 0.18246193538507932 -1.0102836197687246
P 1.952264747960039 3.4249231618683584 5.957010963302939 -1.2336461500229077 0.5986314917040917 -0.04006575767263423
P 6.947230332220927 3.953131429862068 5.878811028040199 0.060539452145953805 -0.3800339869387197 -0.5033057851168881
P 2.4144695000295635 8.467644019250157 10.082906235815363 -0.17124138407891154 -0.22618560152527498 0.4142353154107769
