# total energy = -340862.7745669099 ev
CRYSTAL
PRIMVEC
9.30027825017319 0.00000000000000 0.00000000000000

0.00000000000000 9.30027825017319 0.00000000000000

0.00000000000000 0.00000000000000 13.61189730566112

PRIMCOORD
 96 1
Ni 1.3612631377407143 7.953672424990167 4.836198670142178 -0.08663743478458628 1.4501183809151605 0.9199067725463641
Ni 2.0179092888132377 4.003797719356626 8.72179636219442 0.2761004840778471 -1.1259153849031318 -0.578529578747894
Ni 4.548012805769201 4.126700897409504 5.900893602656411 0.11134367928201469 -0.13108229536152263 -4.019817462764677
Ni 0.19352484150687072 1.5635162904547453 1.5842205700598393 -1.1365479249163137 0.6299408433403344 1.0593744637581046
Ni 3.4979183801959604 5.313183904605555 9.812857583757452 -0.3396309005313248 1.9808051291481625 0.25745047307682756
Ni 5.714416512063536 2.090916473657361 5.862453692287273 1.2030806185312248 0.6319864130154534 3.637505221314742
Ni 6.5182116667798455 6.8367741002149724 8.75330756521211 0.47807040758886693 -1.976980356085434 2.279689958110377
Ni 4.1609073210855145 2.270281641415801 9.353388493489673 -1.5129445722127624 -0.0434542145288929 0.18017699600564455
Ni 0.3812686300074858 8.553289269379357 2.5927939030551705 -1.2236790115078668 0.6737326437143042 0.1058605446802564
Ni 6.382771713546092 8.654243790587378 12.621999211326818 1.2302273541493456 -0.5875569790574849 0.8922671564522245
Ni 6.519085892942311 1.909793553295667 10.301170557219576 0.276662270118588 -0.20759575433822958 -0.4602464920335686
Ni 8.499282553151355 6.555840592879123 0.6615790186956221 0.7110856304414657 0.6469646315918406 -1.2360786707238
Ni 1.0933686206152409 0.6005319917762814 13.30986267662199 -0.02757122475004929 1.8967524243716174 -1.4026133933556617
Ni 9.228061662905537 5.911191800844677 12.029677505255044 -0.5319095648965098 0.545892252328847 0.5744497522515656
Ni 2.833850607020811 8.477017686843478 10.024604460584717 -0.6850632382357751 -2.309943100567964 -0.39456586200630756
Ni 7.78077095066697 8.705358120256587 6.162146791030649 1.4653315983204893 0.12150853563015845 0.3428375803940805
Ni 8.243524899238821 3.678176374673513 5.945445655940142 -0.5537372022945625 -0.17982321221065162 -2.158617224466057
Ni 6.130994578756271 -0.10339584426809406 4.8526824834437985 -1.5367409033014114 -1.4874122322696126 0.5756080342257247
Ni 7.107691207795775 9.068245680184338 9.146936265112313 0.2771029572004325 0.8548871731418696 -0.6214001528591749
Ni 6.05622034103057 4.0023096748247715 4.175694763620821 0.6418615060373204 -0.4716516485467167 0.5825875508673515
Ni -0.14290249656100493 6.188237791841058 2.737393700410322 1.4787802676262276 1.5432406520931423 0.810299873449798
Ni 2.9912206165427735 5.311779562578617 1.4585421889550527 -0.5106252015964368 -0.5430157021120002 -0.6207578912894858
Ni 6.86738131617956 0.10313357641935465 2.67170211449593 0.9773413605147492 0.8800377042655683 -1.304157882890225
Ni 4.88780777461823 3.1971752800297937 1.8468622899878653 1.2105134206601862 -0.8926613065668497 -0.020032493170842918
P 6.964885434129341 2.843746103157645 1.0129825949487832 0.14682310313554714 0.05544686811439484 -0.04192723636140521
P 6.699827501892716 4.703969172985901 6.988321205478221 -1.0571538019577018 0.941658562401159 0.4524038560606983
P 1.4286529544770856 6.705044958032532 0.678481344521827 -0.6920507252972018 0.14989891384739346 0.6057261937673438
P 4.536303755359168 7.346615357941703 8.732181982998934 -3.00653413693768 -0.22290538811210642 1.3960948755108538
P 7.212821553971314 7.427062765445099 11.024289517585716 0.10182057028292786 -0.5714191929553577 -1.0431780565039002
P 1.0643610525223977 0.5172200985490643 10.9933084304325 0.6411418542624764 -0.3070642794492131 1.3087717275131525
P 4.862036703382171 2.703023591835807 11.225622872773494 -0.9093822188659564 0.43712044753906654 2.7890761450933903
P 5.2557453856759615 1.1998382068694473 7.935368547220522 1.359947479056019 -0.838766099210291 -0.45668679970676834
Ni 8.555688741186973 4.076572397242647 0.053545422423127924 1.33676744139513 0.46922606982435966 0.6398506462548786
Ni 4.622303429022048 7.008364235294473 0.8793041144296129 -0.19922449955539884 1.8543870720315287 -0.1448379543847183
Ni 3.30666745673933 0.8954400973219127 11.557413092068975 -0.21140612922325527 0.9748985554012114 0.15373165732992236
Ni 7.522492921328608 2.184719080834154 3.7089426253974427 1.5149130087930427 0.3319412451965509 0.305120525459281
Ni 1.1821025761054038 3.992934994274087 2.303364591470262 -0.900847441922068 0.36576025062852496 -0.766709390453357
Ni 0.04911476982953045 4.861115975828085 7.535723497272461 0.9278440251155697 1.2433749472748972 -2.266867866645044
Ni 8.905304803946244 5.885457930721914 9.760192897691619 -0.9459929281104547 -0.05525737781140807 -0.7306645810146577
Ni 5.079114499744804 8.906197630665357 10.393636714401197 0.5817845953500819 0.46748594720480136 -0.29566246537017465
Ni 8.406419274085295 1.8971265742182535 12.799730320183714 -0.056544472053947775 -1.1929725835629454 -0.14134279674726624
Ni 7.5076124760100615 2.354560763588724 7.957583192025448 -1.0525486990855228 -0.22053174567360728 0.3575252643132423
Ni 5.52646718741196 4.740872677375898 10.673006844950766 -0.008385395850217817 -0.05136395629427283 0.8926129698274174
Ni 6.6771999247302 7.27308735751143 1.9459158343064407 -0.05453232671992544 -0.017360088545002362 -0.4441799254890092
Ni 4.620843285325166 4.165938771658848 7.89769125967396 0.9165185728004216 0.5880799414404905 5.005304335204696
Ni 6.853821510383034 5.761596824001655 12.759820035811538 -0.6696016522650662 0.9007661950621713 -0.4121174977368257
Ni 4.580275471275476 0.6020274765307955 1.6961243089388127 -0.025695347883575102 -0.48924596458971226 0.14614304634938702
Ni 2.6468778115932636 0.3244169586401431 3.367447565670769 -0.8390532914334066 -0.02885806188227288 0.35492742167907904
Ni 0.7117158891129702 5.825647840819679 5.320536704648583 -0.45837755714562994 -0.5953862452939166 0.37239755343938447
Ni 3.7391862004795575 8.451581425627086 5.29046797479896 1.1376131329560344 -0.7309404603838637 -1.5780395049398823
Ni 2.169475924660967 8.010069312747461 12.561317685345614 -0.22118891964163198 -1.8976811068334736 -1.5154249154324546
Ni 7.098558334481518 5.0919023824404315 2.4095095980109575 1.5184205077256687 -2.0603432338838066 -1.476406368077412
Ni 0.019799362524159696 8.280846916153404 9.632227578146939 0.7506693062713587 0.17254519049199962 -0.11427987909220318
Ni 2.6196372963819976 2.154139765704539 1.7493870029008882 0.10042754659014316 -0.21451844959999186 0.21095387217718506
Ni 1.8201202696947707 0.962216095688894 9.031384957074632 1.5061270350702967 1.897714274064254 0.2602133805339454
Ni 0.017655648370456464 0.8101928161754519 7.870303800065173 -1.4260988780721118 -2.403261032696519 -1.5641023260335
P 4.08048781441709 8.783936171816842 13.043600358342394 1.336337295836247 0.8837254375298006 0.9953514239389244
P 3.723571033173407 3.9233317112965813 3.483461097541159 -0.4139954314858289 -0.3601488179790185 -0.38052918140758335
P 0.4783951566573093 7.869253798642382 6.876077076412586 3.6735317759209956 2.347577880201602 -1.0962052594332088
P 2.483909034520197 4.453419674934859 6.439557352937334 -1.8658536779102317 -0.397871786451089 1.3195847589682566
P -0.11580427560809775 3.6268760394378217 8.998879554304096 0.7095941334976038 -3.1522159273799324 3.1660029538616956
P 8.158966768716176 1.5377266186620377 6.120916797164285 0.12036542316465076 -0.7641385444023872 -1.0721268783277664
P 2.1656628105480893 0.7464942799059127 5.902567652754747 -0.6414203047348437 -1.4798562742992256 0.18004484130315443
P 1.4343540250897542 6.646350901529187 10.493615636413018 1.5829829649880869 -0.49070300875121303 0.3786437914594124
Ni 3.650405743597774 6.337163148644744 6.818253525960376 1.0101159838426088 0.5415789696654737 0.9521815734196698
Ni 1.9710079852248414 4.875810415580151 12.21444520469195 0.8132147331037479 0.7479578208774668 0.5426410923814009
Ni 5.572940678197447 8.219186070864673 7.133451118697846 -0.8528542018722408 2.6553407283797363 -0.03676600387543991
Ni 1.1089000854164748 2.5471881282373197 6.729123378613607 -1.4340638985554592 0.5701979189537469 -0.03305744467560113
Ni 1.6829783655277086 2.8508422155189272 11.117612230400985 -0.3338765145460508 -0.9372894867991859 -0.21416620846689569
Ni 1.1362522039676297 3.4995459289026765 4.559264282485687 -0.37753821710005947 0.16646787394966814 -0.04034497947594987
Ni 2.9270300955498896 8.694774403523772 7.367343818270439 -0.5436101411628896 -0.29139237723991107 2.0682048960200703
Ni 2.2338710517769806 8.742094219636751 1.2443995604315023 1.6565535392863857 -0.6999815501085043 -0.42919733603724786
Ni 1.7015789221758928 6.465981303711745 8.13986027692716 -0.24320090513634893 0.8913667561251424 0.8273187766052977
Ni 8.28936597109827 6.845786069911018 7.4211245377351664 -2.9508219309770403 -2.502990010557741 0.9648216307811835
Ni 6.635218468375249 3.4379501855622143 12.487554387873741 -1.7675547476273172 -0.24730181467859988 0.05299917790485066
Ni 8.403619890309743 3.593302034687849 11.029598116453107 0.8575762899382586 1.5291967724055664 1.2393488568346398
Ni 6.178481799879084 6.651717162122188 5.695190976711974 -0.21242402896480836 -1.820439768551807 0.35301992024372103
Ni 3.5558963152683503 3.512845326906128 -0.03709230003997657 1.286858729490145 -1.060986802550547 -1.4351316776983414
Ni 3.154570705027128 5.53153583909859 4.706096146638621 -0.8494567461549177 1.557628031163066 -1.589427692172166
Ni 8.797189068428674 1.6025216577459875 10.031383433455149 0.5653740152025424 -0.6553364005953036 -0.19080259404029076
Ni 2.3322121947759307 6.957807922324708 2.9511959387472104 -0.22537981779452798 -0.04347092669944126 -0.362701152087227
Ni 5.368585662582172 1.3493494812075522 13.045601778237737 -0.5306756924894086 1.3312663090712427 0.29330270688874643
Ni 7.194286099271398 4.345945658621651 9.201057374763703 -1.7758272720487545 0.962528720981949 -1.516457470462027
Ni 8.948169786741984 8.352821770103551 12.166667814885425 -0.9429230309358793 0.41327860792446247 0.16765572361018224
Ni 4.982800817420507 5.521333433777061 2.7177245417827 -1.351579823817614 1.6948262096143392 0.9399102122514846
Ni 3.2618308149388815 2.2420273958672094 7.13441741761572 1.819319024683802 -0.5259865145438554 0.8662319087307276
Ni 4.781068480292625 6.999528970886585 11.816543026901826 -0.4926400778729258 -0.5218141283337205 -0.1067030951862098
Ni 3.075853149292012 2.1877230707328357 4.750021361163308 2.1105355384674813 1.247799044484522 -0.9772747689428717
P 8.061918364404276 9.306230502219531 0.5066391718997447 0.3310184762719654 -0.4039866410995752 0.43985070198603604
P 8.634192390520635 4.669548842908435 3.9520509707613782 -0.1958013328064628 -1.8502596801267168 0.7279356121192689
P 0.6390453743441792 1.352334870549586 3.8321843335813166 -0.38431641636415753 0.09274868988864672 -1.3626569075673822
P 7.110946305209208 7.46388256733018 4.039153657433495 1.4213315385904555 0.22195279439085003 -1.1785510088209767
P 4.16130723305345 5.460881624670462 13.1554362051896 0.21134030898232634 -0.6147602789451542 -1.2523617241545402
P 4.1738812093476225 8.09645029782163 3.0526043135374463 0.6067124689400132 -0.39812761121563695 -0.2603121108953388
P 1.550840011099008 2.9485416393135147 13.53560275221568 -2.1280964301693803 -0.30331509681942603 0.060606815048779496
P 5.413403703825971 1.5874645071392826 3.9912395535356047 -1.597463932213081 0.81573030043675 -4.660508345532664
