# total energy = -340886.33801864134 ev
CRYSTAL
PRIMVEC
9.08320209974450 0.00000000000000 0.00000000000000

0.00000000000000 9.08320209974450 0.00000000000000

0.00000000000000 0.00000000000000 13.29418441711983

PRIMCOORD
 96 1
Ni 6.509721884909534 1.8826843400961437 11.14856940882754 0.16973677450892705 0.6863870992535211 1.1442923447484228
Ni 4.9732165354572535 0.3272078151647815 5.940293233115847 -1.01912410087849 0.22254054857352 -0.0688212325387718
Ni 3.266401150463085 1.9665222935922304 4.933152348536285 -0.6537153200521129 -1.580942023298658 -0.020155391901952386
Ni 3.6376861111462966 4.4957216950091725 4.839003144248351 -0.5715138095516932 0.3481656774752133 -0.5840484516835942
Ni 3.668714328821555 2.8424881179969566 2.6435214887947427 -0.4263493250654915 0.25497321518092864 -0.25489968163051585
Ni 5.752210096424902 4.3544779055331 2.7189929050248227 -1.1191618682293822 0.21467348712061737 -0.8238997236214197
Ni 5.492693935066647 4.56531718793301 11.360531374981743 -1.4449059834762856 -0.01732769264517016 -0.260230606925126
Ni 5.851053499452466 7.7744487504445425 12.343051332503178 -0.7825160184683104 0.8395346019451992 0.010909962044284438
Ni 2.04736279046278 6.564475425936014 0.03218632591694297 -1.099261015540397 0.6378966078523014 1.2189019018341976
Ni 2.7938748214518796 2.0963575814874704 13.220375095591292 0.2639525358614035 -3.320833500682752 -0.66827779124732
Ni 7.8986615363664265 8.793593086329096 7.061804346043256 0.37016557878507217 1.2459802461082283 -0.4328860977427447
Ni 8.714578313039556 2.458886335543355 1.1267230541750852 0.10800355916518818 -0.3543324684075575 -0.26862114498166645
Ni 7.14234873053201 0.8769459018892575 5.049782477515749 0.9488375966481014 0.3805258389734737 -1.61872001337838
Ni 1.0480470843162495 7.7000482437179505 2.246703647583091 0.05423150765005499 0.10256001955211369 -0.12123085648873959
Ni 7.971490649165086 4.214469431514824 3.5608740143164317 0.5905839388092667 -1.3103480708613369 -0.40311683690011224
Ni 7.612894921529982 4.0564398849357435 12.16716966091855 1.6585289178452018 -1.7067756686667317 0.6626833278786781
Ni 8.222677514385106 7.720830609655009 9.09852616548538 -0.6054410584267572 -2.2916173056755826 -0.35886043818489805
Ni 6.705955378661371 1.120512869039086 0.314913701399131 0.9025549115314778 -0.44493762959064015 -0.7209165004889584
Ni 2.0016016193129116 6.472253677090318 8.971061593284881 -0.5596970194224232 0.38958306407973553 0.20637576588819942
Ni 8.80196779847681 4.807993092976884 1.2914514621521473 0.3953752452814803 1.235594274888214 -0.5317923225923551
Ni 6.425902097817238 2.1186931749486706 7.007936417201593 0.9859494138987343 0.09665445270095613 -0.30815108475548864
Ni 3.966216440507073 4.679956279056966 1.1811087255247947 -0.13953402567330161 1.204990691069744 -0.8886354732369084
Ni 5.858674305842848 5.544876929956682 4.678475717147988 0.19904966454043138 2.427094130560375 -0.7422522858522571
Ni 5.289629873489343 2.983977153924209 9.352418916550088 1.8768160904590063 -0.208036441420074 -1.811178912075171
P 0.24463787665331588 5.6185144477240465 12.48521979193222 0.06216053268914455 -1.6781541482752969 0.11586830662524561
P 4.149906032441131 5.867594010104294 12.53585682585963 0.9696835868591751 1.3310997015863915 1.1057828758193151
P 2.47633516638474 8.867639348181763 0.8757160363525975 0.5173002996237672 -0.4205964817421144 0.42108601978402316
P 6.441234542616956 7.832708407402712 5.481045636955772 -1.4125219107186253 0.7364583048782993 -0.15918985223101614
P 4.73461898806449 1.0880767550700148 12.41800409790502 0.4347419200045609 -1.4137246727774748 -0.403020420531564
P 4.019080675539275 5.9631583772475585 8.042170676395253 -0.3488004828457348 1.1660562187880756 0.14753581293185558
P 4.760842191936993 1.2520648820925881 3.522254056496858 0.8432233636506962 -0.05636732304613518 0.750393684012469
P 0.13053832772195684 6.031545804319285 3.2310720366902763 0.19374547871869857 -0.922431852961063 0.44387884930882265
Ni 0.903594199610473 0.1328318362005876 4.679340437968445 -0.2761747889592082 1.200863299164932 -0.6510840530768529
Ni 1.884691727715064 6.760481839640462 4.563906566678628 1.0624808705975703 0.0887231136690214 -0.7250675465428544
Ni 6.092603087461289 5.88850354086789 8.8734026397845 0.34426659953112326 -2.6547887125310083 -0.3022331766091569
Ni 9.070994072219724 2.4940928260905744 9.885808148182733 -2.4996321498291016 -0.5320383771648902 1.1132236483680764
Ni 2.26332499873179 5.616943053796113 6.686748948253193 -0.23753702198235221 -0.8116504739404216 0.3362630125003564
Ni 0.641296761831795 0.2986220704792414 9.248072909814189 0.2805353799207491 0.07469080394567136 -2.1480826434833196
Ni 1.066658565000267 0.6355207537464037 11.426324639592094 1.0766502201194166 1.5685068828590985 1.5985607648216857
Ni 4.020007162132623 7.170479406802581 1.3304156733235626 0.6423140201937068 0.10903045776780576 0.4564589999666784
Ni 5.6409862892136795 7.919153239842826 7.919013358533634 0.5154154238962285 0.8945819206283303 -0.20454719731989288
Ni 5.591591837305584 3.0385217813070913 4.782196799593471 -1.0864767192915352 -1.5903386340222094 -0.3534238405503591
Ni 1.0541328295862797 7.722492835601898 6.6646004687510425 -0.7885326569760355 -0.10193009927759863 0.82619957539919
Ni 5.228908668817475 4.784758262528022 6.67984934809332 0.5092830857462455 -1.1236744113877553 1.8093107485181805
Ni 0.607549033509004 7.126089799138944 11.097678953567245 0.7511184779936354 0.8990808369399484 -0.05415180345205513
Ni 4.8099278149806395 0.182859387280804 10.311554170791386 -0.24177651398499647 -0.46905174903002445 0.2916664568369042
Ni 8.380098486437184 7.509936828043726 4.709677423979452 0.6649759805675968 0.6233768169695716 -1.0441807867368016
Ni 7.500072470785139 6.4602366009824825 6.589727635525881 -0.40750211045200135 -2.1619177495941995 2.6606320586856627
Ni 2.0413042947984366 5.412289431887084 2.237317975064401 -0.2757860381612218 -0.4260436208996146 1.0813512251395117
Ni 2.4145058110816127 5.154435496475718 11.55779127054778 0.9472707663816139 -0.1739004189683134 -1.9946291795154487
Ni 1.484358687369828 3.3111722526063363 3.8401179818716695 -0.6593534921744967 0.3153550587030956 -0.298098328505177
Ni 1.3924276009847905 1.2084291801862823 2.2444573717543173 0.5250362348154441 1.231675399449782 0.9117972560653522
Ni 1.1579901600601967 3.493635612284494 8.053603702621205 1.2426630088095372 0.6372504896278702 -0.4990740064237276
Ni 4.118941397179142 2.7002179267066846 7.101354423736934 -1.0726884072581913 -0.19393882567642728 0.3879555557786415
Ni 4.35087187438056 6.966334444199705 6.069845125111946 -0.9157104750768295 0.5956549255742709 -0.9479233123639482
Ni 0.41263351235221346 0.13305164968646035 0.41125649894484545 -0.9120759636480358 -0.008109259370695713 -0.7191336975569228
P 0.00431997082153184 5.806146149280781 8.144934389360944 0.8830487231777502 0.6747520861177541 -0.9933662751880955
P 8.757923352485204 1.8340074611377983 7.754523838766426 -0.5201359693003494 -1.709105602351489 0.4575321784261991
P 1.8462607004949185 3.1937991177118152 10.357578754796227 1.9592148045718965 -0.24845881110117854 0.7703559860670087
P 3.899427656968966 6.1651052049917086 3.4514223397950343 -0.0847849549568798 0.2653319327074334 -0.9051967200296992
P 7.136172153243024 4.227867154310786 9.93962248613321 0.4133469992685527 -0.822952272106486 0.19949703649049513
P 6.210057971172871 7.547831946352033 10.04544451317714 0.6490783355007338 2.117258716123928 1.5325237798962703
P 2.774845513480666 8.730937159653474 5.6508788043981415 0.36365785957354146 -0.29980194145984496 0.3320960256068603
P 6.8151172990423 3.699351968815304 0.992214458904576 0.07570716102532768 -0.18829602556835312 0.39357213063447055
Ni 4.925829471168079 2.971378752895057 13.3548055753255 2.1251234635839853 0.5907266350347181 0.2809734958994322
Ni 1.7469540541706805 1.0846978039648638 7.066390454680327 -0.26089909374706033 0.9027546862471099 -0.6283819834936468
Ni 7.178127462798649 0.9878799549600112 9.120275892424313 -0.2972850885752622 -0.5007261973151699 -0.6120932736359522
Ni 2.9231015348201166 1.546478705133613 9.210689175772604 -0.31956549724001737 0.0703006452977757 -0.33858446154468136
Ni 6.721769233161553 2.1149599789695923 2.664486427089902 -0.07699579792976417 -0.6604971188606367 0.03190507623871279
Ni 4.070600596690933 6.712213704767417 10.330219242366589 0.19605818601227526 0.21013934669568973 -0.09462122432101122
Ni 8.214911376764395 7.211962389859638 -0.013337773663451121 0.5526234004050934 1.2704584337552507 0.7228574262654132
Ni 7.844007910560798 3.884558455465922 7.746375298345913 -0.341582882051373 1.4085693538287807 0.48562867955209915
Ni 3.3384218582930387 8.201904231649943 12.244448634325847 0.4919836752358494 0.9716854477805523 -0.15906798194117122
Ni 0.45909953996917785 4.877397838660913 10.14843439787003 -1.5329539254551534 0.23926968840274274 0.044520193899562036
Ni -0.008063158322695151 2.695358413692556 5.7954134379209785 -0.19871182158503842 -0.020860902609409232 -0.5620076698334708
Ni 3.9214635047676127 2.6070424416619544 11.066344631988105 -0.9055055095193696 0.36214862201786663 1.250104809799563
Ni 1.1443381076111592 3.6110904959960757 12.581442691212914 -2.18175046804941 -0.9522437941161731 -0.7133597711876231
Ni 3.26503867017875 8.498243693492828 8.027959098709449 -0.10125878424218691 -0.5228826788075511 0.05258960117125782
Ni 5.784945956056527 8.443017825967779 3.3745421189509517 -0.26222424031638714 -0.6357003715319309 0.7980346829291999
Ni 2.992524446907938 8.812031986177098 3.2348070493097336 1.2322826940164777 -0.3969898980667679 0.5664597920675535
Ni 3.3797685933216615 4.294810352281118 9.27192267303138 -0.11242868481607733 0.2462144951516921 -0.3374295220046318
Ni 7.4605787089432125 6.213691251931097 11.196973791729018 -0.3598641968590641 -0.6539544326461124 -0.7643357480148578
Ni 8.138176487150641 -0.03874712264611128 2.5455973057990096 0.15403684727516698 0.3968903963744262 0.31452484949231635
Ni 4.880041050412523 0.504086822317544 1.4571090816831258 -1.8533105511378984 -0.257571314925408 -0.4471500638609267
Ni 6.412858619895204 5.742827148866781 0.23810523785002383 -1.4300576056095435 -0.44920951749311666 0.7680165393005547
Ni 7.982890067544022 8.770567169523833 11.240378780307177 -1.2500477313093827 0.4572218462746319 0.3969906693977163
Ni 0.01708822772613089 5.300066472467349 5.366436520398071 1.2368695420562117 -0.7178959684950798 0.4869911071172645
Ni 7.097087135486397 6.446230303659518 2.8230064665713437 0.5270085280504666 0.36610709244498235 -1.4931802451016414
P 8.768968525990214 1.857169625971495 3.666349971368139 -0.17255290380148347 -0.014882059318155014 -0.23503405305484035
P 1.930734478123695 3.325178549929302 1.2602488470004944 -0.8875990615525939 1.6229232528264501 2.767201970728118
P 5.0790630871463 0.9424366958764877 8.250889031152548 -1.0515986764674277 0.8231548750355953 -0.41776544005122246
P 8.371569359857245 1.611360016273651 12.313099474252546 0.6979586061412044 0.552136690576662 -0.49424007537019404
P 6.6419278884995165 8.057426822299048 1.2864293598240881 -1.0866577249540899 -0.35845986031236976 -0.11939637438316213
P 2.174345952962812 3.4792114876743327 6.0754022280316535 -0.6620462085153115 0.009435434381286977 0.05389520735655879
P 7.158989156404689 4.084543311600629 5.5811643215294735 1.2184025936002758 0.4272085877419933 1.7939489213501296
P 2.1856272897171065 8.31070282395505 10.312896668031552 2.622553249536071 -0.3599495574840188 -1.4956017100589405
