# total energy = -381167.1641364671 ev
CRYSTAL
PRIMVEC
9.29467856896530 0.00000000000000 0.00000000000000
0.00000000000000 9.29467856896530 0.00000000000000
0.00000000000000 0.00000000000000 13.60370160618906
PRIMCOORD
 96 1
Ni 6.421888612866362 5.871271854327827 7.139059505119948 -0.4183567937783182 -0.7272061901524122 -0.007675514267386781
Ni 4.511627683623337 6.025052311282926 11.57955222523682 0.9281211900363564 1.7522448567431244 -0.4365548048435836
Ni 4.0514760316151115 7.575934493583135 0.30318683817474507 2.2186257438092047 -2.974194801375026 1.7791841043361294
Ni 1.1076747293266858 7.281850863600703 9.999060914881236 0.1046924925140842 0.015948295799140276 -0.3822492494224836
Ni 7.109945783432401 3.6806555353515495 0.9119706246776625 0.4144669718056088 -0.3168319003589382 0.029843051503361508
Ni 8.113659532943869 7.994408806879565 9.109719114652222 2.9848522810888722 -1.219658320384248 0.8710501560549773
Ni 7.060498093435355 4.486848070553389 4.819505546072802 -0.8773033360535407 -0.5112998590659581 0.7292448178489958
Ni 3.842698961556155 0.12192201668557363 9.964316476915457 1.221534197250722 -0.04026141862320808 1.0604967502880058
Ni 8.569805178488048 6.91367005605127 6.468029256227892 -1.7583147170862878 -1.7667895873265187 -0.4751298369033043
Ni 0.8279606724148242 2.8050131618681458 5.577028355873976 1.317300848030086 -0.9242000006050792 -1.7147957107577303
Ni 5.57850806870246 4.333476579455407 9.952985334269703 1.396273052959931 0.48680881590312935 0.4954857748518369
Ni 0.755321829915592 6.898054996052203 12.72087554992578 -1.4554261662813193 -0.5489066136751385 0.3607928793209206
Ni 4.470600972411502 6.094409202778783 4.3727874930030595 -1.8993698073898064 -0.10612151165112692 -0.8751469518321702
Ni 1.8618356538887755 4.3963736693445075 1.608665340039614 1.0417166414670254 0.41301455562979833 -0.48010646418228925
Ni 8.756135599798345 3.9349672357292143 6.790314799930067 -0.4461936134849283 2.965911221209995 1.8433835218321735
Ni 7.648488754507372 7.0315358750085135 1.4677031743016065 -1.6730389385359183 1.6080864449239338 1.8667736186213397
Ni 6.338915017264176 5.266578655863951 2.6034766464158996 0.04067613756312349 -1.3935908781420774 0.21382348041549626
Ni 7.0148147482595125 -0.042169027208195146 2.2504740489727015 0.1802250756347606 1.9785140191211412 -2.6135800995031824
Ni 4.70004940761208 7.654892788042704 6.135364344965622 0.7509001913352423 -0.17350266930926247 1.4359791133003013
Ni 2.4242287701766077 1.0215316483318317 11.351337193882596 -1.2553886839063217 1.060565141632096 1.1453567814571952
Ni 5.459666308495272 1.8973413260295118 2.889576147505951 0.47770685360186116 -0.2194228288801447 -0.790776972925522
Ni 6.563576693000756 8.399108406533959 7.783262523252892 -2.7869308166156133 0.8316942799651742 -1.8562462367274548
Ni 4.416273576164747 9.208702794092739 12.592048516529905 0.7641472861531355 2.9741359231126325 -2.077651643255267
Ni 1.0870684269350597 -0.14092870489515247 2.5086718544608484 0.6278621064344347 0.4919566786526559 -0.006989029723323447
P 6.3323622688717105 6.495028438540564 5.066535795258044 1.567179679407243 0.43964758483629446 0.09113532265493983
Ni 0.3595014366999523 2.569978624846472 1.9423498775411088 -0.5187306043123905 -1.1496402393238976 -0.5802074806709491
P 5.826833996080482 5.993617708356232 0.4965198703203384 -0.997727894590901 -0.40586046108352036 -0.40715012642922144
Ni 0.5549155473775641 9.055703090137591 11.825180836893574 -0.8247574436360249 -0.5990840058604779 -0.3063297152760337
P 1.5551484397642397 6.189540237951672 6.971488533569245 -0.27252356535986616 -0.5020572574217677 0.10968583196361756
P 1.377638668417701 3.089393147422585 11.645721041982867 -1.0924933577992604 0.8159645279347432 -1.3068287448541687
P 3.4733842032210744 7.121071513681736 9.850576565775821 -0.4137195521166229 -0.9942738746040297 2.122063593711739
Ni 2.014919009951059 3.3334714066937186 3.555422754159031 0.13234599256529464 0.15231266549520864 0.9606767553748745
Ni 5.5110472916350615 4.127506502324855 12.531131193176401 0.4945516930733418 -0.047028047923080296 0.7894747091743306
Ni 4.558147549870558 4.438283375020576 6.132589883412217 0.3457781510796432 -0.6307970206930427 0.40600547130181686
Ni 6.577806845892762 2.04259856273512 10.415837090402766 -1.024838634764764 -1.2764341917227113 -1.6138403166885755
Ni 7.0022576375102625 8.332623570716503 4.184771017000005 0.9093840186381692 -1.0214386079442797 2.0986261886244053
Ni 7.835804411746182 2.331672360967851 5.60076603547613 -2.438550966247065 0.6742540634354129 -0.23997417066893512
Ni 2.6668756489478262 1.0812127794354094 4.381874900241803 0.23847830284969895 0.5269630195245117 -0.4520295034404151
Ni 3.601706535570552 5.946577340109043 7.863986806640927 -0.11427422266524835 -1.2758682919169124 -0.13294068872650008
Ni 2.707112312481137 2.291695948434525 9.038408481720769 1.4834177663982389 -0.11535588576520132 1.8610688549270789
Ni 9.047849086745204 8.747472959370292 0.5031395403985144 -0.470800356290015 0.4248992228825263 0.0561984015684387
Ni -0.040963507397552876 5.385996686142531 4.4843654619071085 0.36794465987435343 -0.22786401766896242 0.9830582083938681
Ni 7.6958544365045425 2.8865925556847007 12.158539131177232 1.081911468518356 1.6988222181476096 0.9349744655127641
Ni 8.044163221269448 3.629711402104593 9.570775138885393 0.23033741891011944 1.1994324802556762 -0.3251933849497561
Ni 4.315993289063595 3.466338836864353 0.8836144192936423 0.9437792082885874 -0.10883711081007708 1.5410606137226879
Ni 8.819674022508835 4.887086224493764 2.202426137568429 0.16535458628083136 0.5870450724180728 -0.40844956196693527
Ni 7.558906642441294 0.5642752886984336 12.11074961183723 0.20232756396075477 -0.07281955506488749 1.0887770852899377
Ni 0.7242701677460185 2.07165372794767 8.033462257830802 -2.2304232506647654 -0.09134281068005559 -0.4157468669592969
Ni 2.373331110322505 3.5420254044669743 7.150309784062133 1.44650623808387 0.5717356957545121 0.16091403401097448
Ni 1.388216012631355 0.20905405148036843 9.329635856978369 0.1289747621002166 -0.22799128727544607 -0.2715689147560807
Ni 2.042645036127974 7.05278351022153 1.1137599553870363 -1.076702413513591 -0.35185675317355536 0.9929669828671479
Ni 8.456187027637693 0.934208143158477 3.9969989910433656 0.9512536622887617 0.04145235360751571 -1.0957280626864743
Ni 4.47430954916128 2.090586988196539 11.565105506334111 1.4107208529541446 -1.1928550841484746 0.45427227672800474
Ni 5.933862219824087 1.818299379462805 -0.0012045903427851817 -0.36678946322398764 -0.7418709912534384 -0.17509958148273716
Ni 3.573887562607928 3.954281577799489 10.978146554583462 -1.5150490201502744 -0.5336188342781326 -0.36469555680943644
Ni -0.15858394684052632 1.7040027170767758 10.508492023204376 0.832341683741186 0.5096836636187738 0.16781487489586583
P 6.062890947744951 0.5048014289269864 6.212878246375277 -0.06711993357694891 0.04244171410397852 -0.5272067601042016
Ni 2.2740825325427196 4.976984355631251 5.361300725179722 0.34257044277562293 0.2040946831635066 0.3394666070393186
P 7.958438400810285 0.8984124770463296 8.800656180684971 -0.34243443141839086 1.1620728086602954 2.7447241013405765
Ni 4.588634095583022 0.2460208470924458 1.272645049813259 0.16064998171631042 0.2414777517976551 1.5555423522786307
P 0.8911877233931897 0.6280497962446238 5.574851542152678 -0.42669359577878774 -1.1404786274292875 -0.45659089755885235
P 7.817540368354416 5.729081861550608 8.787351777778623 0.5844927383098644 -0.559396714573185 0.481559651689048
P 4.595614399189748 3.3480733467285604 8.495457044599632 -1.691404842637616 -0.5510614552346123 -1.699928820948227
Ni 2.465506437709856 8.129228119550081 5.422530349733206 0.004962743321914034 -0.6870915815197135 -0.6520762417867931
Ni 3.4480097307225908 8.221524277758855 8.157840858062658 -0.9214216665289937 1.2298771698987787 -2.900384600262095
Ni 2.5475505654549546 2.6629439999123465 13.266642345186035 0.20330818270646922 -0.615379914807024 0.9654032143162663
Ni -0.002394309199856966 5.369126844536396 11.083411577802174 1.0275791736243785 -1.3021776192354024 -0.6991539120008863
Ni 8.364058173643196 0.5391499135856488 6.876358427864212 -0.23842893766900225 -1.4270568711100067 -2.077609734273738
Ni 0.902215859517531 4.424954805949943 8.764565873262127 0.16402918260118848 1.2025224320349097 0.2324153844850707
Ni 1.9919983325952857 6.093042885028865 3.4407840476015936 0.086233000257316 1.2361259790219679 -1.2273598027935635
Ni 2.2024949181898537 5.679364625875006 11.243241941039052 0.20494340431704705 0.3747722243191481 -0.6249570169724978
Ni 8.042174160055282 5.909742528932672 13.387892356610934 -0.9340306135422559 -1.2661754901091806 -2.033187499404621
Ni 6.599547099070034 3.2901303205177364 7.594034950632054 -0.7730584725998363 -0.38156610731252993 -0.29049711911915127
Ni 2.579580027810184 1.0191986840105427 6.850810144876453 0.3253139696880204 -0.10921814829857963 0.3586187544877372
Ni 4.758401399680023 1.15784740425226 7.962709305613601 0.5450898110322095 0.3500562096297068 -0.27156531521165495
Ni 6.152110567346765 8.778117514618462 10.437398885751481 -1.012155897090773 0.781697379221757 -0.43387905778363345
Ni 2.64509821705627 7.874795588350996 12.321471128653213 -0.21744539343879968 -0.2152177896598616 -2.9121317134956946
Ni 3.0762597666019413 5.049083177305516 13.280110334435228 0.0810213741493895 0.6261718632162055 0.15514884939242313
Ni 4.003534079546547 5.673499683696785 2.0231289995327115 -0.6596669096498575 -0.6944217966325396 -0.8878109204530839
Ni 5.04721494691277 2.1899471021191745 5.279896071320298 0.1486053918469505 -0.39361018296125755 0.7903069752676388
Ni 5.529934078491075 7.366032767417103 2.4592632021138003 -1.0620630663338613 2.030432562367303 0.2665503784955668
Ni 4.4814385676251405 3.8114130734865954 3.6592192181635443 -0.8322912901192248 0.5375341101721388 -0.15049875221492146
Ni 0.3800036386915846 4.438134660163442 13.430254713133403 1.0122849664694695 -1.4087853264943286 -0.8168307325897803
Ni 2.9917804330712734 1.8062348866778115 2.046867608602722 -0.30960247249003453 0.1509895758084109 -0.04415355458876267
Ni 2.079563499411483 0.16909529883632696 0.3309416778552298 0.5793662157165763 0.7792178073330128 -0.33908916909524184
Ni 6.327426794550576 7.9374603112758235 12.819040368184202 0.4073982378842855 -1.4373821642954148 0.7179926419739442
Ni 4.892848925207706 -0.17261798201468795 4.359428251493143 -0.8629568375238815 0.8402704516699593 -0.7073055945737431
Ni 5.6292012456280025 6.679648638993821 9.267371734699946 -0.07292162786039054 -0.11402122611417782 0.40659399681543523
P 3.180992204738542 8.57280735966644 3.0691307481380816 0.024945099981111878 -0.21284337589041408 -0.3253818468114783
Ni 0.7885521647421784 8.183341738189707 7.252092091220338 2.221705154065477 1.5232330986229636 1.2858701403246304
P 9.438653141936143 7.116768077503422 2.3541478232200794 1.9523363322845084 -0.17946377198870384 1.2627914041282962
Ni 7.199165403034214 5.471517023673137 11.310389487438615 -2.529510939666405 1.0420313444939666 -0.7153243511131616
P 7.885140565600378 7.819529429568583 11.200920481102296 1.272402444855499 -0.8496848030053237 1.6960683095515563
P 8.01810094255672 1.48990909087528 0.6504611252147136 -0.2015264082156981 -0.08951475633238132 -0.24514748733975844
P 8.160699901191059 3.170163904203475 3.440267263473053 -0.203381716256882 0.0747738505777809 0.21454004686654665
Ni 0.04995796785058699 8.01479203698549 4.373699300970863 0.5348925587842337 -0.5274569284417949 0.726976076419477
