# total energy = -381171.12122815393 ev
CRYSTAL
PRIMVEC
9.22847037705064 0.00000000000000 0.00000000000000
0.00000000000000 9.22847037705064 0.00000000000000
0.00000000000000 0.00000000000000 13.50679922489224
PRIMCOORD
 96 1
Ni 1.3307546838642779 6.406505779017512 7.543777271874584 -0.08447410858468032 0.5684989339847693 -0.15546869462568708
Ni 0.07733273763597948 2.752898911728306 7.4762839295544214 -1.0428587254912685 -0.5200596075364592 -2.9472923205572275
Ni 6.88128290414678 2.9758956744476794 6.807021401514649 0.6616222336040154 0.795991684357242 -2.058673559490867
Ni 0.28444730251393446 6.068789898711458 4.294540759237286 -1.8271814581510146 0.5106766236596625 -0.6947421560864357
Ni 5.770368846068834 8.322770006313895 5.89662262901402 -0.25242730883062336 -1.0725184573392301 0.06367928332651614
Ni 6.2724161017160505 9.142701159024163 12.689327904142036 -1.092426509117067 0.3227734626543538 0.24403034301617973
Ni 7.438294930475862 8.6021158102998 10.58261757550121 -1.5855836358357274 2.101530249645077 -0.46906563298709536
Ni 6.410270995007807 1.4673637336298337 4.829356468164753 -1.1535092353610006 -0.4014872717164892 -0.19582061608017245
Ni 3.9060609080503053 8.93579884896919 10.62398880904164 0.26470972574240215 0.563587612726081 3.953768907875036
Ni 8.280199071600086 7.849746290591874 2.260700279867469 0.9171099265275172 -1.2322279295191425 0.4353942088765792
Ni 6.00079452759259 7.896202411413316 1.6697376331788305 -0.6410436381217153 0.17580457796956175 -1.2029633762270704
Ni 3.339211332099518 3.717606310653668 3.9991069625163735 -0.28130491109692196 0.6316737668710412 -1.1101668638196234
Ni 7.960617135953178 6.795098217545379 6.116945903810873 0.028977103958640418 -0.32010542890388743 0.5161772417629175
Ni 6.253599250235137 6.690761129343706 8.55850205841221 -0.13002094397654382 -1.2327182388919997 0.5001471848832483
Ni 5.837349085425613 5.4738950007153075 6.51256028559123 -0.11953289996102638 0.7916550046551011 -1.4001057964424597
Ni 7.281290960762872 6.941397161403607 13.298011060008532 -0.20200849005843918 0.6391932151765379 -0.3460553160004298
Ni 8.573470637667748 2.2643252231051854 4.732633791025808 0.858990653787282 0.32910840373344613 0.18264422659921448
Ni 3.01567038258046 0.2227762022728834 2.6955384300879093 0.16912716594938615 0.6038336047303212 0.890430360353802
Ni 5.130725094305664 2.1198258310070246 2.772189183749176 -1.279484291402945 -0.9956936377696918 0.32018024800588085
Ni 6.986321356111351 4.67032592631581 13.012721198132065 0.22036102442369793 -0.8625513745553468 0.3093404770778995
Ni 4.007407971789097 5.177070473480332 12.19867965533603 0.7955494546135008 -0.051955310021368585 -0.597116597721462
Ni 2.877547863642334 9.262431336127339 6.62909648903205 1.151308885275572 -0.7491287012571164 -0.22922078880717295
Ni 2.686721549310634 3.510602487422487 12.950278597751826 -0.8700952483408758 0.2475051889386576 -1.6334550055957096
Ni 4.969946680131813 1.416265692114473 9.428448753040628 1.3206767064808544 -1.3737201073600793 -0.6420119155722556
P 5.844593434818706 7.334493093566928 11.34413158669145 -0.3610255641570169 -0.6784143654606897 0.45503255193279696
Ni 3.822423279324693 1.5616417889162566 4.832017036228484 -0.2301633552261004 -0.6075833015807407 0.46537378595780504
P 1.1257072963927597 7.7808003870048665 3.286758551105296 0.7829520775644645 0.9838799329642152 0.21285391741337537
Ni 8.673285775292841 1.2556533904107825 11.206915303562754 1.275575957487474 -0.5952893147047361 0.2773744656942642
P 8.48347459272323 2.2645374779281675 1.3779500051779325 0.8660087369763279 -0.31530055131607637 0.2966672524856052
P 4.467225746133391 9.446077900359898 1.0113877715815205 1.0802621058403912 -0.14022385265147463 0.5792628573694927
P 3.8096603045340585 2.916252069189638 8.758227386909208 -1.0485472912356133 1.5772936279127932 -1.4343359212699234
Ni 9.292700719578736 5.356065888548408 12.080670587993122 0.4642792673420455 0.21169203589479024 0.887821204865729
Ni 2.6893885773037596 4.4032447597100575 9.797575578606901 0.5538734707621106 -0.12876830251636534 1.8800536235596979
Ni 6.501374456420059 5.48090863834429 2.47113617130157 0.8343998518217952 0.04368767069593766 0.5025815053563537
Ni 2.4359747756039583 8.840662545920273 0.5540459958896686 -1.4694170812437726 -0.4390251207609472 -1.1557270689479258
Ni 0.3507224867195898 7.906944351150335 10.253133490938644 0.11830776930467367 0.17936761273047175 0.6290967501724842
Ni 2.0674173466715122 4.2023870978748 7.586445105529319 -0.38559142642183913 -1.3717874091137405 -0.5664852459888502
Ni 2.558464265405905 5.9732106290754485 0.35892198281610377 0.5327544293953083 -0.2602051530038293 -0.7091560175189205
Ni 7.443093735169377 2.4660595896440656 9.057754010325455 -1.0423563319335531 -1.678266762593761 -0.2596870757168302
Ni 2.382431189389018 7.699589846037704 9.474398230828083 -1.752845980662233 -1.4010349931249484 -2.0706055350417634
Ni 0.7180922114903912 2.541382366391108 9.39268196967399 1.6691311188410805 0.0320112627992739 3.089269922675015
Ni 8.283456721709337 3.5008941363886845 10.802967612862698 0.03660479570722728 2.023520151518186 1.5154819939226352
Ni 7.208339900950893 0.7885608127205327 2.6134308817818837 0.5093118821016519 0.38953961243630975 -0.35418360153451905
Ni 2.545562863556804 0.740525700585513 8.833528015326896 -0.539658098493677 1.4357222600944886 -0.13146256151907681
Ni 8.863992119507204 0.34877527943049075 8.775719030017068 0.468231052900942 0.023038626987018387 0.012978671647855067
Ni 6.525589963181178 8.86288470303947 8.267066035139816 0.997056065334857 0.20759575433822958 1.0543459001952618
Ni 5.017750157655665 5.612137489770771 0.8131177728925345 -0.805119100579807 -0.6478184949517037 -0.20362854216036547
Ni 4.837970322589611 3.086055927575521 13.447680241316899 1.4897712194200925 0.5529972388047444 0.15928241194482246
Ni 7.973573908625665 4.758060995972037 8.341299852360255 0.9806213168176017 -0.19639422919545532 -0.2699313791526577
Ni 1.0489633351787921 1.7379794044617702 13.211067793126734 -0.7804709630138236 -0.5882604328824127 0.4916476320526695
Ni 3.2493075718606446 7.831667716756115 4.60579123165861 -1.0371897001309491 0.5435098681395993 0.19607592662408813
Ni 4.09295589392155 5.458815679812996 8.279046435626586 -1.5263618740599325 1.7211620192953907 -2.124234890331445
Ni 7.776296893369414 6.502703356181341 10.612710695164825 -0.6219025464168902 -3.6748085857508905 0.18820269452359845
Ni 0.5704366824591885 0.5495526535718378 2.008488025035159 0.32208337856586466 -0.058244742574506146 0.5449908235605001
Ni 3.581237201122788 7.156632780378279 2.1256323846861767 0.07716446229714453 -0.06724668896280031 0.6383465509055264
Ni 5.15454377683251 8.788586286525081 3.596914526917676 -0.46363186356603375 1.5598543493904233 0.2755723794885189
P 7.631806729741817 1.0036976870601642 7.0869504448402285 0.984931514157181 0.09566457798386105 -1.4987122306634642
Ni 8.464159403831836 9.122721520252128 0.1296129462306461 0.169940662989617 0.8137677773937405 -0.856733482321989
P 1.146849722455915 8.931747550391396 12.081791847166702 -0.8725036006720521 1.0608523338552118 0.8922805261886634
Ni 5.57605416986377 3.751862393388907 4.620230096703748 0.5603539362801316 -0.6104901908148905 -0.6764433577772478
P 3.2033221030379893 4.463949639083011 1.8496485125268995 1.20878178268106 -0.47721243046394596 -0.12971961068604113
P 1.2550258544124 3.7009027789320137 11.333541916718746 -0.6981455253410298 -0.547389919920296 -0.45653459039962024
P 8.470028711110826 6.8395148463720785 8.390923184279416 0.2983469541808733 1.0132779265103582 0.1893604622771255
Ni 8.457791759142365 4.054371658491583 2.9017735217210725 0.2058039525451294 0.3768638167408542 0.11035020502049384
Ni 2.9711799259892455 2.2688379452112013 1.3452526111210292 0.36560264200473813 -0.5672414074285844 0.7136029975466807
Ni 1.382729430083261 0.6371114594402846 4.36873397118724 0.01691040260209346 -0.09644516490362745 0.38447171099509914
Ni 5.387645714819956 1.0310601022837589 6.94841079903259 -1.896961712168946 1.8651281125981167 -0.016373813372333092
Ni 6.54500666524878 7.144100517351755 4.017179076422736 1.6127738230972741 -0.5004207502596091 0.8791000229426472
Ni 6.533637189513378 3.312421082050919 1.539964111560363 0.720377597266353 0.26705508604612715 0.30015418259294113
Ni 3.8846323993996514 1.0475606076529957 12.602248978742942 0.4767753429265272 -0.3570197854317335 1.3374189589361998
Ni 1.065869893252865 3.850117919488608 0.9330103710776453 -2.31435382804115 -1.4010491341923355 -1.0164753504017334
Ni 0.6145672286983893 7.154030351679104 0.24954061260390173 -0.534701268709034 0.663436918215251 -0.02437791462373221
Ni 4.107933701647652 6.447535559147057 10.272974702652212 1.7414567649886847 0.1714846104379692 1.1013970880467934
Ni 8.247797911448302 9.121577189902137 4.930292864963427 -0.5835581423107369 -0.6983573842415198 -0.1460671988061291
Ni 2.1941980752859287 5.368865777221299 5.34830105341548 1.6937728286491605 0.5790044615017835 0.3998739044827823
Ni 4.070004687627762 2.7975739377308093 11.143311761585508 1.1614369748485094 1.1449801148440668 -0.5846053526283287
Ni 0.9962226259029596 7.846783951540685 5.764972036482742 0.5141856652541854 -1.324061049572055 -1.3039473095413157
Ni 4.451158978880683 5.94691871643733 4.264596217949758 0.5472783340430961 -0.7218043024105504 -0.3686054333868039
Ni 0.6543530109958468 0.5599586769803119 6.623491116011203 -0.9441052241694385 1.9759773687422164 0.9737644417967682
Ni 4.217678673600093 3.5405488744041276 6.565344368678716 -0.5586243551835347 -0.7792275775250258 -0.031835913563674205
Ni 2.3065177905258514 7.215824190578662 11.668267772561917 -0.7759386223611089 -1.094517844428457 1.2373953326526947
Ni 0.7590712350318322 5.558833843790507 9.617597331423713 -0.982564042366269 -0.2010911204504924 0.9350228022521961
Ni 1.2765558762392621 2.6632258632535435 3.0973118931229813 -0.09040692912934753 0.13526599442556703 0.41763277112810016
Ni 5.947407825377246 4.290888130587876 10.959687345682305 -0.15172054043716451 0.16739141420520204 -0.6727648804843962
Ni 4.258736139141332 7.6358303429079175 12.9368797813393 0.9780401863539865 -0.35626568087452837 0.12649750420431763
Ni 2.2094527371289647 1.4939140434437568 11.076737574933563 -1.5250724658245476 -0.33007822384588315 -0.14446951530170604
Ni 7.176833902443861 2.102900815991823 13.15435330442585 0.01051581192965931 0.1588682072255393 -1.2572211091293704
Ni 5.807421155385101 4.155220384819895 8.362032534330348 -0.724964445306087 -1.5794523261270088 2.3462036255618943
P 6.518087216612279 1.3933329427618146 10.884738321993122 0.4324551808529133 0.8521090961761002 1.2040234420604683
Ni 0.20650733151481418 4.335406272590784 5.8452163565818065 -1.3727068356042165 0.23420641494722244 -0.022204046900864985
P 8.603057114297375 5.479838135758813 0.8922823619355573 -0.3878534829831385 -0.47965395002590294 0.37038463677441374
Ni 4.275107445922667 8.34333103873149 8.705415618410031 2.1225423331203706 -0.9737708695546714 -5.286026120104638
P 1.9419747462889412 2.934958179023779 5.595894458730282 0.12205875170667366 -0.3039097929806314 -0.2848854293593287
P 3.3230061377883438 7.015289525213161 6.688323890267635 0.07025359410992417 0.23012170335488755 -0.060845670532462946
P 7.329518947932688 4.7843990509629775 5.021207142729108 1.6775609947759882 0.7512195223478739 -0.3512484301655951
Ni 1.3482518640544754 5.406010371243212 2.3331649992807013 -0.09856323968789477 2.7369190034738606 2.46465409109202
