# total energy = -340866.20522389916 ev
CRYSTAL
PRIMVEC
9.26320321094733 0.00000000000000 0.00000000000000
0.00000000000000 9.26320321094733 0.00000000000000
0.00000000000000 0.00000000000000 13.55763423814877
PRIMCOORD
 96 1
Ni 1.2678823993462651 7.608646823731727 3.306882920588738 0.6395747668856726 0.2861378137091911 0.16563997873173408
Ni 7.0939554693018785 9.324525515112093 4.7269912419314295 -0.8349243568666975 -2.792769020563945 -1.3739131972074918
Ni 8.75813622412243 6.8417925542272915 4.782835388203513 -0.024156285531229366 1.1760233573031165 -1.3935453696161224
Ni 3.0664444416911363 1.9569720787378813 7.955335168627309 1.5730813896036586 0.4675522816663625 0.7838221388742437
Ni 3.019063157780824 0.5033948782365679 13.515402392779974 -1.7921666326387264 0.957660337146054 -0.5789838926764932
Ni 1.9587413505319906 3.96533640833293 2.973135270438553 -2.6545002347563122 -1.1230033534626596 2.7805310837368564
Ni 6.9182232430921955 1.8346885344759007 9.677059867490723 -0.11744233598058482 0.5466923796326392 -0.3860704229407867
Ni 8.381772281741984 8.247390994217664 2.8689714777810615 -3.372665140642063 -2.6647296257938042 0.029978034419329013
Ni 6.0094381755283655 4.0836367752573866 2.6667594591596444 0.47752327683614537 0.6910353966588099 -0.08969370511240682
Ni 4.8110575891203355 2.3174403645806736 3.5935318145234825 -1.7824748592722592 0.5615893513491296 0.1419256658339298
Ni 7.7863706386101725 3.726179030425513 8.591418947179905 0.8337524480457835 -0.8821789189782873 -1.3508863972950154
Ni 8.628979383152444 1.0418972962620083 3.205119223857183 0.6942173939312172 0.6327076074521942 -1.877328768429367
Ni 2.6210511097310922 1.810076203811248 11.104990037539938 -0.9005815898551908 1.0739145663558085 1.0081364915187347
Ni 7.157010092875192 7.147598678514902 10.530539907203503 1.4439842429929646 -0.9704196936942513 1.4461632529221546
Ni 1.6143169324766193 5.393787170396957 9.756452928710372 -0.07212432877007578 0.06845742144144984 -1.3732951040075188
Ni 2.0535502343681675 0.06024972567144709 7.486552248813201 -1.0672096435318073 -2.1907470151210657 -0.2174469361006965
Ni 5.502518648508245 8.839930307588325 0.4710338781699647 0.4821047255592406 0.1481446501604481 0.4997172964346813
Ni 9.143967160081827 7.491939727742279 8.283578623489223 -0.1775819815849587 0.3156227105421855 0.9115663710014688
Ni 4.939158424935723 6.261110140838096 1.8787628548757571 2.0211873896199513 1.7349487886668378 1.6394636736836345
Ni 0.5751754391399909 7.176583241047721 10.819548138970495 -0.2125343292904275 0.011809591040418371 1.148617711596654
Ni 3.9836960768979814 0.7385255417518416 6.057564220968764 -3.341454519367213 -0.4829693875523811 -0.31950173388161746
Ni 7.171886797070687 7.044230595004606 13.454473674320527 0.46129833033685075 -0.4087259555567735 0.5240278481555879
Ni 5.032633407523986 6.970041601292447 9.64198567523305 -1.7626069167037388 0.43740378310744027 0.12948435474678344
Ni 3.7965052684405842 5.34899958335759 0.2765149497318348 -0.7280631388360687 -1.5261142768255007 -2.2364902827944513
P 0.3493691158757671 5.777617254484481 13.003899432860766 -1.331492566149436 0.5452427916703061 1.0362288788795766
P 8.73462621462793 3.600996103589939 6.6015912133293195 -1.0142328342244595 0.09418079434948297 -1.1168823281665863
P 3.917834702782181 1.3361151534583589 1.6625319046668783 1.3477226548550532 0.11034197749037772 0.3137494047788726
P 7.9006970914002155 7.915583058798822 6.463697319185489 0.36105076096799754 0.7717001587997291 0.22662166062142905
P 0.12775346569874274 5.650090737261946 2.3694273130775367 1.0654998599295522 -0.7065887710123767 0.44857831166702106
P 7.2330332008032325 2.4000032939047427 0.8078031851748019 -1.3503269252471195 -1.1270885792756264 0.37123695747238
P 1.2075326310812244 0.34080157931884675 12.018408559299651 -0.7665003597663445 0.30497680079256506 1.9907943791503906
P 4.144496019693506 7.402985188271951 13.340630760732852 -1.327861911375384 -2.006976645337208 0.8568003310041825
Ni 7.362217831382551 1.9069415187379601 12.06401686613461 -1.6957160684184602 0.009681231843505908 0.691131555917042
Ni 0.5893768558287298 1.8012391080438115 0.35252972077707667 0.2295576033213014 -1.768786048931257 -1.4340129907128658
Ni 8.08872158813756 4.7117282621662255 3.9361739923003896 -0.35152533797606555 -0.7715314944323487 -0.9553579142651224
Ni 0.3602858007415154 9.331843445569403 5.177050449298243 0.35145694663197535 -0.20054733213188042 0.6256339884348644
Ni 1.841654463215012 1.6797799888586673 2.326462724410321 0.11716054307410789 -0.9131879657652918 0.6342325287371529
Ni 1.4966001473481256 0.06173461713006352 9.978594728824074 -1.5717323317749319 0.6204614430949894 -1.6195481657066302
Ni 3.2755890415204667 5.35344592085064 6.4477395991869955 0.12775220254702516 0.5260335657317069 0.27012883987544445
Ni 8.38702451790565 9.355742509594545 10.923006075550965 0.7048607325776763 -0.9068057163880319 -0.41207893118940647
Ni 2.418020223954705 5.968365132936319 2.075971817497182 -0.48441306197744316 0.4730726972639594 0.015246641746425354
Ni 3.845183400786369 0.07721435584805424 9.850489261407132 0.1878108584018185 -0.548081803780998 -1.3919530854283384
Ni 3.1738790713669527 8.165420909892669 1.6698127823117475 0.5539400623339878 -0.2675811337529263 0.04487886279056142
Ni 4.040414669543698 7.522109980273245 4.978526111835124 0.7958142782391133 -0.38902667735563323 0.9137415242759166
Ni 6.4753865551906555 4.621875191994177 0.35611272774022595 -0.3115644813124118 -0.2385490081866343 0.35683312334222417
Ni 6.2497256642152665 6.352408270695387 4.233141168179943 -0.35552905981882 0.23606172298840633 -0.33192016215062836
Ni 3.256562422331458 6.6711643529315054 11.016472721256427 -0.6859523257089477 0.7333752950776015 1.3956912123145317
Ni 6.034578508770318 4.907487533500854 9.558376003957493 0.9039463925623659 0.14556120570398803 0.7470232248783393
Ni 8.808963419589857 3.217332757158404 1.9876166072681047 0.5582662005131676 0.8955242299369416 1.6597753886577933
Ni 0.23182370000481786 2.535820377911193 4.427855550203704 1.4936080766676794 1.550578323405136 1.5805954385925167
Ni 3.8544466038968896 5.060154383965341 4.042045919611461 1.5695816039805162 0.04382239650158904 -0.032555308228202
Ni 8.210365971384913 0.0758165384986767 0.17785072076105943 -0.3957999915237248 0.0019098154282031626 0.10607214647043023
Ni 1.580209818623683 7.3007564787442485 0.1816949500519254 0.026728417133779776 0.9657832233635044 -0.7592362220047634
Ni 8.444039533050903 4.914527567864849 11.466368896248495 0.15697947484325867 1.5022598388054063 -2.3103565339562984
Ni 8.518061789107072 3.5898524702479837 13.230881256599716 1.616518634851687 0.9729270334971373 -0.2104584205980053
Ni 0.811971626574536 4.75275498874272 5.178514961710016 1.0081051240601673 0.24279698482971088 0.34635330685682286
P 3.35075993476234 3.6254139069892717 12.583558433713126 1.7467110714090885 -2.4867686636028723 -0.7461307949710569
P 3.8059074195977622 4.015783812472824 2.130649726497651 1.671017794340832 0.42025812456608913 -1.0579161340450232
P 8.882327988225178 1.2062357826457515 8.986162937172246 0.7733952871139649 0.18262571465645322 -0.476840648946824
P 2.7654459198178847 4.0445831109434325 8.022608254897152 0.018438409210845667 0.7329119822879379 1.2654812922556335
P 5.416259701143079 8.22951301221436 3.3845956367641383 0.9950722021356088 -0.30472560401370746 -0.5891204668898627
P 7.246001685157962 6.443271030006481 2.196038677254815 -0.4507694057810689 -1.0477420217254987 -1.055758721382388
P 5.032327721821337 1.268271453876907 8.620851848743273 1.26050723607981 0.43058007531738746 -0.71531715202431
P 5.630063692137002 1.7441129344612318 5.556148889236915 1.556784709326164 1.4763392622849025 0.06118737014259785
Ni 4.753421939366678 2.2463638071136502 10.735111263657169 1.8255925163973399 0.7082522747577286 0.3861940930028446
Ni 3.0019447584325825 3.13539972564585 5.300505788753704 -0.36678637790019414 -0.26771148868320344 0.5813127979199859
Ni 0.7216915227390928 5.167014695048305 7.6121371986637705 -0.5170370186600515 -0.48765368040192797 -0.10414870419547224
Ni 6.200612161323288 0.9443094514926754 2.29833037656367 0.6487530909508311 -0.402612643570184 -0.3448643810161222
Ni 4.176203963940817 7.723316015036859 7.381345419485465 -1.0200545831125594 -0.7121829772707026 1.149124990250376
Ni 5.154833582957971 1.9646512741165025 13.287593365003255 -0.3587030866714274 0.48797172586297893 0.28994947414579736
Ni 7.647793120076786 5.5072336188915 6.200611235002976 0.21900785282991314 -1.1801108971089287 1.1654877478791152
Ni 5.193377771100846 3.514079468803926 7.8933495186929505 -0.7535201454565925 -0.3484024760763677 -0.5854119076900242
Ni 4.271587166369846 8.840578731806062 11.937944671800427 1.9101591846958261 0.7383668347549219 -1.5779163490984567
Ni 1.8472679642999874 3.67611141761315 0.7026445245032406 0.26794700173277725 0.8286138412676375 -0.9828118967110171
Ni 1.8075380861589654 4.783953456818953 11.943855521705249 -0.4342652374784585 -0.3647868309716621 -0.7270017874510899
Ni 5.865830737705968 9.159112497167529 6.784213410012607 2.2699318502823487 -0.5542912750258197 1.2571979692009188
Ni 3.8334654488515607 4.513347504351319 10.243674254315971 -0.4787576634638787 -0.882674627667783 0.10795625086702053
Ni 6.460898905525801 8.773652089332552 9.22649859451532 -0.6738180043392589 2.1089805352755358 -0.543213162834787
Ni 7.101115925306312 2.3030916629624776 4.125818623261763 0.14983386493741294 1.7839018215267728 -0.7817320891144343
Ni 1.1545007932734948 7.164050127239187 6.267355392375209 0.907987909621591 0.5297791488170683 0.8213856989503144
Ni 0.14041255906958 2.2533112094465406 10.970105758086717 0.2308182152012799 0.34683744558209295 1.0283510187933969
Ni 7.735775023220509 1.4372230154096892 6.324337986309576 1.3289520591157693 1.6945323325230042 2.0758845240525154
Ni 1.1587433402981133 2.9823993998693843 9.040189642994045 -0.2912031440472404 -0.02236705484129051 0.34309314804831237
Ni 5.674110222927526 5.810362677480172 12.05909532632199 -1.701808297359127 1.468034341963633 -0.8457366169908532
Ni 3.6613643982612016 0.10581820073303032 3.553252628438006 -0.6780978626615354 1.2724662082138989 0.0712828067053869
Ni 6.6531103700691006 6.778876878700636 8.027041623905848 0.2214779116369605 -0.4541560628651146 -0.9951112829036605
Ni 5.950514940542345 3.99026368790334 5.252200037172963 -0.766419370016764 -0.6879287327090281 0.19391465730671117
Ni 0.9890599857195997 2.228745194797441 6.814568926605784 0.5113798203742741 -1.2064909297643545 -0.962431276172136
P 2.233219321899822 1.216601306926424 4.686345233002777 -1.7129586575489917 0.1892661027911063 0.7575755464728889
P 0.528847381423345 -0.08385699879860846 1.7458164375132565 2.067780663998458 0.22158204131499257 -1.7917254313362496
P 6.511355572868806 4.03600538486309 11.501280056131426 -0.6618587750948538 -2.998446474833539 0.4145983551771505
P 2.565897998411053 7.695359668049308 9.160526988282504 0.1726853156142897 -1.628371420425215 -0.9378332751177977
P 6.6772502773751174 8.861068937086532 12.114925577789407 -0.5713546582660095 -0.39152193297366117 -0.030205062828470564
P 5.438667389467429 5.673971274880868 6.382147784281712 -0.47231345050043166 1.6416128588161536 0.912984077284602
P 2.32502692792819 6.327907098468059 4.71644323254948 -1.2949391925054343 -0.029604453129994174 -1.088235868074487
P 8.37545477722061 5.5595614532628295 9.34306766877842 1.1304796072350467 2.2260549463937407 -0.01240403009130767
