# total energy = -381169.7587753887 ev
CRYSTAL
PRIMVEC
9.23098609553622 0.00000000000000 0.00000000000000

0.00000000000000 9.23098609553622 0.00000000000000

0.00000000000000 0.00000000000000 13.51048123318886

PRIMCOORD
 96 1
Ni 1.2926980866704576 3.5502373205568305 2.443668225599965 -1.1927100739301781 -0.27198054837220254 -0.06377467125379985
Ni 0.7383588990103465 7.630582489807414 3.854013386121262 -0.8649103617058266 -2.362451454879325 -0.20860799765282784
Ni 6.660839688880589 9.147768931648494 12.452246012267434 0.394730669718946 0.997503694395237 -1.090388909861748
Ni 8.778381784952181 7.006346274088913 8.506375081744558 -0.043417961974318776 0.6281647252765181 0.22383227080175
Ni 8.023637885307439 4.376853679322362 5.845810064084801 -0.9306550122018037 -2.5481743204038634 0.2983389837610733
Ni 4.291273205586317 8.289979532239384 8.853620784766695 0.4650557404967539 0.4666709075026737 1.0458437762615214
Ni 7.563122442125071 8.69322593658469 4.1866547457610475 -2.7615781967834376 -1.1083179835363428 -0.30483436167742983
Ni 4.535109707984936 7.036171590736649 7.012480264467255 -0.06085286962131455 -0.0030009916098528958 -0.905778560675098
Ni 8.96251226813769 8.459811217688175 11.556015093623465 0.5218796914643334 -0.10948914257177919 -1.9092438719704083
Ni 1.8620191650514835 8.311155414749415 9.160309226500228 -0.7118461627565741 -0.06939535987468694 0.4395326565249849
Ni 3.6933453007455785 4.790448019279586 6.957276197259439 0.5625064638467603 1.5150968426690743 0.7619821601810167
Ni 8.12458795118786 2.7811023133126405 8.067352143901378 -0.15429884268730204 0.20600321304012909 0.5420967898421567
Ni 2.9103361211332213 3.7760641687370238 5.08677744821767 -0.49270898343764824 -0.25078771634467134 0.11574412234255549
Ni 6.704613025786674 5.982039113302985 7.788576358459839 -0.10793156827667219 -0.5197518464880533 -0.2630176827519599
Ni 7.223939082513682 6.510633080247982 11.313839245655341 0.00018923319267064183 1.4832259621024069 -0.37327609938959583
Ni 7.490668430869088 5.942908962492168 0.9069610170875861 0.32423127814680286 -0.5573344327275175 1.5377390055486226
Ni 1.2081330214244328 1.496933657958341 8.362785244072365 0.012204255375675757 0.3454192250783277 -2.5960454330535288
Ni 6.200278090766855 2.9892979777115967 11.147214404837756 -1.87776688440805 -1.6296502871376384 -0.45796643775014034
Ni 2.7144915163674033 8.764470688638923 4.668776235413763 0.2583012511128971 -0.15480483578944304 0.08455072745888664
Ni 4.807626884733451 2.74868308952222 2.8489685243909912 0.9369143628479543 -1.3796506139119014 0.37566928221212076
Ni 2.37851130899271 4.243078226255514 0.37162843016337316 1.7353061720062566 0.7538469326683921 0.7311109245234569
Ni 0.15879050276777573 5.849814465929985 12.641379690012855 1.2277020166243309 1.2806099203669559 -0.5030838989140691
Ni 3.197835188602651 6.349053896527163 9.679867904081311 0.6972489816686895 -1.0507730952423386 0.6276908709638932
Ni 0.6612515475741965 5.021074980321687 4.058643120522999 -0.5017597807860068 0.8749854865536415 1.1406331507292806
P -0.0375894992018707 3.094863536728466 11.54161290884049 -0.8810216654453923 -0.4215531892284288 0.12723618214255505
Ni 5.252338879416618 4.329858728207034 12.658037927840928 0.1964561927816423 -1.0204657025080488 0.5278665051753877
P 5.65869612613589 0.766537407706997 3.367284711219743 1.3874441418143912 -1.2592337686840251 0.6148137578909089
Ni 4.964295183757087 5.3288914485777665 1.1326475542764314 -0.7885712235234549 0.6515771906631876 0.3207672308576024
P -0.1768315423395289 8.693041316859233 2.1886437678385935 -0.3878820222282287 -0.6606009914283526 -1.5246418060450322
P 4.7075629935352294 1.0044420783266508 11.603747600541997 0.32268501670560557 0.5911171856049174 0.2840081689606979
P 1.3638874528070521 7.001961555609286 11.046183106278136 1.187709278281477 1.5223846345797394 0.26514089974254984
Ni 2.743901438632858 0.26589025170320074 7.242820141836268 0.6762189004712676 -1.0950192095449076 -1.6173012786539822
Ni 6.382386987958601 0.5826478532632097 1.079837081809178 1.3107792448614846 -0.19306233660874492 1.5609288134015247
Ni 5.706097240647225 3.866352445472246 8.49316184799353 -1.4683613862857485 -0.4962447645050487 -0.24293171063536229
Ni 7.716679898774739 1.329935885295331 10.646083545153262 0.5851447700715664 0.6886388714021753 1.1674569557903443
Ni 3.65290434988401 2.575223626468181 7.437155480346468 0.12256037393344053 -1.3114572447651156 0.0012521272395462307
Ni 0.8543887040661736 5.961398627996783 1.2857739238671564 0.09040667201903138 0.17273545212593477 1.2358002202514329
Ni 3.688489801966034 3.1053222441756603 10.862751408753486 1.1483354044695449 -0.20016166665768753 1.6515897675232072
Ni 1.6949936994296548 6.048299132769852 7.871557386461434 -0.23424241039148047 -0.011112564973393763 -0.33263749993262715
Ni 8.724205126516539 1.6708454393397518 2.0409876807131884 -0.30432811146497263 0.20316651492228235 -1.074449355813356
Ni 0.06286301651843998 3.599401553446289 0.28476023384226024 0.3765046336292226 0.5911056156406916 0.6005377075878691
Ni 3.423948197357304 4.597105011793724 3.0299955499915523 0.0508546207580221 0.23436325224006088 -1.5213705914929283
Ni 5.3490149986526845 8.267335922911965 5.066538510814341 -0.5529568724851123 1.1449839714988088 -0.7190010286338004
Ni 5.729691641560754 1.308981546455851 9.072733936630609 1.0822313137516202 1.321069828154215 0.9559250996225022
Ni 6.43257586032435 6.141725944837859 5.361931917744353 -1.1401855216689007 -0.7966683987092925 -0.9625768006110647
Ni 8.008757535435526 6.298735790353593 3.347505476932803 -0.807330763519145 0.20164467896111724 -0.045764093608992154
Ni 4.714329306473264 6.645931646049858 3.5515139659583723 -0.5756957088435247 -0.2832512361900154 -0.18647234209605307
Ni 0.15991945238895125 0.44305872504169047 4.024394315253289 2.4498208827339294 4.170059361773786 0.5339746749556545
Ni 5.990356231934866 4.715113940306461 3.109694039274505 0.8699430390337276 0.9483154055960443 1.948944275883824
Ni 5.203230032444797 2.247237453205818 0.3718084343956948 -2.600167939862335 0.47896283749614926 -1.1672080730043317
Ni 7.25418902452997 2.3606124266095594 3.6407776032173027 -1.29829396791028 0.11073844159784799 0.7897390185793108
Ni 0.12430538424948086 1.3114092958456232 13.002636184 1.1296046608292611 -1.3421407898919013 -0.4600004374610336
Ni 5.253132744236087 7.862677177666906 11.18535499392012 -2.477909927660661 -0.47595747501092217 0.42178356007168
Ni 1.5921512813632905 0.9336219516409721 1.3981861054026345 0.5337741289090743 0.06740969690322585 0.78131531329199
Ni 8.148533129579759 1.5593351251631358 5.797860628988856 -0.0754014568594508 -1.4818231682176093 0.4680094238084392
Ni 5.827226242520202 7.1361708650309605 -0.09911309961211308 0.010297011050633879 0.008344258199637241 -0.5998442810652701
P 7.550374450082198 0.7574338090446642 7.642919702961143 -1.8260964526169519 -1.3576705100963844 0.3777927563130268
Ni 5.387268205767577 0.2871012119610673 7.115254373235199 -0.4073871821406919 -0.09714039119843916 -1.0467382630513329
P 3.2847080004169005 4.017260609061593 9.087852445948363 -0.27996228102609855 0.8793165098288276 -1.639748037693273
Ni 3.970016421316898 5.937028824236331 12.044635197612303 -1.7317541929889402 1.2925187559893998 0.40268643423091294
P 8.45043253563491 4.261050956528847 2.5926074198173037 -0.4829575604778392 0.2969441602960757 -0.05201058873933623
P 1.1473469768173952 1.354896472177249 5.910078959812603 1.5192728284236352 0.718994343765581 0.580281271331678
P 1.931491567741319 7.33482168962374 6.13493378513826 0.5161507594003563 -0.6062977500000978 0.0261234365599292
Ni 6.146119894303759 7.763148683672511 2.153786640573501 0.40872646977740573 -0.12499572284781053 0.5102644758229082
Ni 1.0694928385917677 3.363051380914991 9.608613921040805 0.14112682408171826 0.6843451291228279 -1.1968384942762549
Ni 2.236141807705794 1.8908844591268377 3.947951594828788 0.06521346058285543 -1.0991604854067907 -0.6017561533760023
Ni 8.803231599998824 6.345019955525907 6.032780921746482 2.0347365890592957 0.972408441989506 -0.02468773255466716
Ni 3.7488512212045184 0.3487697388557942 2.5175022693037454 0.4359151143770557 0.9834140490713902 0.11696565345448244
Ni 2.535853470014268 7.62216383032653 2.1686079121332673 0.03195315586782884 0.6513527333572072 1.4216552404784613
Ni 0.15880619544443966 2.8299065377374557 4.539129802506784 1.1688409806220645 1.1934664924802285 -0.8821259542531645
Ni 7.464480122812875 2.3866899628304985 12.965063300573421 -1.6037752191430894 -1.1087450437714323 -0.47608500172772206
Ni 6.799009091413336 8.49568283034466 9.7585934474111 0.272625123934737 -0.7834706690720958 -1.3091980164172936
Ni 4.2687495990804445 1.357167294800382 5.0672280654889255 0.6737514127673816 0.17056955482286756 0.5587567669963409
Ni 1.8376216683322122 4.109976635186587 11.733960816006133 -0.2525671768425973 0.5582541163283095 -0.0855647705456978
Ni 0.2795696502610093 5.443327985402891 10.285462143021691 -0.7351568124580564 -0.20766697389579716 -0.8662043979269018
Ni 6.91496874097349 3.411264822218341 1.414858189710117 -0.06010673548390938 0.44607945650456726 -0.4951175928791409
Ni 1.1653197070907289 3.92190452086255 6.794772068714076 -0.4166554948164953 -0.7996552492517582 0.1522941535524474
Ni 7.269272456099887 4.496302641693671 10.03404515469577 1.2985209963194217 0.9929649259846189 -1.0529562189365864
Ni 3.486728134999288 1.2327797547730723 9.508460489275738 -1.2428319302872337 -0.49041941607252315 -0.07220017631333372
Ni 2.4825629862608243 6.270442817427159 4.156256184865765 1.1857205299862226 0.8258182808003712 2.060917875440354
Ni 1.0693543737976743 1.1992158886848128 10.532838728655967 0.5382565901604601 -0.06949177624323516 2.5162165365503437
Ni 2.603839683914167 1.726055968237959 12.85646628566453 0.6634479739588445 0.42972261241309867 0.08201767662438778
Ni 8.48027631425519 7.987258568405945 0.12787777593709265 -0.6199672770673904 0.05802799857800974 2.458723584540198
Ni 4.110539725349235 -0.38108003700819415 0.2140139550467648 0.07771262149113069 -0.11135242103276306 -0.5806178287354903
Ni 8.803997771859475 0.08977964939158524 9.181682652116496 1.3490771120004184 -0.8708285269624744 -1.2740633774976897
Ni 0.14673483469537008 8.606316200825349 6.2676605981645075 1.0353423625095652 1.046430502002927 0.5937193991144549
Ni 7.518139846017235 4.697611990333044 12.557870649596449 -0.5169048639575614 -1.714504918990189 -0.702758598633009
Ni 2.976836146243184 8.976894144750867 11.373042176116577 -0.11578140333839414 -0.7156557663106514 -0.8291391176434881
P 3.009550761594337 2.655191660550302 1.8102554864275768 1.0638736371800388 -1.3005400836319796 -1.8262915993468933
Ni 1.6851811610215635 8.549527173274477 -0.26734505513980955 -0.8792843710393116 -1.0223788603703619 -0.0016434491406939439
P 8.666973011624567 4.8509571342984374 8.080227523554818 0.7224663614745815 0.5080654112890605 -0.14571598611429742
Ni 6.235254297754869 2.570903524892464 6.251232211894629 -1.7247451086609586 1.0288894077953699 0.4524547639032917
P 5.048306389826738 4.128226295048108 5.206912272869055 0.7568543520361481 0.3648048286937911 -0.3931039327488004
P 5.622667586712766 6.307468303367755 9.601520831188711 -0.1627883682155519 0.3575576602130745 0.5554996935116239
P 2.8378082619870564 6.801362992912926 0.36633907502900226 0.919990333399106 -1.6837164728544232 -1.6014488850027582
Ni 7.234582409686333 7.945857594971995 6.5360875248955 -1.1951071134074451 1.1099166954820305 1.2380082836463453
