# total energy = -381169.0259526847 ev
CRYSTAL
PRIMVEC
9.31921866339948 0.00000000000000 0.00000000000000
0.00000000000000 9.31921866339948 0.00000000000000
0.00000000000000 0.00000000000000 13.63961851494143
PRIMCOORD
 96 1
Ni 8.543757132918692 7.406542202140798 8.84250984814539 -0.5225623193536548 -0.3839986280134225 0.42414511832532115
Ni 2.9215843612075876 7.117441401654096 3.4851678358305502 1.5098584770882706 0.5467988233035164 0.3620144104328475
Ni 9.131753232677204 1.4600233450664284 1.6219140154234282 -0.301469558970255 0.4481106280019831 0.16972083366932708
Ni 9.223528897792058 1.6263341208218824 10.854312945512026 2.7617630591007343 -1.1639060052142924 0.7668384598320536
Ni 7.159862484879403 8.102818303216276 12.885307109813171 1.1246102929384632 2.278007942422264 1.758790371171126
Ni 6.586972838527795 0.2450367390160923 3.6037921698320727 -0.39581567525300865 -0.2968181762411727 -1.3769440136140159
Ni 7.770839777791166 4.955513147456809 10.264358877918358 -0.02681017821430867 0.29949418041143905 -0.25143383456910245
Ni 7.860322915121877 6.120490030547575 1.2911208946086548 -0.08036471440199708 -0.31700930647706693 0.9403264738532967
Ni 2.41899890023641 0.2607554650872973 0.32672341803698535 1.1499048058391939 0.41812359472158955 0.2387747510441952
Ni 1.4338642983587313 8.785525621959584 5.17087469857432 -1.4936846955418857 0.6262325412508118 -1.1437572981805593
Ni 5.1930413920188965 8.406792576644015 11.189329536212062 0.4582909109690945 -1.6057991915516538 1.3767378111404807
Ni 1.8558291989208298 0.23467749558172252 2.65581142880735 -0.8759846172421171 0.4637185097425692 1.05795752880592
Ni 1.6438449326365467 8.03736011152591 8.590382115670128 -0.11045716291200332 0.030028170930974096 -0.04230338875390134
Ni 6.488804189429512 7.364065203603682 6.769997632904644 -0.28159004643750857 0.788885412329764 0.028386521562493047
Ni 0.1461747400513854 8.182991541130889 1.6412010703098727 -1.457031048874594 0.8369349595388231 -1.1999670126029076
Ni 7.053930926658387 3.346456857983723 2.5937780499652465 -0.049623576564398406 -0.7717996604920707 2.1586251948858566
Ni 3.450300911230558 5.4630657519603005 13.061925873300503 -0.32314472995084353 -0.45700870182256126 1.9079408368882689
Ni 5.809088339867955 5.64506077267801 9.02770881622972 -0.6177676983129102 0.6852794680116391 1.6622498183402146
Ni 1.0947752091153182 8.98627091057038 11.051937227802048 0.487893821437192 -1.3461136584967204 -0.8936473246292028
Ni 8.922732477918766 0.4675834077009822 3.8913692780719966 -0.30461607501903665 0.07647052155391346 -0.060979110786533695
Ni 4.64584483144325 -0.021409040969573273 7.066318032067675 1.0577898928798042 0.971426794802527 0.2362815523086963
Ni 0.7922770999193226 6.838032588547516 3.2628010280653106 -0.17451208441038332 -0.06406469169039289 0.6210494543879755
Ni 5.164450029247535 1.292501070888459 10.57583325850333 0.909221524918376 0.25544089884596655 -0.3491491244344051
Ni 2.1619189349786514 7.280816623539609 0.9154566679895032 1.098810815376856 -0.7751086702606457 0.6133631414873114
P 7.016197410406352 6.962481434195747 11.218245207791913 -0.4672974853430791 -1.9233227186609783 -2.447714635024204
Ni 1.85476680799647 2.767369931240018 0.9877076381427284 -0.6531422211574622 -1.129878226205622 -0.5603009715550092
P 8.789421055348903 8.517514213243285 6.381063770871495 -0.7276314506152888 0.44114653797932407 -0.14317110820525664
Ni 8.69914578443424 1.9495153038558055 6.305022674499524 -0.614002060622891 -2.044501124645227 1.2381558649678033
P 8.057340516278778 3.8437024066771985 0.9260600749521029 0.5230935092667767 1.29753754936023 -0.5479900153981401
P 3.9344063616490597 2.8243010378796045 5.512233949477154 -0.72169940140157 -0.049680912164895084 -0.09868870952216552
P 3.30040127949087 8.222551624235333 10.105429855243477 0.21749064485443834 -1.5539667802613946 0.1351245837516963
Ni 2.076396465567702 1.0375831643539588 6.9160502911919135 -0.0964006848189372 -0.08890566199347269 0.2519094886539403
Ni 6.140666138891773 6.588119102419867 3.265815795293647 0.9138309986659293 0.9948549439184802 -0.24257972661258223
Ni 7.833847014980599 5.370628422322379 12.675229555661554 0.9936964048340047 0.002231460433680028 -0.2339073956495649
Ni 6.381139256542436 1.0932282188219524 1.2730192443325483 1.1840164028109221 -0.8609894293848656 1.2436120029863678
Ni 6.134617965997831 2.8103688060206777 5.172252079088533 1.0081002389641605 -0.10537589173435401 0.3881648435759702
Ni 6.11943695884185 8.771928881971508 9.170188486092433 0.5216140965077726 0.14112142476507952 -1.8101543274653988
Ni 2.768833048565671 2.728191936099598 3.4338012346377624 0.6352442578311189 -0.15731911757086453 -0.4729035186759468
Ni 8.740150346427066 5.094807508390171 3.8895417792977254 -0.4754473681437231 -0.5818311323173012 -0.6839350381686028
Ni 2.394321609291636 2.8529203583068714 9.565792112902463 0.0275002623027978 -0.042219827901159544 -1.037725518029761
Ni 5.757981744875076 6.2307457062151075 13.374777634399686 -0.017430536771621596 0.027854303208106865 -0.6724812878057063
Ni 3.221588647496928 4.253580280670047 1.8502003908654505 0.5938029599671967 1.9673968261620567 -0.2903801339253128
Ni 0.4228753882227117 3.7039420848121 10.79072512100165 0.9954123590838471 2.9592093837097875 -0.056009168375768054
Ni 4.118824379211801 6.119474235716389 5.386966876432794 0.48548983998138967 -1.054946252783422 0.5219879349074237
Ni 5.040429867656501 4.610273373914472 3.6059467731804236 -0.6117808846018561 -0.6047957115332746 0.519487537083073
Ni 4.207524702177194 2.557240189464047 7.783884820036065 -0.04524215966725112 -1.6110295867126578 -0.8105934934308168
Ni 5.003777380766095 2.1130955485512826 3.2466927586551737 0.44739688976441017 -0.6782516146305804 -0.66586635359235
Ni 8.169255012863292 7.316024631541632 4.4848702402780445 -0.6181428222641419 0.8978611056002342 1.0710593562952007
Ni 3.7231862712928248 4.645015420984758 8.443687363218926 -1.7387748472811475 1.5374091330130297 0.7704495742220796
Ni 6.573637036661492 1.7092658474523759 7.740497333838337 -0.09941658882712555 0.2873475177465761 0.5405654407992948
Ni 8.003605901630905 9.092798898784018 10.768860370240837 -1.492108352193701 -1.860083608195674 -0.5892261392297917
Ni 5.073867224117925 3.5105310212668406 10.227245089705532 -0.3529553855543728 0.9165111166012538 -2.5196810980601766e-05
Ni 4.580507789595133 8.216345024624601 0.38726292613194113 0.38410404324303526 0.2938308114780746 -2.202352717680794
Ni 2.4222233498840278 6.108281854136074 10.132408993191031 0.4044916057604518 0.11160567469414973 -0.20181308621818148
Ni 4.046880011351658 9.144846734859003 2.275715913727382 0.5369273298260753 0.7024886328010741 1.5169495796070973
Ni 0.7472289289608843 5.291042295181755 1.4688915135192409 0.04102400782084548 -0.9445641660837281 0.5681832025165634
P 6.375463852393883 5.629283335529407 5.31020354061663 0.2000937895342296 0.3498152972634943 -0.20117930928892452
Ni 0.6867975238020915 5.4589466573237475 8.734702331213201 -0.2395707645829293 -0.5969700448412687 -1.1643284374636915
P 0.6768678963467829 7.696425816992819 12.985666707212479 0.4013327484164959 -1.7285346576103782 -0.030110703342451372
Ni 2.324297000470248 4.771188322080415 4.679752808445728 -0.5302591737772804 0.08265890975281248 -0.015734122905805163
P 2.4188777503941585 6.039310317020411 7.202673111443642 0.7593179830852923 -1.6964010103006266 1.1653440232123993
P 1.3064333027473856 1.0242846393621938 9.253376491235384 -1.6367874124030524 -0.10547796452985705 -0.9900618934052109
P 6.606123832822173 7.851916979913348 1.3425723006910184 -1.255966667896979 0.7887560858407513 1.3911131060255462
Ni 3.0432281220467643 7.903974135206969 6.418490684830449 -0.23132497963436935 0.30343413889579357 -0.6029095502541552
Ni 0.3092582703936313 0.4027272375344179 13.156052777276903 -2.3742728729942852 1.2893822672429471 0.06891250670099744
Ni 3.305536168958608 0.41446852109231863 11.661205376016202 0.13572262234701143 1.185768095394706 0.6277415216961706
Ni 0.2033770359532431 6.429878770002093 11.09697514761999 -0.21374429043812868 1.057930018002094 0.14108080133513123
Ni 6.437930574902502 3.555813104613011 12.364927532780833 -0.06046797547807006 -1.0487547792607292 -0.10843396183438746
Ni 2.7751887556745594 7.462858240350493 12.138128504632913 -0.20759472589696507 0.39561435787547994 0.4852029048685901
Ni 7.559479899155409 5.627810898985119 7.729653491034961 2.2661973229405805 -1.8984766061515752 -1.4350501737281285
Ni 1.146645980036245 2.1419198917885134 4.721953958111255 0.6379205191117013 -0.7457957802291414 0.9431459455799628
Ni 2.0207514110997087 3.560314287213587 6.868747801245734 0.430205208476472 0.2277442042616465 0.11321852770722438
Ni 8.973391750417177 2.9957001070096236 8.558914842028088 1.134207449708595 0.5350198283907174 -1.5315045946031367
Ni 5.204289688911021 1.3878459967404173 13.074979302842173 -0.1939305981463112 -0.8305830491788663 -1.308602806035456
Ni 1.0881212870101185 5.087547837073713 12.855531274353334 0.22145425748787667 -0.20117596685481481 -0.31925490797813405
Ni 9.176000882754918 4.162792452730473 6.021932770032224 0.6169290044616988 1.9735710732935687 1.865188276412091
Ni 5.143006507169012 8.10398320554562 4.879300577461959 -0.42428344367539833 0.9186021948023276 -0.48495839295795196
Ni 6.747720040758313 0.35690743527302365 5.841043940566457 0.9380209656485717 -0.6144664018538192 0.5779068575622305
Ni 4.419974929393214 6.314907569705385 1.72897133525552 -0.5501520560464656 -0.06507384968119762 0.20995962658471584
Ni 7.444266399174199 2.3664944224483215 10.09327666222192 -3.585523171820496 -0.3064718972808528 1.3384728541220108
Ni 4.198037737607035 7.0713205886308 8.34860617125433 -0.5550690337321086 0.9452488508555784 0.1855788837475062
Ni 8.982757565145084 2.999707371022559 12.932240558701414 -0.399151424494461 -0.879505485911182 0.019135435277870268
Ni 0.714247282290699 6.69939989213722 6.2062445485025295 -0.9703291908629741 -0.562071947412503 -0.46079387989660636
Ni 5.41762524189734 4.361329086524836 6.953668249132879 1.179755313541723 0.4216712028635318 -1.2219095783122698
Ni 1.7796259481446137 2.0863587102882324 12.313056761859906 0.4239605131183409 0.521980735818572 -0.6490644515436629
Ni 8.73777394567521 0.32062958097173305 8.318830335794493 -0.07333249014556402 1.000465091016406 -0.15541393012835172
Ni 5.456495702822813 4.285312220121315 0.9074570507134478 0.25207249659436587 -1.2827891874064619 0.4192078289247038
Ni 3.8471877944465884 3.1726441112273083 12.724509583802027 0.16515378312393492 0.27100044384712035 0.26912970918696877
P 6.780011133327665 3.688071455477149 8.64050739694077 -0.416644953293534 0.7275414620046439 -0.8353424182407226
Ni 3.4921628413377808 0.7166134319020578 4.6451086131711055 0.1056707972669535 -0.1559417776073637 0.8057204816092317
P 4.114043620052183 2.194769180666087 1.3129493004167911 -0.6782973802668512 -0.2391295632804527 -0.9404264897662707
Ni 4.621298009559362 5.887863694987357 11.214317157137371 1.0829265400464316 0.04638218680896528 -0.9834423312061643
P 2.870701427461943 4.193145147823801 11.07595658191121 0.19967161439514647 0.8877103903194776 1.1420423723719815
P 7.423931864113211 1.137662253272362 12.365405608696795 -0.5210435687162833 0.9646797058866806 0.45523875440633216
P 8.558006218211201 2.9397381991080485 4.4859475419522195 -1.935752202673582 -0.2726642047027885 -2.722524168204769
Ni 3.3575933242522296 0.7197754427848229 8.992832572411094 1.178413454801848 -0.4947620093119349 -0.06514635479034588
