# total energy = -381166.6549812703 ev
CRYSTAL
PRIMVEC
9.28497902474406 0.00000000000000 0.00000000000000
0.00000000000000 9.28497902474406 0.00000000000000
0.00000000000000 0.00000000000000 13.58950534278355
PRIMCOORD
 96 1
Ni 6.491082221079795 1.3272505727754773 11.956671964853546 -0.6691272837318089 0.6563409306004181 0.8104711089203396
Ni 2.7450575433254936 5.86535821796035 10.247696417101487 -0.06310952686597518 0.2577428075062658 1.1078109619929373
Ni 7.64240101645017 1.2136674276943809 2.332801701214465 -0.38784422701175786 -0.9491600129845268 1.0950534052169527
Ni 8.220864477718656 7.05949933533792 8.648551026018703 -1.3892914794357751 0.11458661169934459 1.5479699392480115
Ni 9.142965002622503 7.013993654471211 12.543031372053282 0.057911013384171234 1.016432927199572 3.2679060565561007
Ni 8.868120346565481 3.377884555190711 3.0457478662383743 -0.350974350568602 -0.1319086479175599 -0.8805722366127995
Ni 7.152311982949351 4.310449251148789 5.766176074924604 -1.0066419092510792 -1.9249515125136523 -0.8959685165632116
Ni 5.448629801584172 1.5367661183288934 6.017745146244497 -0.13549919348229567 1.979745577535397 1.0772510869282095
Ni 1.2518101204102432 6.3545094686071515 8.29122883219982 0.1526988451900338 0.4359061155159912 -0.09950991987188024
Ni 2.9216485542220334 1.4162935190133352 3.769035640596979 0.6044714954246364 0.9693367450427176 -1.0754677697755415
Ni 8.111970246907646 2.5494787508797963 7.375092049148795 -0.6656740350758859 1.0134409344507838 -0.13647029914631337
Ni 4.204489073623614 0.48158399296339655 7.89380388665039 2.1718447788999242 0.17471031646411847 0.49473835516285114
Ni 4.520837584704954 6.170081935643379 8.875373771967048 0.0061652482704474465 -1.121998823457545 0.07061560543503323
Ni 3.4719321049762444 3.9215850560092975 13.362030564389894 -1.8556615678685782 -1.0579976380152358 -1.6675581179270054
Ni 3.9896439502661796 4.120961404764826 1.929710133132297 0.44771904899051923 1.9138777711979942 1.7987625406886891
Ni 9.320261671904245 4.639258203716178 4.998640734320274 0.15224581681301524 0.3133506266785571 0.2597564955021849
Ni 5.69410606984658 7.356795070018833 3.935683367747312 -0.5318468299793744 1.0304176715144384 -0.12711354052176174
Ni 2.429748949864449 8.58389786196829 8.627175147934366 -0.8398894141814568 -0.18287048367740763 1.1394190758165215
Ni 4.8943629949450775 2.2424245035298527 1.2771339714602048 0.30658168338583974 -2.080304507497082 0.6571233172923974
Ni 7.533590350447932 5.726724200204619 2.6873792553140676 0.5800485864955816 -0.679150729406082 0.5545805241314642
Ni 3.2531408656489367 8.544947376100948 4.183610870400417 -0.5410783758799714 -1.4445352304004284 0.6067541208112259
Ni 2.669709940747786 2.853626799880162 11.088233974650608 1.306493215891621 1.3133205232260994 -0.34055521211780704
Ni 1.3362198622505317 1.3170092412113108 13.500983056916839 0.457110003287116 1.3827063700190898 -1.3916003300746098
Ni 7.661685917319411 6.389012449651977 5.057034894193529 0.29108204508834384 0.029899101552277537 -0.6633538715831415
P 6.737412707387445 5.498443712592109 9.648385393039687 0.07628000280966217 -0.5700259121522571 0.7833999637351604
Ni 3.9177317898269504 7.735882182531792 12.09903483007634 -1.7054296961617983 -0.7432745564691844 0.2605111142800223
P 4.786490111796857 3.072436609164975 11.839828863732397 1.2457249355643127 -0.6326780397658394 -0.3422300287170687
Ni 7.248643637508034 0.4118473030459118 6.976607687523688 0.32709960083353345 -1.172402729831394 -0.49436323121161957
P 4.23035702442848 8.074830331897068 10.124208056687069 0.5452798155558286 0.47885947914906557 -2.4883735461961467
P 6.760021630650134 0.06303572075170145 4.429132635058713 -0.16102150612311622 0.6356674614114665 0.038857339186829855
P 8.065406078463134 7.458382022551515 10.951157047831694 -0.6636901718766377 0.2559594903535979 -2.7423134350165546
Ni 5.092727281016567 5.611274774394241 11.33435369194057 0.33279305167388495 0.1546739666385336 0.5902103575199319
Ni 1.412356688022214 6.380043160176922 6.0168621447651205 -0.1670376304102091 -0.4140756499044611 -1.3630127482449041
Ni 0.6721154709591566 1.3068700444134231 7.010105105369602 1.9588443086063556 -0.29155487095970434 -0.37679105452138983
Ni 8.719198572351823 0.3457354688334593 11.452038940634587 1.2603030904888037 -2.4669734832538155 1.8394101390067226
Ni 1.8314434890015625 0.7244056858004227 11.06473833591704 1.0844198367625066 -0.49196824861688176 -0.9179956715665804
Ni 2.933245492684086 2.2465748890322845 6.302296319089532 0.4286751449851907 -0.6133813963197565 -1.151138935356611
Ni 2.675104513403072 0.2625448447033931 1.4388838723185184 1.3119133584659275 1.2444707514422375 0.034796795964211036
Ni 4.850036506379953 0.21536229667395634 2.7248450730788623 0.4050256238870509 0.46150221881754067 0.1821372050558089
Ni 6.106609820890304 2.5990141125251527 4.13475609769763 0.6066854723568196 0.25833416123336156 -1.819910378410898
Ni 1.0002429060861013 5.130777123944904 0.8927284231177331 -0.9043793663347263 0.11832885235059622 1.9845255154225439
Ni 5.662147172979978 6.371519549681995 6.316701035126384 0.14148857829651115 -1.205098677402518 -0.6334524560380187
Ni 7.833885133265951 4.996989865098054 0.25214009751318 2.0325730057490734 -0.22164529045276024 0.5918820887954
Ni 4.481645689390043 8.101942469854789 0.609637777430489 1.0815548565098856 0.8307928511968272 1.3978463109843215
Ni 8.77452776073883 7.110668853243742 1.308399280413984 0.3760639465473782 -1.0728606711699975 0.46251523346308737
Ni 3.008611665219299 2.382859807163596 8.604929267340905 -0.187381998394516 1.0053704987378234 0.9525968065802175
Ni 0.7665520613544253 1.8744700805413157 9.301337028210604 0.10738212353110538 -0.42690262646580024 -2.0030225457854667
Ni 3.7895805130829547 6.1949935336367234 4.912687829011296 -1.7604690444251292 0.07465660827362626 -0.41349046682495244
Ni 3.4483111190295177 7.229563006171351 6.879360534059994 -0.18656233070669806 0.1364085926704425 1.0267893307332316
Ni 0.3799366880688242 2.8979254335090276 11.150134142500859 -1.0779527409809242 0.8473759523664891 2.195760152064941
Ni 4.548571816239102 1.1156644769602213 10.356466229197212 -0.34144507092192805 -0.5103398091455341 -0.41001999177784876
Ni 5.598294374098044 5.181658807509394 4.103228952343026 0.515012532030855 -2.6409680045978323 -0.7422121766429411
Ni 6.281418115866336 8.38324947112365 11.421870187671496 -2.003342648129047 0.047315754366828194 -0.0024841998744344314
Ni 1.9004401661124615 7.369153376738604 0.7796002419955163 0.5958480154216834 -0.3165917593236741 -2.2775130050637165
Ni 8.415226937947757 5.218594452987412 7.438215977198647 1.0822526539078587 0.6188375343383213 -2.2312573165302862
Ni 1.1000935675920371 3.730258783832311 6.965205733615441 -0.22284856673224201 0.4198678311062059 0.7867310849909225
P 3.9771185139288625 5.890409090634984 0.25247249975252467 -1.1510376338920565 1.1613323309498451 -0.7881027685274685
Ni 5.02057371112977 3.7923845766662536 9.747126499584683 -0.6404941933761485 -0.7441988680556666 0.5470253374920256
P 0.9442451992289042 3.5694986617090296 13.025826126246024 0.477790414454603 -0.03109440741195935 1.2680901906333903
Ni 5.754300587099973 7.712976139949019 8.00841766437303 0.7020659434413586 2.129083476672998 -0.21383479326940594
P 1.5613713120234007 4.486975267194061 9.222489917141026 -0.602631356892104 -2.2840412931005374 -0.1104489353818872
P 6.92378080091052 3.143708106070272 2.0328133226952843 -0.9291074652090257 1.9353925053413183 -0.8135487194043988
P 4.555433415537307 3.583342565029222 5.52209533896872 1.1850312172286817 -0.1379070315928399 -0.5032811025265398
Ni 4.926238327002905 8.727750037783007 5.689667850002817 1.0450361927585614 -1.0505100713889393 0.7287105426120805
Ni -0.2926421033300892 5.338287114087748 10.773908660439467 0.212095441980796 1.1692215038899345 0.6946179718037456
Ni 3.0266523789356867 4.0113243756536034 4.050175512248293 0.1139471783431328 0.7019718410656556 -0.004006807166547938
Ni 4.030117172648955 1.0859618299305125 12.83708107816227 -0.1219772477364609 -0.02274654966789631 0.220297261065298
Ni 3.3638920922104765 4.6429629102384835 6.920781752773415 0.25254146581098447 0.5887695113083473 0.7918414096342943
Ni 1.8954077076285285 3.1749613445516727 1.7054695397750623 -0.6015365811660286 -1.7571281529773546 0.5606506415849442
Ni 6.94098586653917 -0.1639912947292018 9.273777354277007 0.879281285715518 1.0168265630935651 0.9958234784793366
Ni 7.254363184419663 3.501801881623501 11.566802206515144 -0.5114482117183643 1.342253918430998 -0.834105460509828
Ni 6.880094975879328 6.9127131062373675 13.151107416057576 -1.1173721233188112 0.8328191375982366 0.6467252618875249
Ni 6.226191062245608 4.531301755759184 7.8598840022712295 -0.9223866015454243 -0.794847800560786 -0.4052590800540956
Ni 3.466361117724658 6.731098921835646 2.5053203204300956 -0.6721928100310101 -0.29522023562643346 0.5845642149777481
Ni 1.243128665276521 2.706367036863225 4.54545856286334 -0.5106069467639915 -0.14084168874113162 0.3630220257617554
Ni 9.318497525941241 9.026382809404303 8.456911850057754 -0.11963445853589719 -0.33499982951721663 0.8913711270005166
Ni 0.8268050739739594 6.159710614376676 3.302141412518141 -0.06265469871674371 -0.8677537446918927 0.12746218211043212
Ni 1.0404747190213086 7.556013574135568 10.573830367290238 -0.17525539033431106 0.5048181079963564 -1.4061160071922816
Ni 9.021898164666776 0.02529878160732964 0.837467943573496 -0.4795313084051096 -0.19225578154704956 -0.010511698164601251
Ni 6.780095754713351 8.206686315163367 2.168056466210549 0.5227919188659578 0.018015462740814135 -1.973041940262976
Ni 8.066854535148547 2.4611878879209024 0.09042269408050077 0.5379945947483251 -0.01948150576337935 0.060383386184063755
Ni 0.9695931912236229 9.489248285202368 4.970918573258504 1.6292018867463105 -0.7914426315339789 -0.13609106143002367
Ni 8.596794697455714 1.728742339018565 5.266381453133647 -2.7195013222180453 0.2193780916851383 -1.2709220036552304
Ni -0.4966795114194455 7.800774899034021 6.342561557948248 0.6425256219838804 0.7736179446477321 0.5394598664399419
Ni 8.658344821606992 8.266945827268028 3.7673912708598856 -1.1263779263618474 -0.16990106800093321 -0.08297721232417966
Ni 1.4913161473347003 8.24419762932405 2.7577454667909818 -1.197458387248441 0.8294705328409779 1.3330514259961237
Ni 5.890650500082552 3.9635345900137438 13.695638922474524 -0.7361893674876289 0.2212791653625931 -0.6288666364395492
Ni 8.548243543558138 3.8941850837102443 9.16711337536238 -0.5582186351046838 -1.5010930721908147 0.564997348589414
P 0.5344108795765656 1.0896758214315703 2.7929151093102473 1.0620604952307 0.35917128455709757 0.25611298521232667
Ni 1.5855493966952863 5.731051000303351 12.433989510080105 2.6399058818819054 -1.4211137661526945 -1.4327904311596744
P 7.983549705779823 1.7498842356383357 10.294743404441135 -2.0296527467784853 2.1952749848984063 -2.709709018717972
Ni 5.479455931042952 6.079302698378777 1.5961964818309433 2.111668366520344 -0.1069550632960158 0.7951103101935532
P 2.82019159139189 9.278934231476226 6.4230521102570455 -1.6224643109121606 -0.005883712474286641 -1.2832381020184223
P 6.484434176292901 -0.05009895985564229 0.10177543760135883 -0.1272822048891421 -0.5836404176118981 0.40086943562683225
P 1.6248155718402186 8.474000853451995 12.419081548194859 0.2510515115290192 -0.26483905223141485 1.9863440566885207
Ni 6.057882252396427 1.9380164751244124 8.483492887230822 0.23863025504653093 0.6925806296587427 0.3218895173875037
