# total energy = -381166.2662466514 ev
CRYSTAL
PRIMVEC
9.30075746527566 0.00000000000000 0.00000000000000

0.00000000000000 9.30075746527566 0.00000000000000

0.00000000000000 0.00000000000000 13.61259868539885

PRIMCOORD
 96 1
Ni 5.724746285337334 7.761463306474644 0.4713335440419089 -0.31684372743348016 0.4704015781896995 -0.2957362560309036
Ni 9.291847104039844 1.3438106075421181 2.571542184406167 -1.893572226871423 -1.2779017774071733 0.10925491507378603
Ni 1.408023035454349 9.273022371407405 11.815435514246609 -0.12324223049181356 -1.6242969932455251 0.1108968215525832
Ni 1.148671420110699 0.5622214737639705 9.078568649783797 2.524605531944988 -1.5861523638550037 1.47143154057064
Ni 3.4480697276798087 5.571720926640935 0.8062277697547253 0.9032794484023282 -0.46402858478382014 0.8024333262175276
Ni 1.880352690595534 5.558030211999162 10.68601201122229 -1.3340672688551476 0.455206615616816 -0.6411575379917603
Ni 5.315875696772793 7.949385106295998 10.443612886080787 -0.1844889931174371 -0.3084801859601332 -1.3614382046689328
Ni 7.710606765943926 0.8780789095795165 12.229476393755009 0.13702102944346078 0.6735012444297885 0.07032635632938856
Ni 8.650225065807925 5.473030591679075 12.111537211631047 -0.8441736433791075 -2.4137675886547973 -0.5122362548372985
Ni 1.9827819299636396 5.806751061829532 8.24135261709194 -0.28094032866865165 0.036870647774104245 0.8892407109210749
Ni 2.7351387837695764 7.090739198871728 6.101371148587317 0.5851954208038438 -0.36959890764832476 -0.12994586776423428
Ni 8.65498705350941 5.969802636819296 9.415153753160931 -0.7886833236212869 0.1358969431413466 -0.27281332868614305
Ni 7.817779391499059 9.13544557046915 7.061685493438323 1.3054251796384226 -0.37750196454548535 1.8259853809603843
Ni 4.587803120092991 0.4734420257058288 3.7442272296076236 -0.537556735879958 -0.8424042101835104 1.0270233011209084
Ni 0.5040796500954117 3.451315691952892 5.941899435055175 -0.5423299888988854 0.7588042766736673 -0.3720802793092818
Ni 3.485961012632652 8.30915699744619 13.205595515366047 0.41669586113612755 1.3865735662839798 -0.595519171327355
Ni 7.475511525454723 6.295719771654231 1.3680521011849975 0.35374522844551975 -0.1436220796997462 -0.4090442581281407
Ni 0.3407564929945486 0.8393031226141511 0.28556114921628456 1.0772881108137318 1.2165681114946985 -0.4034667640403632
Ni 5.972630067017053 5.941993372703193 12.51404794240208 0.3842775927064221 1.0129984475967264 -0.20634234154710268
Ni 9.223579545975566 7.899830671777405 5.102777677206999 0.2700015702689608 1.3701917824918466 0.18534928423520336
Ni 0.336867846396909 5.4198023580548425 0.6595985418050302 0.8882199829660445 -0.05638300677541902 1.0398194244443124
Ni 3.2222845451773 7.683411351804969 1.8710789055620336 2.146143260368762 -0.4431702532775723 1.3030780195624847
Ni 8.90668414565321 8.024777044398048 2.776888022821202 0.6980280259265592 -0.21825863336871446 0.1422054018578777
Ni 5.4101016682645096 1.0274639518963022 5.980177631508764 -0.3867270826881791 -0.16507639291878023 0.6902365549065984
P 1.812847794624072 4.830980718614601 2.2314860384309974 0.3123090727879202 0.5360171593069801 0.846178332513962
Ni 5.1168952966056045 1.4082276521133974 12.853995269517664 0.8371835852145195 -0.5620346664166643 1.2466243074501304
P 7.108168817919746 7.755678235477917 8.820840946652412 -0.24323407236712946 -0.7012861278525405 -0.12564312662382232
Ni 8.42421666513191 4.374834381052686 7.9023995409241845 1.147456087188385 0.047257390325067 -0.7230610576357871
P 3.8241272447387944 7.283748512897599 3.9989321866394327 0.12507799814897166 0.7452067404948908 0.8356038994322253
P 6.473317730950878 1.4852193204589141 3.4060079831852734 -0.06021395048573501 -0.3205155198581125 -1.1471634956486307
P 6.7823632921715635 3.9753854595615943 10.772983392075023 0.890370196539828 -0.08628647920307075 -0.4260994138382146
Ni 3.901463041101801 3.1738182992545547 0.36900196262471285 0.19078793875227143 0.30893784232284216 0.16217258900842393
Ni 2.965983578204914 -0.0012137488184452703 5.713969497935552 0.5353301605422845 0.7805000164795461 -1.309206758168042
Ni 5.839991968167643 0.2396609822131485 8.178762241240527 -0.7006672633216191 0.14964386041379388 0.9145370235940185
Ni 0.1772780132479534 4.04281594947522 10.463935970702892 -2.4073717124307827 -0.6772817945181433 -0.8409379100506291
Ni 1.5938614656563028 3.3149851924833844 8.106969696186281 0.06387031629139968 0.00918860847780353 -0.6682063145794362
Ni 3.922166526694592 4.148881784920047 9.011935234764737 0.04935746738720532 1.3281305916557382 -0.6886630397718914
Ni 1.0664806284739108 0.8079232977976568 6.882815190552685 -0.839260008127574 0.9632226617251798 -1.3014348275321068
Ni 4.671872664690131 3.535013206260854 11.386080937959894 -3.0544641278497395 -0.407873120638175 -2.577566400412735
Ni 3.2970161295160567 0.0156466638871301 8.028248086996085 0.19433040468789112 0.15698847370432317 -0.611570825473579
Ni 6.729832615339541 8.517614869230204 2.6816678003816556 -0.3185802505086126 1.7482059107870602 0.015524577998160361
Ni 7.309958046770234 0.30098645508135335 5.026601685270506 1.0375925919963227 -0.37669798058695125 -2.2242346053555497
Ni 3.3969341644322064 0.4179378967875465 10.306139323547777 0.067581960815032 -0.8434925581516828 -0.15768472844039938
Ni 8.988233185041166 2.0323642667539206 9.052350745229658 -2.1043522924749047 2.6136418059790536 -1.6103029929592785
Ni 0.2594009093569664 1.8098994545823313 11.171015808240067 0.6633358738610123 0.5730628992063679 1.6140984554459687
Ni 5.923912700649112 2.9770979830941258 1.8483869180735832 -0.8972152444861194 0.5869699962057633 0.5089375294813686
Ni 1.625465438722027 6.813092994057719 3.833416841059585 1.5262232915995393 0.6096563820596855 -0.7155164125193096
Ni 8.166864712592595 6.746471670023056 6.853275985591902 -1.6896446654133999 0.4370787956678537 1.5460320987953504
Ni 6.789031935105091 4.892012287554354 3.3884072302042325 0.43356486897732427 -1.632104919325718 0.6528164623869274
Ni 8.139343771950605 3.7365327131516866 1.1945622863566054 -0.9238732133932798 1.313867139758189 4.066689187615552
Ni 6.066437504433444 3.714489918517853 12.867989188845119 3.7407023602302223 -1.5837887487188336 3.3508824975493323
Ni 7.0706588640133115 1.1202855090463697 1.0826602257502893 -0.21275570127261423 1.4569413173742651 0.6426554626935255
Ni 6.050747126987335 5.6238516709120905 9.64730251375984 0.009138214855842328 0.9230813136196038 0.4291379435542222
Ni 3.1419074012002577 2.332722920722285 3.033512656145173 0.011748398785179767 0.01967665249332095 -0.6645538054285135
Ni 2.4001813129075997 4.457341398435275 4.37093736377354 -0.20553090138940086 1.114278571995152 0.6100502750639946
Ni 0.5862639312021393 3.288552440437243 3.24765329059639 1.3330691666079364 1.165102853735871 0.08952966873071677
P 2.6457027022510347 1.2311784374932888 0.5426945339607072 0.40755044719143363 -1.3392765809702292 0.6989798483168671
Ni 6.89140536992982 6.986449808057729 4.644169429206445 1.4838252862493024 0.05896028058429201 0.21616344140258256
P 5.565228998094768 5.045595691684521 0.9752178782355019 0.7512943414498674 0.3036112879036062 0.7341391698268196
Ni 1.575752891330533 3.106620328271665 0.8401141486445606 -1.3441213106570398 0.4070274848084281 -0.1471249506466821
P 3.195972702975142 7.304182276530735 9.890654966517362 -1.4859819275809891 1.1198141571014004 -0.9196491480096033
P 2.6438053477762233 4.438005124155216 12.40871407655121 0.5934661454530683 -1.1422627159129037 -0.045134173334477105
P 6.027988174046833 8.90654463429477 12.095746386006859 0.1808791642789917 -0.7859880361773108 1.7281520774599786
Ni 2.1217724460007745 6.498913414846368 13.007273608810705 -1.212246601301209 0.3288273821579175 -2.821223676360212
Ni 3.343678028536286 4.876349812379934 6.698133774550077 -0.12178261522715154 -1.3609314402358434 0.0909435183591079
Ni 7.975938768186123 8.610482930166418 0.3679500469820603 0.6526249152014116 -3.3528277942011613 -0.22236108557286222
Ni 0.7564984810002182 7.556260699720943 9.959685186674458 2.0198198198484634 0.8450092519065253 1.274422046388689
Ni 5.581142593714384 6.6364251104840175 2.740365809332536 -2.79132354636667 -0.30132994806859714 -0.38489234347228546
Ni 7.962582880804611 2.3333460714566594 6.935033361941797 -0.8751677777677765 -1.481330544851907 -0.5780942909826883
Ni 5.300641056430928 8.034710253119117 5.944525968896777 -0.7933904992889691 -0.20132714772069843 0.1940910349835754
Ni 4.571350080554066 0.32022600148622604 1.4654096376358754 -0.4726703196192182 1.1590828727940359 -0.6719161593308558
Ni 6.259177096499661 3.5690911807496164 8.372456090998487 -0.28131622395083167 -1.024062932941004 0.41870929202173046
Ni 8.428141584682745 9.205443069378108 9.91733604878153 -1.3365072457552079 0.5609519748754469 -0.06368005465746453
Ni 1.0462886845287407 7.84023141945099 7.694030956409573 -0.44659599112966963 0.6344767835374749 -0.9667882675892512
Ni 4.155466721038509 4.424956161762276 2.8265336047606437 0.7472309700137711 0.627510636632287 -0.05635343908906423
Ni 6.0252444506641405 5.766711301956683 7.272693632854657 0.8772791676838247 -1.1846494084092307 -1.1351482163553095
Ni 2.2312423585915853 3.2455643405226526 10.312618231033822 0.8265106788817056 -1.2870037397084415 0.9603486826114945
Ni 2.3686796481714 2.356002716067638 5.284996252695245 0.205207199501395 -1.1295293275066354 -0.261992069700923
Ni 7.647287210725724 7.257464572967129 11.122717906023174 -0.7803555204818818 1.468400209943484 0.3813429355581303
Ni 1.9393380929448052 0.19709792690394476 2.655845178009767 0.5026982334398762 -0.13671583949821614 0.350820341489241
Ni 7.966052063251201 2.7701654354957443 4.392377469338904 -0.7529128508898969 -0.07308592135239671 0.29436868625941565
Ni 4.526129798904404 7.1849000650628385 8.137815657537804 -0.9620849485763108 0.3641011177585471 0.3833113721384108
Ni 1.213330284369944 7.746851816867154 1.10033352463772 -1.937953324089959 0.8072677714916935 -0.2961378623446964
Ni 5.328106192529541 2.886824833424932 4.707073240576491 -0.3941341737855276 1.4815873980577192 -0.6227967760963854
Ni 3.953621687644645 2.487506122535053 6.963905702609227 -0.07191709785527614 0.07979855748588192 1.0842300893492036
Ni 5.728141061726088 1.3812089523617996 10.607058813177078 1.4127101154700314 -0.24302555590074915 0.0678850938777476
Ni 9.129139657067572 5.519785498271599 3.694499801004562 -1.0337493069908326 -0.31575846478910136 -0.23624581397475444
Ni 4.808082254315655 5.70740037310438 5.200257983653306 0.2507681759606455 -0.2736036857979224 -1.4612970232397995
P 7.416786544307876 4.3077945229426975 5.919206517491002 -0.3360172150381375 0.5690018417631169 -0.07179085669005701
Ni 0.6837516782542296 5.914472432061204 6.09568094531433 1.8205333567068778 -1.545563386689048 -0.6395025188868405
P 0.015842909864671826 7.210077214883001 12.90976633016843 0.30241623915424043 1.9560184091217863 0.12108584627044307
Ni 3.020337203453912 1.7760260967526176 12.063457877209046 -1.1940807290254596 0.7336989969656074 0.763846209972949
P 4.594769387257861 2.1726289865314925 9.102554372602867 -1.1638090746251117 -0.8723979283321233 -1.284379671822033
P 0.6093605016300713 0.8468981209677328 4.658340062921258 0.07097401721571647 -0.057260267174049764 0.0017221248974292921
P 8.456341480602484 2.8648657456061635 13.17586564488206 1.3355255985682288 -2.7044817088807616 -4.1086984421678014
Ni 4.0177876117707285 5.917104546357143 11.216984800846701 1.377636154585034 -0.3143998938786779 1.0235186304017598
