# total energy = -381170.4490401685 ev
CRYSTAL
PRIMVEC
9.23853704550493 0.00000000000000 0.00000000000000
0.00000000000000 9.23853704550493 0.00000000000000
0.00000000000000 0.00000000000000 13.52153281172894
PRIMCOORD
 96 1
Ni 0.435168356260597 2.77281757179134 4.212241702849617 -0.48213197925275025 -0.1100802391885588 -0.7613344992946888
Ni 2.35522645622193 3.100757923318238 5.430112780238369 0.4275119779150251 0.6687966398652675 0.37822238765127764
Ni 6.323769408113655 4.386928581651949 7.501597894139109 -0.32181726938867156 0.37973342497916535 0.6313379807981772
Ni 8.995591292300633 8.205779516872116 1.796160078879911 -1.2973622001246303 0.4042370665474845 -1.7831533733965226
Ni 8.5392445135863 0.7866974645712695 3.2092137296328564 0.18932960903919005 -0.7592159102897893 0.5879945808155357
Ni 1.6672787908854088 5.2121886239426996 12.261934287667835 0.04409776165016276 0.1241392883847862 -0.4732675868835849
Ni 4.983054426726875 2.3800965981018187 8.448849123453329 0.39867705596120373 -0.1339724724251241 -1.7544125538184046
Ni 8.473262881600354 5.726802856162404 11.361414350579112 -0.14042259892584202 -0.7011935681387343 0.6535204304324874
Ni 4.161572946111041 8.792417384342789 5.603810211717025 1.1401328140540945 1.3863390816756704 -0.27330158117647124
Ni 3.555016792647409 6.658694093690032 10.966517701401957 -0.1486555283585956 0.017997465018685134 -0.33567577253831865
Ni 1.5439258434930334 0.14666362420936466 2.6576980086646986 0.7150608130391297 1.084048826576333 3.994584142119185
Ni 4.175606283969715 4.022967173962463 6.758143250183439 0.14927722110299452 0.16310384257344168 -1.263110992251244
Ni 5.9777677165514005 6.330661356792109 2.1197435363092776 1.0787731799996905 0.9058454093572914 -1.7287552582616161
Ni 2.254951374511561 4.451838543334007 8.039241027794175 0.9438812810840906 -1.7410160779068404 -0.8836878994236459
Ni 3.203675226639917 2.4518246001655095 12.574687408051958 1.1271091481009168 -0.32430455458689955 0.7865840178900969
Ni 6.106765410113393 2.0806017023134706 2.0968652230286846 -0.9189122698435787 -1.4091031148450635 0.440030679207326
Ni 3.7412841777077057 5.483302733752215 2.4700734825040476 -0.4331090123868283 0.3096829480189828 0.1460268324864969
Ni 6.128439018155822 5.400414578868722 4.971826832586225 1.8581575948175546 0.8501542864425746 1.4017104219254182
Ni 7.390404709281024 2.5089095209217622 4.005199619406965 -1.2946591993711702 1.3053578167355968 -0.4088020602103476
Ni 4.254318620082884 0.8640655935360274 0.9705147895919866 -0.3645706011957979 0.6589027777903232 -2.455431029831855
Ni 6.725507194015202 0.4150311169383112 13.05382288623699 -0.49757479617038186 -0.4467417726789145 -0.15623102671300834
Ni 3.2530182533042877 0.28121737398479246 9.222442646998434 0.00828460860629541 0.22246650080247493 0.30326753141094226
Ni 1.2875749159732888 1.967401907196726 0.0835422433103484 -1.0108374353896656 0.29116123506571145 0.7522047690792787
Ni 4.217392187284253 3.491880630089029 1.2632516954898672 0.043287349933725454 -0.7434573619039518 -1.1482945239292806
P 6.492474334142129 1.207292028552697 10.683146824418575 0.28367881064573724 0.3614981329180613 1.1334808559552159
Ni 0.3771161606697141 2.856712727219003 7.257222882265315 0.29345645885779137 1.2069038489320567 -0.9279905779957631
P 5.360910594218499 0.48444117004298876 7.232749073627122 0.26962670342804534 0.5738748535847019 0.30687016116053606
Ni 6.575122287060956 0.11412180111957267 4.51796337264504 -0.1325647934443201 0.3851193718814271 0.07770233707848553
P 0.7699775601231929 6.668560851315486 2.7286592121488833 1.143872740712501 -1.095023837530598 -0.15342955270847125
P 0.12297601507859397 3.1977348472830194 1.986759413987562 -0.42770506776243755 -0.3008514657702818 0.09147290850001664
P 0.7646312187019849 4.541544738599133 5.8991606997611985 0.4957714244130559 0.24937540937817698 -0.18580231261222196
Ni 5.655610689250658 5.018003812585574 13.611992201626357 -0.6870203619621459 0.21040468454193442 -0.8758154386541045
Ni 0.41072503479484307 6.3439278960712775 4.824104472024916 0.6395588260460727 0.753727119261076 0.32014759499573253
Ni 7.2584506838462355 3.546277136548459 0.9109114436215964 0.678508982057025 1.5068996515702628 0.08584424945932959
Ni 1.5035534363551755 4.5838757156027174 1.070689171247938 1.0420943365214181 -0.2848106102573353 -0.16302799503018373
Ni 4.346214348641299 6.534269475993769 6.436465702958315 -0.2650036028337372 -0.42117189462961013 -0.2658242989628196
Ni 3.4838431028098675 8.277248839896936 12.76815346122251 -0.6831626787789524 -0.0033396058961942484 -0.6658285583758791
Ni 2.0246808372321308 -0.10805577765808123 0.7116555992489172 0.2312954119480146 1.0971642809123685 -2.3229667665211413
Ni 2.4581160439323013 2.7334614037347547 2.4924381331217424 -0.6345888836353071 -2.1737749060431013 -0.1201281103428641
Ni 1.9689816970412508 1.9840220354440958 8.64420815287618 -0.32463339868122804 1.262707071944606 1.614415472465755
Ni 8.668916620356775 4.773515166705421 8.515821126616661 -0.938075730145907 0.297442697199049 -0.12781056658878634
Ni 0.08368451678172667 0.47174372464933384 10.168963108027848 0.5977460037753448 -1.4842893703699145 1.5744669570972756
Ni 7.281537788065345 1.9937224994017047 7.747216413106897 -0.5090763690520781 1.093758083444297 0.4378208160402008
Ni 2.420358142794447 8.141239096674157 6.872305700866263 -0.26171001968412994 -0.49593494657411363 1.3311061293442945
Ni 1.8336278899527478 4.632304127093943 3.486689496091143 -0.9223971430683856 1.8913435946512198 1.4629271026440547
Ni 7.927681073013122 4.854712669299158 3.5239143336381846 1.2349347869273442 -2.191594450723026 -0.5728230152814199
Ni 1.2983470502347858 2.9339653744699796 11.374665184345206 0.7789979780127229 0.2065876247886894 -1.986209587993186
Ni 4.3627513300547465 2.8449705465617448 4.045236667648003 0.14598312373275502 -0.25668865521013856 0.34706293132933774
Ni 5.612309665851311 2.4164040489145835 12.77699658893701 0.2450130186444232 0.9718883078199777 -0.012176230351217739
Ni 2.0575330751685663 0.6400578605583713 11.247359990780389 1.260913470379293 0.16600816070443025 1.1948057801169423
Ni 4.681564006924391 5.502869955335278 8.805763375041039 -0.8461996726702007 -0.9609505778615515 0.46434020248696806
Ni 9.07589265679543 3.8578745159410617 12.823916347319397 -0.3027702800595496 1.57347245439449 1.7683934414785287
Ni 7.8939604125890535 3.98893240327691 6.052237716427109 1.1828951447222855 -1.477443808202991 -1.9758634688721717
Ni 1.2622243701640707 7.583508611797159 11.50474193904077 0.8046367616267497 -1.5672205599475073 -1.4357315160658695
Ni 8.71266109353704 7.258986518998179 9.637242800509183 0.2751409483780552 -0.9352138352170797 -1.4565191422351818
Ni 1.409726853542341 0.8464458555741686 5.852254799184463 1.2939914838801843 -0.5672748317696812 -0.30409439818761175
P 2.982901905501841 3.9612352690436605 9.896260893690414 -0.21105054565604942 -0.5591586304204499 1.0068028603089758
Ni 1.5355187747297723 6.999041800545569 0.45886797548960095 0.33408837344654074 -1.1131945949023538 0.16498589008750297
P 8.277137977451707 8.223960957889805 5.339991774657342 0.8733250681320831 0.2553205712180183 -0.3031654586154392
Ni 8.2696732394729 1.4769464495000197 1.0014860613743561 0.9782649007702828 -0.7062452716300288 0.0005062502124571927
P 6.772679164460489 6.331095568035926 8.633931204203376 0.29291447031139234 -0.025098851950156778 0.0053733484967713905
P 7.310020197952304 7.734115243641863 0.3699664568061012 1.1563688162969827 -0.6517432839274067 0.4011864526466188
P 7.0587319887647215 4.048502490513731 12.034800233734698 -0.6099569440192398 0.586465802875835 0.027024093997327654
Ni 4.970600878712726 8.865189341099061 11.020400545198488 0.3717653191720242 0.08291704851020558 -0.5649410414301819
Ni 3.4279407148027325 1.6458915774931568 6.899754318451455 0.6527010198549856 -0.879083567882415 -0.6470060263527373
Ni 7.345357602369308 9.292674929905232 9.05789875808092 -1.3352890570773905 -1.187188887001633 -0.27814579664265004
Ni 6.710106552665359 7.97995271593898 6.759549355530437 -2.631702005914874 1.2320898612793814 1.4754195786841107
Ni 4.275788980309058 4.3564876018992615 11.543900402403363 0.24287103260075593 0.6230240616158432 0.46063524283155505
Ni 0.07908280145097904 9.005799875798878 12.592428170849859 -0.4535557102769544 1.3658916124545961 2.49533069424027
Ni 6.13400985602862 8.743499330385134 2.064656911128292 2.3581340584508936 -0.38070684463602816 -1.4207736092044563
Ni 6.149151818339593 2.3015875098049037 5.827023430503867 -2.0493319703749675 -0.28423982535552983 0.4495707574872774
Ni 4.442877162344596 0.3952227695368738 3.056339960783202 -1.0008831523904314 0.33374333140229623 1.9799569222152547
Ni 7.712469351210742 7.005656593110947 3.615009081029814 -0.506553088409592 2.460589434104343 -0.2299149866607202
Ni 4.3393501155741525 7.749885426475805 8.67023680730872 1.6045174966257527 -0.5189920855038933 -0.8055065658262126
Ni 1.1252076263971207 6.156126913851969 7.448593635221024 -0.2207099231226844 0.543716841944083 -0.4047510300694255
Ni 7.630200178313116 7.983832901522024 11.459796456037184 -1.2908670793185897 0.217745955398354 0.5132420703939935
Ni 3.8202921470081543 7.625202129740671 1.5565041117580665 0.38397985896034514 0.5190422220155383 -0.20666681476605697
Ni 5.96709720619803 6.076620063547986 10.901506115811772 0.7387519860084826 -0.15609424402482797 -0.8980094582526406
Ni 8.673849999169502 5.739810716402702 0.9646113643834988 -1.0647742946174372 0.8293376068075395 0.35716710964287524
Ni 5.567696770183413 7.30676823289223 12.828081079845198 -0.4460406328468318 0.027317199757714246 0.5270722914088665
Ni 5.694966857307241 4.328079100309122 2.982742078809968 1.012739794618701 -1.4902054787440335 -0.7254020470641378
Ni 5.161034844006242 7.5283730223695295 3.8978930871078945 -0.6539955702966931 -1.3866941510222441 0.5028756395580048
Ni 1.17536364432651 5.277809952981648 10.042199292737235 0.33940515767376384 0.38590021591150964 -0.5158915922016987
Ni 6.304128278233773 3.800577108831452 9.868636743900275 0.9175822381782456 -0.07953347674995334 0.9772058633781494
Ni 7.985505076737574 6.222746004897986 6.489835807945659 0.1297476357104991 -1.0480893777625884 0.6319043948246085
Ni 8.486658760398957 1.2254549924961817 5.798790461118674 -1.5589043267723282 -0.839414017206935 -0.24012740841734778
Ni 8.634087335480407 2.6237260600314416 9.62422108246323 -0.15319763920332324 1.0756395194667152 0.7258378490499757
Ni 0.030975891050920856 8.074370565126374 7.408961234905074 -0.802829790324998 2.9038792436789147 -0.5612088280812593
P 4.163041873510336 5.105760676522077 4.6742590956374555 -2.4263189429572467 -0.44752261670899696 -0.257013385539409
Ni 2.5141200558475636 7.582187500991503 4.259579966962749 0.16742175322250522 -0.47093765319882763 -0.5719820074373633
P -0.0351720346028694 1.0530361745525103 8.196955790085532 0.13393390587770482 -1.2859832688637272 -1.6041966229512246
Ni 8.489929202533236 1.9298472538751257 12.014125311553048 -1.7999401059365583 -1.2436315433703937 -0.8020605162591412
P 3.0234406063075436 1.135259154764624 4.335598345656834 -1.9257045886295932 0.13048965608284624 0.913106461795079
P 3.3691743802938277 5.62966887706688 -0.12393497522983188 1.5104536874701082 0.5517194005335854 0.8506001157307415
P 1.55655492371213 8.081724440659952 9.266184348617568 0.5162754579036787 -0.5571917365020662 -0.08152608169994992
Ni 4.46308184298773 2.1649865002075654 10.535559346498962 -0.750372086745914 -0.8093544788173933 1.3436441139103052
