# total energy = -381170.0004117971 ev
CRYSTAL
PRIMVEC
9.22109129961753 0.00000000000000 0.00000000000000
0.00000000000000 9.22109129961753 0.00000000000000
0.00000000000000 0.00000000000000 13.49599919917896
PRIMCOORD
 96 1
Ni 2.909927409558981 4.25199268437477 7.128465052993553 0.8647129009830398 0.14375654839508145 -0.8845564180715282
Ni 7.550681298431622 1.389102060967203 2.9934391440147547 0.7241697173189335 -0.008197448209127817 -0.2862090332667587
Ni 9.097030627432558 5.805469916864245 3.308841035455148 -0.2948271139530729 -1.515823436422454 0.09501023222931379
Ni 2.739457096761255 0.18002059694142755 3.0153844189337415 -0.6679209221285336 -0.2750974967346294 0.3502881231348548
Ni 2.216482910017973 2.1638120371505196 1.3358945205925916 -1.631244885318268 -0.39127150752575196 0.1352644517636703
Ni 2.776193924055361 2.0347905292441104 8.264463836697498 -0.16110223876238058 -0.12967281660850571 0.5142291168976111
Ni 8.900916460040225 2.2969369306357135 6.205123074273712 -1.225438931621767 -1.2355770484970334 -0.30023157279809587
Ni 9.189813246969027 3.0565980859997577 1.7359764587423134 0.08598540302288418 -0.746564797184682 0.15033137339912175
Ni 8.093204198494057 7.33242729109623 0.8750160840203042 -0.4975688826331108 -1.9769621012529888 0.31384376426489174
Ni 2.984406163086716 5.190423134605991 4.725812922429807 -0.8385485838828461 -1.5039603664362808 0.7081995671429222
Ni 1.669819740012001 4.896132009332046 10.432758246274641 -1.2874156304348796 0.6399799727438914 -0.024375086410254796
Ni 7.8060225345262735 7.08971894992952 5.160033184376778 0.4737910634872228 0.3275264039583069 -0.9698460805789684
Ni 1.1825219550761734 3.7963140211235524 13.206752940081598 -1.06975837809559 0.1480646888521321 0.836070811766315
Ni 6.083439710734936 9.068860193852363 4.933462674898678 1.0535658274961275 0.977835269432032 1.5015728400407107
Ni 7.435519090581196 3.9609934886550393 7.968914954585472 -0.09217687654557673 -0.7878487435351335 0.5512239489544055
Ni 0.6391986642985963 3.652529546224708 4.267907365656621 1.2741667358447735 -0.7414706704912262 0.8972011034187323
Ni 5.444667060849239 7.531040374200585 7.202288186937801 -0.564137314581964 0.35970915933843856 -0.486898033182826
Ni 4.1244834354232385 3.3933154518309783 0.6750696311301231 -0.35238382932161894 0.5582152926705741 -1.3064816459273951
Ni 0.9592885584991109 0.31202143941076993 10.628476828854996 0.32024941068091944 0.9526351160173205 0.5941901681032863
Ni 3.8117685699551096 8.8416156226084 5.460224885902105 -0.3785404331123287 -1.0148964359503876 -2.248878114935843
Ni 4.100693020157476 1.940910599856235 2.47631297330308 1.879324458703157 0.27151132204526784 -0.12269638529067256
Ni 8.456570517859404 3.8704239310037565 11.440747075775533 0.3571871642475332 0.41910678457046535 0.05129042274386006
Ni 1.2592414337626603 7.737297741900026 1.490632729713994 1.2917245422228785 -1.601343212662829 -2.4506971146912955
Ni 4.132201488747828 8.696429541848936 11.709074374590639 -0.6223303779829281 1.3660060265452731 -0.5434399341336125
P 5.361769451066604 3.8811388389645374 2.6959612096261396 -0.7880675444141588 1.8052707741208522 0.5134259042700253
Ni 7.398468746186689 6.068178804818333 12.125129086896699 -0.30997399689684035 -0.070599150374801 0.5751976861611835
P 8.963970281585683 5.016854535169003 9.175714198542149 0.39268741403667207 -1.143045102604883 -0.6572169054474681
Ni 3.171068712011061 6.6700578688597245 6.29530350187685 -0.2862758819489521 1.0895499589002202 1.0223917158861684
P 0.36624053348873553 5.575689545543504 1.2110741418315625 1.361038655237669 -0.17401560438993902 -0.6016206562394026
P 7.247058428875136 2.7962313552074924 12.934268773358815 0.47531855587534266 2.1417479595145434 -0.9029737442364514
P 1.8801343878342838 8.656050383535458 12.769144849232053 -0.02240973515376786 -0.6936571505523731 -0.29400461805177747
Ni 2.58848939182674 2.8154573303350556 10.893309334109745 1.0985742738860178 -1.5697340703979805 -0.08734037438888184
Ni 3.3158121803934875 9.040413127536521 9.38824836301345 -0.8313839478136068 -0.41534500353518794 2.2201858892074733
Ni 6.382756330706495 3.276465784293098 10.36005547490977 0.07656899480499071 0.18623502927426636 0.8993795991272897
Ni 2.657601470282896 5.529224467045764 0.7549086049656049 0.43264004317020976 -0.007284706586871324 -0.4304720889846135
Ni 7.3983488720012405 8.264596620410611 2.8779947707739684 -0.03787774888237993 1.0745447437406397 0.3147055980445548
Ni 4.6646733994150384 5.309144683655092 7.79047116423724 2.3283897373089255 1.2945491561558673 -0.14020405515713275
Ni 1.0194746206850123 6.001925264630544 7.500981461145032 -0.5383563489631179 -1.1630408290005196 0.3787399507176445
Ni 8.3957574214727 0.24794960939812744 4.9472011786600945 -0.6170333912500471 0.3552133283506141 -0.4801488873844505
Ni 5.719547789171856 2.4766006713481543 4.190763716775473 0.2899451032704233 -1.4361580620803267 0.09230234637984748
Ni 0.4675821698661668 7.999158289464791 6.28994512578734 0.5747431151222682 -0.11269196577979301 0.5352599694259814
Ni 5.064877978077563 6.953717075993583 4.661720806016551 -0.7814672654888218 0.03929365539330007 -0.19137697848652202
Ni 5.362839097644445 1.7199916971674307 12.072792017530261 -1.4793525951899296 0.3122957030514815 -0.26880317908548546
Ni 2.6447933746223757 8.851666612003624 7.311214170817592 -0.7834578135562894 0.03811120504942469 -0.37473725731615465
Ni 4.973985682234691 0.7076864748813059 8.205175908793336 2.0996497447929126 -0.9893741233095671 -0.7930845380127761
Ni 0.6647549185269133 2.6583760419427116 9.767189105395804 -1.1805225307250506 -0.27147429815974533 0.4427110542529666
Ni 6.967345848769861 0.13270348961788925 0.4547344235135367 0.9060788655243363 1.396329360119163 1.5060835834268707
Ni 7.580539191699271 1.2240721919705617 11.7478758042018 0.30543291449337723 -1.75409605101925 -2.751877938776538
Ni 0.9280290593708427 3.5130513209107894 7.680815792044456 -2.2091851672215954 0.7984720275769346 1.2995684637473297
Ni 7.760221374594089 3.811362841942825 3.504735740877199 -2.108172951772576 -0.22497589748788996 0.141450268859408
Ni 0.30842336962910316 1.8224472413604063 12.588595883765537 1.2144754906317277 -0.4437268971119906 0.5179718717694951
Ni 2.82213340035537 1.3535270911628199 12.756269439605859 0.3674782617608962 -0.04619063962344948 -0.30677657300546524
Ni 3.9191850612073793 4.670473465772466 9.90165013499418 1.0807804402377064 0.3112922014876316 0.7768876165379394
Ni 9.22828363940653 0.3057003814012042 1.1281322708112247 -0.17640338789582521 2.047181242580552 0.9572209356157901
Ni 1.4269638613862792 0.6185821486198406 5.180897747408499 1.1933482217348095 0.8413140624431253 -0.41722987926272664
Ni 5.220963388621573 3.0913062732324423 8.442691853511926 -0.9878327469643762 -0.2311817691882857 -0.9122916792032676
P 0.915377722260523 1.2421731939731546 2.93964422013145 -1.557932192667046 0.7139338985235383 0.27570222019816387
Ni 8.918676281668851 8.491315589456843 12.557595497299658 0.39954197506466027 -0.34697140005679594 -1.589443890122082
P 4.324747093850296 1.6933796279980555 9.971114459133727 0.2135648274374709 0.7415925407810712 1.388281550114022
Ni 4.003797793951033 5.696808578301558 2.7847105238768557 1.6583363422184214 -1.0845723031799708 1.1249728184842045
P 2.9245520601835926 4.3207635824569595 12.327663900083431 2.7549102978449587 1.7463292625896378 -0.18686623510036204
P 1.9680390501321539 2.5780972220575484 6.076478708996904 0.36095460170976545 -0.7298515981950592 -0.7474909085433772
P 5.472256565684572 7.7268779088572686 0.833856821392299 2.2285237196492074 0.045065781990386904 -0.6510889381728594
Ni 0.4740055819879224 7.887583086086607 3.480483348942905 -1.2053359902243048 3.0440007664245705 2.2299601949854178
Ni 6.661233284592541 6.152016965902172 3.1112597924547605 -0.5347845724514596 -1.3326855580162726 -0.12441388220241154
Ni 2.544873630506177 7.165931268600652 3.695325552538633 0.31760477396922077 0.4913817799857924 1.2811364822943871
Ni 6.519818630129084 8.322597283984889 12.038714552934854 -0.7793725877433223 -0.8112966901454285 -0.993080882737193
Ni 5.3993361765676555 3.7245739316787367 6.00011885286676 0.6914390598551317 1.291887293052988 1.0596739972763944
Ni 1.0554184341369264 6.17523567351426 12.682230532127804 -0.7764379305950306 1.0209812086918868 -0.7016494247292302
Ni 8.208947335089343 4.5706643747505264 6.008512812175451 0.7880528891261396 1.3285010876212797 -2.055506731727111
Ni 0.9732492905581663 7.858868608126304 8.91989715414218 -1.0917413101245843 0.9784199382909086 -2.1585745441535793
Ni 3.5825875695616065 7.58375735252398 1.6249997041822488 -0.12412309043487012 0.6734655060958467 -0.5638159266868031
Ni 3.1838768076715818 2.924505954727651 4.295655473260393 -0.06121076718136555 -0.5667652391231142 1.05487400478459
Ni 5.069931136048741 9.106214834256084 2.9725745809830344 0.3958313589822925 -0.6894415698091287 -0.7056976266566749
Ni 0.5415583739241405 0.7974067700341482 8.090702516454677 0.6078748646792306 0.5522148521127651 -0.026786781175540963
Ni 4.274925538160021 1.596456738518048 6.281078124500691 -0.14000428044150082 1.662026389475499 -0.7894729094021179
Ni 7.670583147152822 6.607114700408527 7.56997366541574 1.1590281082967007 0.2640378964863581 -1.0334993957635557
Ni 7.6273823349357315 1.838731688398908 9.004449949793111 0.2462607750085952 -1.382607639657696 0.24487546462529441
Ni 2.119384819805388 7.313902118898976 10.67136781240816 1.0515878778341503 0.17848212480172487 3.4610725228428776
Ni 9.048278718320123 6.624376583112987 10.534301824549095 -0.7182811197486404 -0.010046585602724633 0.833479654000371
Ni 2.9370558598348997 6.73735339235179 8.700520017900056 1.8903125822835445 -1.1317129654215154 -0.7114113892120005
Ni 7.61897269977202 4.823220841306318 1.2454070306528844 -0.09162408936590027 0.2973457666098685 -0.6693229446823827
Ni 6.4206734576727005 2.7723395079386597 1.2747632965598914 -0.2962957280787994 -1.6346647096330944 0.7027858523265187
Ni 4.182862163736236 6.615173934107084 12.606842579008905 -0.10640176189570706 -1.233317563038895 0.3207410056053573
Ni 4.7700889138794516 0.4804907754206395 0.5601554706326629 -2.037352686525904 0.9765918839432342 0.10932047820439883
Ni 6.867306230468215 5.719759874269187 9.383875721571968 -1.9380777654829657 -0.4360822360825393 2.7269307819128974
Ni 7.705724725671356 9.098865624579025 7.328624513090183 -0.7396225615388939 -0.2194706513989446 0.03138288518665563
Ni 5.579848257669419 4.467876871274773 12.328784262662806 -0.234961290835376 -0.48393895055450203 0.11326275068159848
P 5.240779513585188 6.928875456332358 10.719426295463236 -0.18280774876027225 -1.2528965136120873 0.1811046500262365
Ni 5.349053566317966 5.5933110508043065 1.0567425828315633 0.8997007299121345 -0.09731136955866466 -1.4672079894075956
P 0.8114956752607208 5.987678678744651 5.374795164479168 0.27451359920670143 -0.005115723960010545 -1.1942005424327755
Ni 6.371100871444509 8.170882670664124 9.434175851894913 -0.4023920429189457 0.40517166254661185 -0.7663939160954673
P 6.65560841896769 1.7836633318225017 7.01118476049718 -0.5372520601553458 0.6540086829228156 -0.5528463150491769
P 8.352833241991258 8.604329283060398 9.871810683908906 0.38373534704970685 1.4294451688365253 0.09568926057420939
P 6.33442859178872 5.817355903405938 5.897536057615387 -0.9071343033720441 -1.2917458823791172 1.4068014632950803
Ni 2.2030293379742734 4.377003017614277 2.6444604932304787 -1.5594866816383595 -0.9748581890815791 -0.6110059541090445
