# total energy = -340890.6424745278 ev
CRYSTAL
PRIMVEC
9.10444600070907 0.00000000000000 0.00000000000000

0.00000000000000 9.10444600070907 0.00000000000000

0.00000000000000 0.00000000000000 13.32527701354291

PRIMCOORD
 96 1
Ni 6.61779397879749 2.0225344066062316 11.222854486800511 -0.22525486218088947 0.1292149031354807 0.6271987618188231
Ni 4.714154528778176 0.24396272736833366 5.893489799972747 0.693175068709632 -0.033130978226013914 -0.2539730560511884
Ni 3.017613905428795 1.764933219557432 4.728687955472386 -0.04721342446100901 -0.15040799227332804 0.053184811553095505
Ni 3.6569462923992053 4.2705950380087385 4.970115094709206 -0.25218048292713985 0.04975187461214658 -0.5207499487352645
Ni 3.8852948953670055 2.8232339894221545 2.5110552920926335 -0.32586238599232265 0.22999597641030067 0.49158823956964365
Ni 5.021520616102961 4.841034084256797 1.9868650091855848 0.2262164547632104 -0.40833334810404515 0.2625895940756058
Ni 5.404653900664621 5.015739293074192 11.448052041106488 -0.47428625795608637 -1.0541019025052556 0.07603934755376582
Ni 5.81789558720445 8.01965100770252 12.18675125905058 -0.5969813576951783 0.7894428274951307 -0.01586190673292107
Ni 1.956272250695397 6.461088259157851 0.06486371304907286 -0.27646686627833034 0.6555865689328967 0.23093031529911195
Ni 2.992776977519375 1.9772762069589715 0.18920039683960585 0.22567292355491456 -2.3677476702812577 0.09749160389027081
Ni 7.652386772021402 8.727102857509543 7.144226686684044 0.5089575840860266 -0.683597452323526 1.307936890316683
Ni 8.709922768446098 2.611437268763491 1.5088743256126853 0.4430208721839015 -1.2348923637251827 -0.4778217819131706
Ni 7.36190032705148 0.5696041685760289 5.097611021162703 -0.5653398195304973 0.41471893991541475 -2.431165729526587
Ni 0.6027907836503054 7.4776269365297185 2.1877709918804475 0.5342392414709509 0.18435375309115345 -0.181725571439687
Ni 7.908849903355877 3.843705787342728 3.4970185094211708 -0.18699556158937475 0.00899526152007483 0.6431277743442537
Ni 7.620748823163178 4.10858142651749 12.522508649891764 0.8304879183618986 -0.9492872825910104 -0.7124868816643665
Ni 8.784242358814351 7.15597597387873 9.361366799550636 -1.6283161417072474 0.8463472539916587 -0.3501150878921003
Ni 6.975352875346847 0.9150787343284015 0.29787197133360377 -1.9333927013024703 -0.7049401796653602 0.49153758883736637
Ni 2.106131427157659 6.682908974548285 9.068436721350917 -0.008261982898476093 0.06797379693681196 0.20967294858223243
Ni 9.092801128527748 5.030388346228979 1.2208187676485598 1.1565871029553758 0.19282091002190016 -0.466413540076229
Ni 6.470720762723895 1.9194083499969947 6.850032000974566 -0.10396667009165321 0.6235709352582487 0.42553171426020264
Ni 3.2573794833226994 4.2323017393331455 13.089526245440274 1.9023952244796913 2.2928375512359285 0.3777354207125301
Ni 6.08835225160226 5.463796380026641 4.230388895288508 -0.7360489852550227 0.3122422241057268 1.4356623533908308
Ni 5.268342139425678 2.878461557126898 8.979024691321577 1.828090086008213 -0.24960320911826692 0.3675908760793605
P 0.4243955429847829 5.546637731583756 12.056417476867841 -0.6254223866446906 1.0026474433797057 1.2535619151102282
P 4.0577786194300405 6.308133571152625 12.701120576365293 0.35709280476151406 0.47469557757936304 -0.3335299298399094
P 2.5039228693198186 8.704441892125912 1.321142475866844 -0.652206082496438 -0.08042950620166149 0.3282378282030347
P 6.431935823979712 7.651103045175644 5.631767940793522 0.02792166611093256 -0.33266449651582064 0.3013322620614423
P 4.802758994472632 1.109358501432181 12.33907318807864 0.34380688628588535 -0.1560227673569442 1.2318222094402915
P 4.032677662594898 6.0989680353054805 8.189981530354052 0.372760593205758 -0.5497216533772662 -0.014867404030135685
P 4.950187283929097 1.207040099504089 3.7204042790299443 -0.26361932089170087 -1.1857624389677515 0.4188237061124077
P 0.15844740010484107 5.754209989430847 3.512210187540547 0.3315949176007257 0.34568893379994653 -0.7003862417460905
Ni 1.1137923664951894 9.115188960539943 4.432440217254267 -1.869585377038522 0.8566069840464537 -1.024365294672771
Ni 2.06061830303039 6.43310119303118 4.595754854038132 -0.23829472608398314 0.6858577091126123 0.9966984248851222
Ni 6.207711534920624 5.574715842167573 9.14351198071348 -0.3535585663560104 0.677848979875523 -1.0725814493666819
Ni 8.928438570042134 2.547942864349894 10.010734106587677 -0.5160026638582662 -0.37746776887344025 0.34029090271282686
Ni 2.4219373356598752 5.312407656684327 6.940443699143368 0.040151632518221174 -0.36306984828055533 -0.507072708358488
Ni 0.6216888816200937 0.28319287350795946 9.07472698289513 -0.022530577002348295 -0.42697847400905825 0.17430099684084174
Ni 1.4069919362880623 1.2274977890247878 11.427757321164082 0.1017120697295216 -0.06057030538388924 0.05642851530137378
Ni 4.2387294780076505 7.1127207522886815 1.65216100271358 0.18872308580344271 -0.08329602911617912 -1.3457593604810951
Ni 5.270672877528615 7.795891045374875 7.778443285607422 2.3792297027789284 0.42038770816541793 1.1147012613548675
Ni 5.72682381672134 2.940371787986156 4.6918295174414135 -0.1967331005921128 0.12229940696257002 -0.19173050517119883
Ni 0.8706189945703113 7.826272580724485 6.738139273586743 0.47871189782760776 -0.4342274422619876 0.4008018156136904
Ni 5.241238204533325 4.589077653551047 6.809469874426894 0.866340923504766 -0.7470623056463909 0.7592817305307181
Ni 0.899582967722158 7.802500872963672 11.46321549544415 -0.017750896225517815 -1.532079236159684 0.4442138640507382
Ni 4.770247018825807 0.3496962972302312 10.31680189995356 -0.5518785518192689 -0.3080667525717985 -0.9119900888024487
Ni 8.530947574588556 7.517577244325368 4.717174473421708 -0.9309031236568678 -0.916285373743693 -0.2332445652545854
Ni 7.644647993163995 6.219237763195303 7.04560642025896 -1.131084587808897 0.41007912715055833 0.11003910153797823
Ni 2.2962504625698674 5.747800459647771 2.3177715513500314 0.04733915140559589 -1.6787300753834251 -0.11764365335811351
Ni 2.5069273364056355 5.422626076505234 11.153109880403841 -0.5870625559195696 -0.01599971786236599 0.16783467239020775
Ni 1.3700734089153725 3.82853778078221 3.855641715674564 -0.15722192987136796 -0.3563435853003153 -1.1088944248651031
Ni 1.7985377286900086 1.506266812360025 2.4585672521034123 -0.5994812412988966 -0.04416923831804651 -0.02506748449158909
Ni 1.3201992552908117 3.59745784410003 8.327099035038735 -0.43364997249196285 -0.06109352487721091 -0.6575619474917127
Ni 3.642051419210125 2.7155739188470487 7.142121738834829 0.23683845325343084 0.3921297417609892 -0.8061717102140374
Ni 4.353272509542991 6.5296720487259075 5.960503072655037 -0.006345739712369716 1.6065486681231687 -1.3219560874139105
Ni 0.6477576410346986 0.3567076308750421 0.36114331682719364 0.20503442136895658 -0.2577996288861302 0.18064545100163082
P 0.5124728612723629 5.713212670378018 7.880781807662347 -0.5455685504408411 0.32383018605364233 0.28787150857084615
P 8.621545913894508 1.6099846579407104 7.6812760887183895 -0.22415160181438168 0.30968089113645375 0.6927274396492521
P 1.99706016749679 3.2176841000070575 10.566850949282102 -0.39100874078266856 0.6789571253380372 0.12997980632596323
P 4.025230226000357 6.113626192905981 3.690208474372913 0.3397627981234987 0.053405926424966096 -0.5159957218797306
P 6.907706843687393 3.8414478848055076 10.086808123645133 1.2148274746545078 -0.19121217077388358 0.9523096143571019
P 6.562092979915587 7.646514404535487 9.938630538306358 0.5526339419280546 1.0857830356586204 0.15074814922156618
P 2.6592447132108386 8.792245166597482 5.708961804673873 0.03163228219330036 -1.0773487888483382 1.2054354919166466
P 7.082985632584809 4.08453658538524 1.2683904069518992 -1.372975772994887 0.5895529264415911 1.129096610844591
Ni 5.424355921191007 2.986676998890595 0.09108542715168286 0.22830856140554873 0.37177148981961133 0.15474158665167542
Ni 1.5826075896769183 1.30872765369042 6.986122524182643 -0.17662938786370228 0.02622036714910968 -0.7995804301497649
Ni 7.1574417896387805 0.9395970066378105 9.13872759449046 -0.8927626080314044 -0.8576997028900002 0.0759321325519402
Ni 2.673283768502747 1.7921555122440762 9.141885926708854 0.9680519647930231 -0.9910440548128222 1.0348196572368757
Ni 6.16931808734217 2.1559327452165027 2.217099142860878 1.6841813283059832 0.7896127774140917 0.8669240497017457
Ni 4.443652342151793 6.903063576372948 10.288233059745727 -0.9361872548739426 0.6497990157168422 -0.06151724267819083
Ni 8.179998505627996 7.5922245947393465 13.27260208164767 0.7982426851749478 -0.5963437241111793 0.940739135910683
Ni 7.795872836483446 3.825688089273541 8.01351461129088 0.20356657857417843 -0.2594158243333145 -0.4283087627847075
Ni 3.1083488114204654 8.575987267538666 12.509609471203321 0.993397128426031 0.09196630319666742 -0.2321114800914067
Ni 0.056839965040798766 4.956724275952177 9.991599293029308 -0.3109618147314064 -0.8381580333126468 0.3021370173509248
Ni 8.839888731021967 2.474224167398804 5.6685326030336345 -0.4574110794673026 0.970029400234368 0.15222627642898948
Ni 4.140119226472853 2.9658551315413124 11.393897887551496 -0.7190917885753938 -1.1309112954558267 -1.5267269707088351
Ni 1.1103599904607866 3.4405700355461 12.68644967254079 -1.4908276857090648 -0.2738955060067283 -0.45914143189484796
Ni 3.0950290073400106 8.71103351082328 8.084845212131032 -0.16661879770523563 0.16262150362038444 -0.4964892764156868
Ni 5.67728652758822 8.032160516114375 3.5776238091107815 0.5962938447098505 0.09011793713401899 0.2629680604609471
Ni 3.208006074212441 8.476002244700965 3.429446223772006 0.017701273934505 -0.04723090796250575 0.7467658574518945
Ni 3.6145013664777554 4.230189507927358 9.364417699309598 -0.8802755313079872 1.7466249394531856 -0.4718717349773228
Ni 7.427042636139419 6.214712853675149 11.46068354909092 1.1760575529751618 0.9220644423193153 -1.5461881647572402
Ni 8.11240710064283 0.06830337264004749 2.5027802613826364 -0.45484151896791347 -0.09471841202050785 -0.15399442407300576
Ni 4.663879779542174 0.3528737487846254 1.705222622782821 0.0012660111966171744 0.6997851178269819 -1.5322571564984449
Ni 6.182246400256897 6.042110771817824 0.19589398532897734 -0.27550604502695775 -0.20055555966199654 0.6277438356890156
Ni 8.059218928778156 -0.05998099881233464 11.374362478381686 -0.6324255574354012 0.03771756915543182 -1.2425876754869114
Ni 0.1344781258720223 5.20690533974358 5.697022234563751 0.4409632183239245 -1.2442372952751928 -0.3611317507175781
Ni 7.298141893712159 6.147731446552861 2.4098366168606042 0.49276451926593207 1.0763671416613592 -0.4374500629643434
P 8.829946676301628 1.7094962496012527 3.626687667066743 0.49617868715380353 0.40802790104848435 -0.5061175435340702
P 2.1683512091712127 3.644764544033075 1.4168101705466831 -1.7323964545586292 -0.23531430329942057 1.559256310795108
P 4.817899687696006 1.0465833482300364 8.113334843661148 -0.007948308312799215 -0.9591513198692835 -0.7026614109335125
P 8.440312817499747 1.7351980998535594 12.505492440851182 2.5443482617895534 1.9063968894399166 -1.2024118745989745
P 6.547717060132238 8.110458749259907 1.2390185546320385 -1.0558595086263107 -1.300046946045645 1.1128798918754124
P 1.7858279224724316 3.3234231325363837 5.903550212487377 1.0915471918359072 0.33007385297050895 0.7750508204395168
P 7.1683762289420105 4.1916048669888974 5.7859417140799305 0.13623555742768795 0.024295639322571057 0.39448641491862385
P 2.434310277386012 8.542655891777528 10.252960616158235 0.9032861332705476 0.9638219858720756 -0.47199257682590323
