# total energy = -340863.2771242985 ev
CRYSTAL
PRIMVEC
9.29246438469801 0.00000000000000 0.00000000000000
0.00000000000000 9.29246438469801 0.00000000000000
0.00000000000000 0.00000000000000 13.60046092370283
PRIMCOORD
 96 1
Ni 1.4123988482149412 8.943012073693502 5.757496702818167 0.08197576764285881 0.3519215449732197 -0.26326013778006924
Ni 9.015586221387219 1.9163570750873238 12.507554991052151 0.03773068178155437 -0.16769557570918217 0.6599523021007602
Ni 0.6045500842602501 6.900658472539713 6.905144874397143 -0.05494910254236988 -1.1158669995281945 -0.2648470226512148
Ni 4.462715365435963 2.730144653099768 0.04164139188797449 0.2270860018523573 0.025484774534665786 0.04073964381120725
Ni 0.41018610917624576 4.7025724589404705 13.234554667681723 0.31805317436054903 0.6596332281984446 -1.8468128592286968
Ni -0.012562482748672837 7.105752456374285 1.1690217691603215 1.0466780992373586 -0.15312307721164595 -0.7444040420879373
Ni 2.248488341011626 6.806042599067572 13.436752190333692 -0.8616098365776839 -1.1358205598319857 -0.23278716600219262
Ni 6.049097026361461 4.777562647402479 2.09618484796425 0.6597103612932832 -0.5176872506495407 -0.7835064074060377
Ni 7.108437978612887 4.049702488560815 8.881346350068629 0.30246663277620167 0.9406103236423026 0.4672478630520663
Ni 1.274907543570098 1.9880577311186571 5.013034626912535 1.0138047455481056 -0.44807386122677667 -1.0976921283913803
Ni 7.140255377038404 5.576723886302259 4.786083837342957 -2.8477068102524052 -2.061757340622514 -0.10240883868623007
Ni 5.608048784109624 4.371175297711149 10.668582772526795 -4.615756495238269 1.2440593749364315 -0.9003483907984623
Ni 2.714877133937057 6.802307028341212 5.085131141931289 0.466049728978907 -0.8749795730163705 0.2455282677179449
Ni 9.234999893006172 8.376431928599871 3.5556230806914013 1.13914422488858 -2.277590395268871 -2.510913893390508
Ni 3.014503359063329 3.345361557352031 7.2451422115151365 0.3717378083681985 -0.12017876107514142 -0.198773013840277
Ni 4.051570273923995 8.071109422739125 2.762416453039014 0.40096945153980623 0.31626548633250695 0.3443262491244651
Ni 7.172528106224099 9.381021680055987 6.666198442412992 -0.4355351053298176 0.3446748907131354 -0.3494322028924627
Ni 5.841726388725998 2.6465961048393067 5.9093597330485546 -0.9364147975037163 -0.8319609033629993 1.5106308364779208
Ni 2.3210067339183817 0.7385018891795443 10.320315142009642 1.3210492593289247 -0.8578323718131226 3.4631111505394614
Ni 4.081919462959549 8.923934644088483 5.14910697222923 0.20481176383518918 -1.3030211981826205 -0.005039619306436482
Ni 4.054227918769117 3.5022369429301765 2.6169187609866285 0.10032573090495624 -1.0478854892818987 -1.8210352360439608
Ni 7.280710977856652 3.4016274298597713 11.352495149793214 2.2314581196871828 -4.429329661668171 2.6418100408831537
Ni 4.556383407529774 5.56968949068073 3.724935500747558 -0.7201441410993081 -0.05076720325053837 -0.6636307793936119
Ni 5.049292894119464 8.263918768513378 7.205143727349601 -0.8069741515106746 -1.339080662909339 0.16866693848351597
P 7.658616923875608 3.5147817699963118 13.581964603726128 1.0106312329161304 -0.5279341251885294 -0.30643873005007227
P 7.703973443068058 8.515744556285426 12.235994796435396 3.1837399661301427 -0.1667154711841 1.5141825583849213
P 5.16608988033743 3.647998540974175 8.202111799428202 -0.4497538200323609 0.03473251838517889 -1.0054211494701006
P 2.612381250574485 7.580866873459049 8.023592405551952 0.28703358605058304 0.2716491331747128 0.19242187481126863
P 5.7480211767742135 9.301849882571933 8.885195288861807 0.37524967817619886 0.499930697997068 -0.3236059858579782
P 2.139041694207966 8.5040360510237 3.7763990276050925 0.1743688739642997 1.0478476940654275 -0.2521195477822174
P 0.7022891550486338 5.264943117618577 10.82456608151357 0.37480616288087704 -1.6034348050845353 1.3369109089515299
P 6.254609171098238 6.838937923374327 10.126386054263932 -1.0127595921130428 0.3231984660069143 -0.47383220113780333
Ni 7.560674348114818 5.43650988956084 11.033686490213148 1.5559979517588105 2.7553422431760546 -0.024295896432887192
Ni 3.533050755190402 3.225721076999074 9.552569867069264 -0.011274287362238648 0.6100266209149107 0.8841064750183031
Ni 3.5037330297136196 3.440442054048843 4.91890567857985 0.8736767950445471 -0.5425773290230012 0.9573178662049706
Ni 8.653737654012915 4.6124820156766315 1.7737038064163784 0.22862249310154178 1.8308442517145824 1.7278265757997597
Ni 7.6180739012907575 7.686382807781988 8.190659766186496 -1.1439581013374556 -0.47932022083556813 0.2719556086715381
Ni 7.3649843383476 6.8303981485048615 2.314404437895797 1.8487668976312743 -0.20153283597360133 2.382498603338187
Ni 6.936174271833616 1.7862439872502671 8.333913328063717 -2.1658240266271407 -0.6532810607281717 -1.0942861880336252
Ni 0.7328306980992019 4.0817057362762 5.815462167081757 0.28925579051288247 1.425301836092113 0.5427308238817298
Ni 8.040658016594142 3.1062292760780115 6.799346449153604 0.5240299050381169 0.41150223275033004 0.16576981944137903
Ni 0.8185044329893113 8.733448414437587 12.019230406443521 0.252404683122804 1.0567385687971542 0.26906543160793667
Ni 0.1242839248603259 3.952744914036329 8.86393691784018 0.7880415762722299 0.459959299810453 0.2072802799803398
Ni 1.9485461720925776 6.623705860777418 2.710000448570903 -0.508346432864589 -0.04545504700900559 -1.004394250867483
Ni 3.7471026747966443 0.8398343559875387 8.562673360470164 0.41013312031694527 0.27166044602862244 -1.9287521172066655
Ni 1.907938102256273 8.606885048037023 1.4915762211776913 0.18467077011094002 -0.3737173006920725 -0.7892985886077826
Ni 3.9491766076708505 4.766941360486484 0.327640217834626 0.028518162044350884 3.611529880296903 0.10789685838399482
Ni 9.137122364496836 6.677602154839334 12.38287985343665 -0.1203955050716378 1.445938281395542 -1.1832751537695234
Ni 6.161545139196501 7.7771608934183405 4.1372198484064215 -0.2827061623198228 0.1971809867628088 -0.26540520914753
Ni 6.810818925817197 8.468557421587771 0.6358721943282667 -0.7533103434386317 -0.2366775021955343 -3.1998564120760307
Ni 1.0754262082895598 2.9346625041357477 11.080459180994394 1.1390388096589672 0.8547755872646698 -0.5898997682580487
Ni 4.503063246266452 0.7637383642508112 12.701157913294143 -1.4425945617342897 -0.3797015432999654 -0.2777105088774443
Ni 4.027270479273667 8.106792486393909 9.9568292423916 0.14475465064229265 0.0723734686664044 -0.3429216554674546
Ni 5.691699549479512 8.265963110701934 12.017244606781272 -0.24031767005128288 -0.6601662178837792 -1.2198069301469703
Ni 4.247706321986897 6.464330802250539 11.65175989805069 -0.286237572511849 -0.9014030573152219 0.4652465163513213
Ni 1.997786941443282 1.3821890461467887 13.403036341412168 0.6844243191001954 -0.37182882542010803 -0.8535483997257881
P 0.3391916804464133 2.7764397112060544 3.1949797459618967 -0.9932356631475024 1.689209891868826 0.15177916158924182
P 2.2511459858567484 4.4012550052763935 1.3493002265651792 -0.5818511869219593 1.5767282423276263 0.4978609599522329
P 5.591099328873601 6.901271775196279 1.3774684741841245 -2.3945293092504762 -1.8956157396640125 0.3389639563712872
P 3.1043800756438182 8.450688012366898 12.143348925435864 -0.9936583525072177 -0.5486754715009389 -1.991300372252532
P 5.699756116195319 3.5570996532994084 4.053481733870294 0.22682117822674483 0.48665454971345223 -1.0434199973113774
P 3.5689847153865095 0.820181722830376 1.3441893710937909 0.9246661416082205 0.5512553164129732 0.2319196757955748
P 0.387558958134735 1.668322612828595 6.895012371113503 -0.26295494783482454 -0.24423037484212776 0.46390979981776875
P 8.05058236867313 7.376228220384656 5.144700485566444 2.0286384465813576 1.6708051641093933 1.061154952697295
Ni 7.391718758695209 5.806610165405312 0.07865327796532037 -0.5365226381884889 0.16868056533027076 -0.08075680763409318
Ni 2.4222667195033276 5.802159074912957 9.411954435861729 -1.3276068579417846 0.1561173839532795 -0.32748912296246824
Ni 6.034888848151001 5.76040803194396 7.102568858038835 0.9022126977007108 -0.5050345948825367 0.14865270014511817
Ni 7.838240262533679 2.7696655045903413 4.443664883977974 -0.12348082886518089 1.2567331137493583 -0.6313732049114867
Ni 9.157937484962128 6.483993657118645 9.43121213927792 0.04057509320888496 0.9380685310570555 -1.1573175533634972
Ni 6.138639214220187 0.7523392980567163 4.008681833301002 0.221746849027631 1.1121607543212007 -0.3538853535678099
Ni 5.246135169483867 1.5557444054906475 10.555141295237405 0.6211093610916335 0.17974479356423237 -0.42825065585326244
Ni 8.325379128672946 0.5090570021399295 4.770933403232863 0.058242171471344854 1.7474842021296872 1.4784761061222471
Ni 4.130165938609457 8.0879845382592 0.3881295154546318 0.9288390420389875 -0.21875999848516517 0.4752576207304202
Ni 1.6265622773951047 2.0670901416353096 8.741030136217782 -1.8772184681037476 0.5043038873640993 -1.526732884246106
Ni 2.184212364110546 4.600104452971378 3.4911027119741442 -1.914317172728258 -1.0632408886920464 0.9169548890068917
Ni 0.7859362034327253 9.028316897743222 8.098407895681484 0.3030178772939814 -0.8506312260789932 -2.4616759823003025
Ni 2.612752949154222 4.753216390429683 11.705250111414243 0.42737545233716073 -0.5340566931464996 0.47801898552564126
Ni 7.670762174968527 2.570778887037383 1.9093821512385527 0.04706455758797056 -1.4540606533923603 0.48731917988064466
Ni 3.8528230433384376 1.3714655421213664 3.7400859348576527 -0.5801365182236976 0.17421049400956448 -1.3295662956610006
Ni 8.272254109163987 1.9010709709956257 10.004417811555369 2.82742543429555 1.468204034772278 0.7228718244431164
Ni 9.198359705508564 5.564680852318769 4.090555879459746 1.707504833523272 0.5676296440059385 -0.9288629532983874
Ni 4.595253786505806 5.799891713576559 8.948328292630196 1.0747334627126781 0.2773811505624836 0.1944468756610974
Ni 1.6404452193482943 1.39558877994632 2.317042568565483 0.6407132513654901 -0.17052456051754505 1.3951206845230424
Ni 7.362289523644506 9.246680520874417 10.30377734295068 -0.5544887357486064 -1.4033713545676088 -0.29229766266299984
Ni 6.829004278830847 1.2635707368881093 12.787384549821612 -0.06981522102092493 -0.10564097247028259 0.029351199468607512
Ni 0.798603691030174 3.0559570431685357 0.9417764084663024 -0.7174707080322031 -3.1536248919123175 0.4400674459825324
Ni 5.710684054439597 1.458684613856734 1.5266106708108347 -0.5129718474517424 -1.2527903270515262 0.507390496709223
Ni 9.095882407074978 0.3858983947297584 0.9061853402100024 -0.27338231381573563 0.18710689035625838 -0.1804791006270956
P 2.3858030888310937 5.345527369705632 6.633788184752794 -0.6698227671369368 -0.6820370498149415 0.374182156143633
P 8.25756272279987 5.470241535672003 7.438364142712898 0.1751754290259951 -0.49653838448606746 0.26579138884235515
P 5.750028349104795 4.716762052221943 12.848981509209235 -0.3665295246943816 -0.2654314343997751 -1.224415118342943
P 0.38042792088247407 0.12539994984598726 9.947962372771965 -2.051936240767034 0.7722717150324828 3.2465761847300736
P 3.622853132054944 1.3229588774656431 6.304018134056273 -0.3655419639701318 1.0627189547503053 -0.07640238732013939
P 5.0042058563973235 6.596042193980467 5.4068771495377295 -0.7176113473751254 1.062008558946842 2.6114723091315604
P 7.449248406374057 -0.0528508918064034 2.3113165519446293 1.048918044311471 2.0674147960186073 3.559641676068044
P 3.577180669069718 2.6002452919460604 11.636173647355855 -0.9043459419936295 -0.019413114419289147 0.30958164655442816
