# total energy = -340860.28831093025 ev
CRYSTAL
PRIMVEC
9.33470228067358 0.00000000000000 0.00000000000000
0.00000000000000 9.33470228067358 0.00000000000000
0.00000000000000 0.00000000000000 13.66228035392887
PRIMCOORD
 96 1
Ni 3.5831348355307546 6.1018522303725415 2.2485515056727747 5.085953927836964 0.3451680282994701 0.8202186752254068
Ni 3.156333574233696 6.258731238232179 9.863388163523805 1.217489337757387 -1.2735954367223357 -1.3674437874330643
Ni 0.328112921008253 8.317789219470237 1.2019913505981996 0.31609039420722335 -0.11742305270687518 -0.34204928016483027
Ni 7.792161464289447 7.338952330016373 2.8737245268190037 0.08424065241763556 -0.3365792581891945 -0.900477717287475
Ni 3.7444571617136813 1.427210647904535 10.926067482633368 -1.238300103855151 0.20862959491938265 0.5253023439926373
Ni 4.46233311199558 2.7658909786282533 2.201908798391312 1.1607574322829814 -1.5433108432094453 0.9352426315724862
Ni 1.9810665430215106 0.220752642227147 13.192872065300591 0.7948971657414826 0.28641549285060997 -0.5867262556260734
Ni 5.058167163624801 0.6813978004000772 5.7863168873239506 -1.3620426710221512 1.3772258065204925 0.9115589148023011
Ni 8.994275099488561 6.764448073279409 8.25376622986497 -0.7374913741285041 -0.3035747782387159 2.4654413628800054
Ni 0.7122536590505613 2.3970862230929426 3.4163759786934516 -0.7001779823900265 -0.32685277493005 0.7870756128145349
Ni 4.149937962820842 2.6961514172978145 8.080733519571611 -2.4955255838598953 0.8996007139991604 -0.15217793968955728
Ni 4.379422285635393 8.144499804861981 12.4985139641441 -0.7899819878280525 0.45549457917088004 0.6622529252094788
Ni 0.7070691653599006 6.930876481653173 4.062001332710112 0.513327173908632 -0.17166047389420114 0.3467024626661255
Ni 5.412811175680219 4.571633141927062 1.2554007836203172 -1.4903618018162397 -0.3213513854958466 -1.3119334130705858
Ni 8.762457101084047 0.6320554971961466 12.093303869405373 1.112037341369459 -0.9304855765034749 -0.2501259143909563
Ni 7.335815870023464 8.73560116239476 0.8072482576155741 0.018077426327001125 1.2850957240524512 0.6264677971900695
Ni 4.488386266281921 6.374920278505231 7.2621716026959 -2.370876959938859 -0.17552175662182026 -0.21716848562832924
Ni 7.384869730924475 5.402122941478191 1.3117553152369672 3.4602135172766926 0.41298241684028236 -0.8240339352064389
Ni 5.252020927531804 4.691528059036975 9.295241772564134 -0.8994356491762059 0.6312721605572483 -0.7975788263387038
Ni 3.8525436803383837 6.003221765238368 13.580047515080087 -0.27793213796994715 0.4854296761674156 -0.20753507630362325
Ni 1.8730453673133274 9.03412494386276 4.9348156062310355 -1.4108725480406603 -0.2600974237813714 -1.3146145594471745
Ni 6.736761346080095 4.396607472679877 3.2324954107877115 0.2520449857905401 -0.17760049352771995 0.869929926407605
Ni 1.300678757416769 3.217195833619918 10.966370993542256 0.4584750019554427 -0.11430173346907412 0.1821467181375057
Ni 1.0756284182231473 4.927350644753864 9.178756822226275 1.2733907769106971 -0.5870088198634986 -2.1243711587989935
P 5.504272589402029 8.079119549533592 6.495840145934255 -1.685430627332052 -0.4603074271784911 0.46244889900152614
P 2.8252130121251 1.8550013876517375 3.7223432518231965 0.07616815982214624 0.28616403896143616 0.5062520122294056
P 9.014671424144833 5.336640004423844 2.905366367408187 -3.037480191697233 -0.10980821647409474 1.0510101509538092
P 1.6762325027582516 0.21061422199411398 10.857196048622395 -0.39467076301528803 0.7114882651965231 2.111029961605397
P 1.6597847572001958 2.8743695547520693 7.532849033554232 1.3167858560668806 1.0322166723963901 0.627040638974404
P 5.328117421169301 6.393869724295727 3.7310459948332846 0.38294164750381793 -0.4561633231031305 0.3911586360969715
P 3.545712013770116 3.4792862717774242 10.032294935374107 -0.4709469091702083 0.3945496640563914 0.5834429568891113
P 1.9205216635155242 5.378664834447888 11.281737378478134 -0.5555128061377465 0.2723240477545504 0.8261404400264803
Ni 6.858252497293542 7.977025909823914 12.05667543081556 1.4478784358410484 -0.5514653755412503 -1.299715273737839
Ni 7.398470392262776 6.120923027293715 4.824082699487316 -1.523011469530461 0.4841798629207145 -0.81928536477786
Ni 0.5356886973842359 8.714868788453533 7.183203754612514 -2.6951524610600357 0.7378073627070261 -1.2634514063097981
Ni 6.336321284247251 2.1343983639844057 7.4377862916619915 2.7250579903702166 -0.27623546699381457 -0.10550778932652796
Ni 1.826343851406998 6.654933345193649 7.309388394172492 0.8503046959775097 -1.0800993550102818 -0.16327816336777687
Ni 0.6099574562996738 3.995411299955886 1.5627738629254555 -1.5192926259179769 -1.445498622754962 -1.245099643275488
Ni 5.464189377468833 3.061791708733136 10.987642913279881 1.6149677454247993 -1.4337646221474856 -0.0006977973979729918
Ni 8.85191155379849 5.701244143897222 6.326592657447816 1.747389585533352 -1.003811896001452 0.6334707108704639
Ni 4.062826520398723 4.023499419356675 12.398464624251229 -0.8211617558649664 2.1473213398372635 -0.8045740267096143
Ni 3.6813639084634553 2.0980677023998697 13.302102084964377 0.32683272032539196 -1.5420628297349572 0.23853126757482146
Ni 1.0011188239868252 7.697367561825171 12.242277317836455 -0.9244069744095628 0.2877257270216012 -1.763051974660957
Ni 6.294632503508162 8.502448301552787 4.565510510649237 0.32622645419996077 -2.0254338236011313 -1.8138690573128247
Ni 5.195228598374477 6.489102357770916 10.940234760404913 -0.1292393286155129 0.16703557352768006 1.2019467620370978
Ni 7.307821097646273 8.183546864833234 7.440819136458708 1.8040590132009382 0.21099963781345596 -0.06360472133483885
Ni 6.388371584605775 4.9910226495504 12.264847694672337 -0.45063236598257234 -0.49428095591045845 0.6543457545472602
Ni 8.581177181255763 8.514919463905548 10.129501858398406 -0.5925693446704118 -0.38956789457108393 -0.6546368034251178
Ni 1.3819466761616228 7.679612957936736 9.914730893443451 -0.7420417125033478 -1.0844131518942872 -1.5973729151611717
Ni 1.5993612288248873 5.859140634314084 2.300591537858702 -1.9810622394642916 1.2112276731183913 0.486398210728272
Ni 7.1146674364162585 1.0832455353487849 10.221584963297381 0.46675446835541556 1.0424231806157467 0.5412321278490162
Ni 8.521920490675434 0.23380535653692516 3.2256232029103904 0.5631278994808431 -0.9819009548609734 1.078968069619316
Ni 1.7105001951212604 0.25130418958069983 2.5050196525989437 0.3435459193150148 -0.2693315407851297 0.5736213428129993
Ni 9.281466552291704 1.9277373884396882 6.803829315595144 -0.8835459745291429 -0.1947950030291355 -1.2815427165938702
Ni 3.8167450967883587 0.3379993042775701 1.2163873285775604 0.45562390565989275 -0.555455984757882 -1.1738026955027139
Ni 8.408139803611224 4.258724584122533 13.098725057709855 1.2276557367674275 1.1657425442023988 -0.10928576831172145
P 5.108518548153831 3.4189094169139147 6.374437674393227 -0.8248677439616439 1.3930375767417686 -1.4044447901374457
P 5.752939725566071 2.690270554811109 -0.01434557058661737 -0.27897652007406143 0.9514410957092194 0.3407693850111422
P 0.5833115484134822 1.3332568686526456 0.6943730366802687 -1.5586294758443868 -0.2755268709625642 0.7978626761277098
P 7.972153195192073 3.9066289458113537 7.744367788207016 0.5274443300363045 0.630941516690707 -0.1020033757176953
P 7.285175109721278 6.3815292477760055 9.829601208332326 0.8928397411262429 0.1276107918731544 0.5662975554580763
P 5.3398324726309125 9.15100475211044 10.792272260239402 1.2279650404777303 0.15844680341740452 0.1835374278374452
P 8.891556034720772 8.171981168609381 5.2084848091957 -1.2703437625542575 0.7457556710198253 0.6790738534215596
P 8.047969647758775 2.0795476529179275 4.557996075249558 1.9030791379205936 1.8400153766908893 -1.435579306758721
Ni 1.4326621140826874 0.9758031111869122 8.828019383108453 0.5059409087468899 -0.00950793949043524 0.4602086968170977
Ni 6.52118572978172 5.480441094277332 7.335360336548303 1.2431430337697493 -0.1513500444716232 -0.08464817226869938
Ni 2.6957406903939813 4.15504404501168 3.2977328451699948 -1.4560308897448537 -1.3074995456689482 0.6413657973478245
Ni 9.110828193153647 5.552262294234017 10.825608349306899 0.06859857500500444 1.8539386716402009 1.9288318214046651
Ni 3.113104567605231 4.388476946924447 6.67272622136176 -0.16176121250261818 -0.12964324892215093 0.43543586074779206
Ni 5.352621014863907 7.942804890972705 2.1388295471946264 -0.6091568167154477 -2.980314798229835 -1.0871907146394244
Ni 2.322866004629776 2.337698846679577 1.507455483270749 -0.5756442867802989 0.5976038217705256 -0.4565847269112653
Ni 3.7297736749016375 7.7236914224799476 5.098995284806312 0.6647255551196875 -1.4813274595281134 0.37687590092571227
Ni 2.55273305024108 1.1008041104876627 6.4526130062462626 0.7456407427085158 0.8367084453503139 1.091551048490649
Ni 7.425709053748818 4.227910731632669 10.215655560358405 -0.45757820117278614 -1.4915046571714312 -1.2590435070500898
Ni 5.158925940897021 1.039829834673123 8.892286941915549 -0.10992417322666874 -3.367007171025336 1.5212448645483414
Ni 7.131161855486114 3.6747456044903215 5.668002335323561 0.5634839972686811 0.6457176465586169 -0.2497857574427182
Ni 1.2614916769101194 6.258983275195895 0.1998774473398146 -0.16648664300274552 -1.5072403227391333 -1.1023931334114756
Ni 7.6269932407342615 2.174453571810522 2.4695524509826936 -1.2876801969501759 0.838968187918768 -1.0877915814482169
Ni 5.741924776781448 7.356874958547285 8.8937487563051 -1.2757302236771513 1.1999865529869334 -0.0979006664032314
Ni 3.504368617018341 8.61491279558426 9.943366959872764 0.10413276335587227 -0.32829722068606043 -1.2259711499761532
Ni 0.7692653537133447 3.8075690843686263 5.524056557583495 0.3816324417740911 0.3293269475021554 -0.36391934076504423
Ni 7.525982426498326 0.6028892196727954 5.782751031022488 0.46558204531386915 -1.0263440156656969 1.6410688133872253
Ni 6.081941310238982 0.6505951495530445 12.80162481835173 -1.217151237691678 1.4591141566558676 -0.2665678619970635
Ni 4.5853364849913225 4.313155233582818 4.399855015630868 1.392174971631157 0.43439276419525835 0.8032041429452813
Ni 7.885153769198271 2.050292695722158 -0.02110856244632864 0.0026970872161889035 0.023031427898166788 1.4211687877603458
Ni 4.162129084102807 0.14531891245719972 3.4479086032650246 -2.7947238302974706 0.8110894592306289 2.9161110098584166
Ni 6.1013201523380305 6.826113117068577 0.22362866402421677 -0.8811772171866501 -0.18170705949692575 -0.4661186345436295
Ni 9.168049918619527 2.6488898192498946 9.07318880629826 -0.6920221860521114 1.1264589161114278 1.059385262391382
P 2.7875288186983855 7.722076518971694 1.028685133525698 -0.23070637221376394 0.873038904350232 -0.381060371320705
P 2.434060979140308 4.263186571850542 0.30992051957914146 0.29097714407936337 -0.2627322903010572 -0.04542316532980564
P 2.4387096609155132 8.618730688849439 7.864076944739967 2.7567751189678393 -0.08683129596294722 0.43705796973224725
P 5.997910319595612 0.3776213819141891 2.739041574230617 4.079361897987213 3.539311192040808 -1.150470962755309
P 2.133016828035148 5.661468977141901 5.331978254065335 -0.2350376525992662 0.602333366035711 -1.3589504052500725
P 8.403612472966698 2.755706818353657 11.558426357656208 0.45620446075371107 -0.27514197681931973 -1.1034246599997835
P 8.530023012323785 7.1825027184652885 13.385181869437275 -0.8795322253840595 -0.9115080069597077 0.04405610977894993
P 8.236222590249868 0.7101188126208635 8.273903983265873 -0.5523979146578487 -0.7895451574009499 0.8397996826811278
