# total energy = -381168.83428372414 ev
CRYSTAL
PRIMVEC
9.17580240334923 0.00000000000000 0.00000000000000
0.00000000000000 9.17580240334923 0.00000000000000
0.00000000000000 0.00000000000000 13.42971432161991
PRIMCOORD
 96 1
Ni 5.639604275981504 8.91439317455109 2.517010745070143 -0.06680085967463334 -0.36383475147103794 0.15940659622751258
Ni 7.022159159232761 6.172938627190711 5.4512957019704125 -0.11435186998071918 2.326472979902187 -0.20234684723446442
Ni 8.496536299254895 3.93399691005489 0.4099987179364892 0.042486451298984894 0.486518024135588 0.8233338238156207
Ni 2.6773890935006537 0.2425302268251694 2.014202454001374 1.3372132706832969 0.10063323484304604 -2.7926121832711064
Ni 1.9772845297591484 5.024366710628513 4.284992464434492 -0.4110975411127436 0.2732501591132455 -1.2701537580306383
Ni 4.117356973715573 2.375780461537151 9.48927556000218 1.1075016582826347 0.909097597746002 -0.18225341891869903
Ni 2.0347067025254275 7.066579219693221 2.058345405222853 -1.969140805436357 0.6474865655335816 0.15052549168779883
Ni 6.789258937252304 6.623085151889996 8.24564324592618 0.8564169795228348 -0.6521526035506833 -0.6361937662285817
Ni 7.433097479357052 8.89212350160386 8.971720836550432 0.2135676556509483 0.2069766326969919 0.4966682251957123
Ni 6.499532969675559 3.417784606525753 12.599516625432882 -0.43753696625119487 -0.4830676036931422 -0.2730136176224072
Ni 0.8318626662347673 5.565216044179615 9.083979440906012 -0.6802149090045382 -0.5529121352901059 0.09174441699384844
Ni 4.222162991187041 3.652281418161265 3.3309053546237135 -0.9167563998428404 -0.6446007593453543 2.295050756837164
Ni 5.654230505350224 0.18355917857743473 13.541718318116118 -0.8391309387488773 0.13755916133511795 -0.7507348694019715
Ni 1.5767515698005583 1.6465794277026653 3.328608651229115 -0.27997565076253716 1.2305716248626422 0.8668232624578232
Ni 2.3911682825229374 6.282828039311031 10.85329073406931 -0.2236432947193955 -0.10779658536070467 0.49957922819492023
Ni 4.77951959364299 5.278169410966526 11.384758727026574 -0.19178938343359228 0.005799123180280336 1.329307385572659
Ni 7.870012496685137 7.893998044721418 12.19144115572455 0.1856480464225448 2.4828996675657686 1.7006649277833032
Ni 6.998127732183402 8.433443480472386 4.2701258290372515 0.16884974391828342 -0.46819839989079365 0.5880773703373291
Ni 4.992884531855565 7.876527316541969 5.498165701729146 -0.13562980552288897 -0.5731258912338194 -1.2799812856440211
Ni 5.093212757650786 7.686964410313371 11.788791338102621 0.11610176279229037 -0.04232652868235291 -0.4595605217101376
Ni 5.921062845401901 2.004747706986613 7.733017763639348 -0.44420589363093826 -1.0275007549779593 0.3188075360280703
Ni 8.49960101732839 1.7222706234759215 8.32632883106292 1.5429616874001426 -2.700471302169788 -1.283811715133705
Ni 8.555986324399147 5.080421688805118 6.776633950433972 -0.1777897267203906 -1.0394756679516486 0.5380321328544798
Ni 0.08890526911948807 3.227515163495781 4.401642607921732 0.27618250226869206 1.5131769999385423 0.5122496245737372
P 3.9521833508383293 7.225256374318863 3.2940810235681637 0.9268783187681908 -0.8194584000206145 0.8151425462540801
Ni 8.538735815482463 1.4534379584541175 12.98786320193815 -1.470124134613126 -0.3315530086191967 1.4991930269546245
P 0.3890907340973642 2.548202968480448 6.394290183999606 0.3711855354091543 -0.8938144463346864 0.7741933575352279
Ni 2.183547396747514 1.3494577632180234 9.87450695151957 -1.8236366782225495 1.0134540470769062 -0.31759114712246594
P 4.796173675389682 4.7145732627322 0.19296896415938092 1.760350259459078 0.05721964374410146 0.6066109103651424
P 3.231213011949729 1.315332953291882 0.08039930009514469 1.0454763656197736 -0.36375350461114125 1.5235213192873438
P 5.218600100388276 2.0877336658389987 5.616762950531346 -0.26623876079241887 0.7224949007196718 -0.10653828747357136
Ni 4.160382312178514 5.489084409880826 5.009269762585629 0.5892181688099918 0.575564582582299 -0.8130620095759674
Ni 3.5814901009845563 0.7368866861050253 5.933583228070421 -0.3355621297785898 -0.768001112681587 2.675316400170715
Ni 7.604363835170826 3.5909503534808858 8.384264848775654 -1.2239415211406341 3.4345567359405367 0.4635747850758533
Ni 0.28189442004462256 7.275356256598165 7.618677169670367 -1.0107757289137949 0.6195330177434492 1.3873114728912688
Ni 2.9648394620288143 8.51864080775505 12.698628139801322 0.4819797699456022 -0.28153708171238606 0.2610477035097826
Ni 0.48044227219407987 6.715136803726256 0.032486011579056416 0.20673623455141169 -2.2534605921002027 1.1096001926828762
Ni 6.014949657761213 4.58125802653513 6.81864169238688 1.3980224315508698 -0.08959883140575536 0.1859000145323508
Ni 4.4637251708363 1.0418848595546037 11.544974663750795 -0.787156088343483 1.2180747779472119 2.4068492642684096
Ni 6.336699176465205 4.257875214965622 4.499142851350932 -0.5026072163879667 -0.2085720022085698 -1.0973766540334908
Ni 4.778345090908237 6.682324133574096 9.516268936135745 -0.45214134642793097 2.5011642702029118 0.2932880516007272
Ni 8.758542167130948 0.5975677222567912 4.483900008046466 0.7958980962021712 0.8882500648730315 0.9577991767167635
Ni 8.88906795933298 6.78253307393532 2.9426119977736156 1.1076482111628279 0.5779911897459207 0.7526397997341683
Ni 1.7847119602727464 1.8344539862500553 12.097943397396127 -0.6068906463890903 -0.5413347148651516 -0.9216558940269868
Ni 6.491430735966287 2.003141941528943 3.75428973341534 -1.0539144690847977 -1.3740003576046593 0.2219070287545791
Ni 4.12506464791239 7.550878081726492 1.1763801039679969 -2.868612964277453 1.7595647874433051 1.1601359966488989
Ni 0.7053008207625254 8.723554831758973 9.716304185889136 1.1514053016441204 -1.2950286668954472 -0.6170277348230921
Ni 7.699085645568126 8.85911813959678 6.747840281827294 -0.014873574677722769 -0.0577858006602166 -1.346078948604043
Ni 5.904115137971522 7.067028834021368 0.46319635117870406 3.272753100235757 -1.7219953138299635 -0.3716478197575535
Ni 1.834646678104976 4.365277984577206 12.6763749832988 -1.4354934319131343 -0.15365529556603216 0.3295238940043099
Ni 6.448423749108577 6.4417621164099 3.0160321823995955 -0.9964665113799741 -0.1362952070210298 -0.40337626120908593
Ni 1.911659189454829 2.729002983211475 7.919892159701674 0.11770047473797793 -0.050745605983983574 -1.133369527188332
Ni 3.224395390606593 8.569410523625267 10.332674962865111 -0.12739173388381286 -1.4469849774925014 0.5612633354682784
Ni 2.6018538863718566 7.60484097690682 6.119746499430065 2.092988016502021 -0.7925137531109706 1.2386988819554667
Ni 4.218611955574936 5.912795447245555 7.236481133658106 0.14528815454825947 1.5972549015260684 0.7451416915849103
Ni 3.342882529777409 3.2684117157519816 1.1462476857597539 -0.9664918193947548 -0.2801923947590335 -0.04290579822459062
P 7.681605741586061 5.8971965827996184 0.8220418046956577 1.035321793684275 0.007237655399019794 2.1447242685340484
Ni 5.3194788743404136 8.404502999023865 7.67592775492774 -0.9466889257362148 0.5842518259436519 0.40770882714616874
P 2.361970878601189 3.5678181550878225 10.778662096238902 0.5364653025879923 0.17351501060443666 -1.0219911380136397
Ni 5.407942787354107 0.0783127225804352 9.952345285104796 1.137080400381016 -1.0363337798885572 -2.5844415302660138
P 9.11315941080279 5.655102206598674 4.720075073980309 -1.1418042882192465 -2.7155639348368523 -0.36638837113082706
P 1.0958661063401616 7.948841816952811 11.833350870762834 -0.7512033243979578 -0.10904022795981866 -1.9496109629335454
P 6.784973837430979 0.5767634249872187 11.629850837941923 -0.5864722306337383 0.04650251443691346 -0.513475012340406
Ni 6.988474787832151 5.820514400343915 12.288578037370188 -1.0065442073309503 -1.434121234155956 -1.5025588581030638
Ni 8.036920346256665 4.580285391457912 2.6257238192951866 0.5150420997172097 0.7810787718011516 1.1737597580799206
Ni 3.4481289857744084 5.353649563279631 1.9292051592157238 0.5963015580193344 0.5550294387434248 1.4038182122970404
Ni -0.058537032784032994 5.6029561203361675 11.417499825918334 1.6100353411201886 -0.6824142306487022 0.10053861824671072
Ni 0.4639561076352473 3.2939020954171663 9.675881105047882 0.5029422311298822 0.018014177189233493 -0.6793661878509978
Ni 0.8999425337386678 8.89266487395816 0.4344916878573951 -0.2586156970295223 1.6296734270660902 0.2273559676842923
Ni 8.261020973529089 7.158419828069329 10.212062707808602 -0.6985934115117258 -0.4387710957686121 -2.842845625505362
Ni 1.2257771197669725 0.23133941795560176 6.809281456139056 -0.45206267067119565 1.3604061638599927 0.4149410832285499
Ni 2.5588468995141462 2.980704424750594 5.349888401787637 -0.39774940194061176 -0.2640368680450937 0.10044065921626573
Ni 7.915772224327424 8.04859196718327 1.4068964524290102 -0.9599211081557726 1.9890521996483033 -0.8584216686576893
Ni 6.611771387265384 2.3353059962012517 10.146404334614868 -0.09416253951703783 -0.1722554271657227 0.8336012671798999
Ni 3.2484726966690283 5.99733211673992 13.048794201624503 -0.08855136397784749 1.82858836580087 0.12916142418972595
Ni 3.94005293978096 1.171777521376184 3.8200692272035957 1.1089715579599417 0.7813541369497253 -0.016243458442055898
Ni 8.366487648788855 2.2900325860975728 2.5100811789351005 0.8400233686561597 -1.180082872084471 -1.3629731532562204
Ni 8.746008020758506 1.103940812641588 10.79225329507262 -0.20754150406152644 0.5588400707387665 -0.937851787060559
Ni 1.665408174669173 5.474641696564412 6.777117515231795 1.4475891867354036 -0.7233086548702189 -0.10896900840225104
Ni 9.075070654146858 3.37965914665936 11.771587625779278 -1.1406886865575645 -0.9577228149528731 -0.04458935657460062
Ni 4.873534867238915 1.9146413253047876 1.8945564109602513 -0.24041588619204404 -3.792420100319488 -1.5711682317413456
Ni 2.563636668479311 7.128993029082199 8.589081609271856 -0.3710695786565803 -0.0443975522787687 -1.1850906097117073
Ni 4.065210887453067 3.572562045039911 7.153431861767675 -0.4402435665490805 -1.142469175496755 -0.8126097525298972
Ni 1.1445437392141007 2.389608396078344 0.8028313443403553 -0.18362201713145151 -0.39304711136893594 0.8965210466325721
Ni 0.542786345483183 7.430601661045702 5.414699848399983 -1.2564757463229135 1.9196804939227003 -1.0700149741910863
Ni 3.96396508139632 3.1375555946558 12.45409942316655 0.33155198017793225 -0.027722662726249032 -2.7879505161293796
Ni 3.242242326693269 4.691954909285592 9.030180792592498 -4.174171584169947 0.2513759847479735 0.47422609414211225
Ni 5.269195476008804 4.578037319817174 9.370167218994313 4.476704037187077 -2.531452893884124 -2.11459942412421
P 1.7054880804926162 3.6709908796937745 2.4335045182094723 -0.47897646434290414 0.8321151695526765 1.6554369091834393
Ni 7.362948468363411 2.6232151548601754 5.886619635125011 1.207401871614398 -0.2073550990823332 0.9710982078185145
P 0.40499423519012795 -0.07625550763409455 2.600744531835672 0.37388390817692385 -1.03516007129543 -0.06401944027475426
Ni 6.005113197357658 3.664283367982021 1.9376395569796683 2.107001557172294 2.727891860274586 -1.4286465841946299
P 7.183157791920062 4.580303743063142 10.441334817434987 0.6005364220362883 -0.5907878272899567 0.22902641340817975
P 7.019415594250798 1.316259709356023 1.173990724966984 -0.17076444444249297 0.7358204141839844 1.2343853421817774
P 3.010782705723407 0.10341771853577877 8.33063962313157 0.3591172913907105 0.13925377542872147 -1.9532058793736553
Ni 2.473833088283789 8.538176091522931 4.0602862341894586 -1.2197058857927316 -0.21103769014024298 1.3426503825384684
