# total energy = -340865.6925240115 ev
CRYSTAL
PRIMVEC
9.32187654171359 0.00000000000000 0.00000000000000
0.00000000000000 9.32187654171359 0.00000000000000
0.00000000000000 0.00000000000000 13.64350858851591
PRIMCOORD
 96 1
Ni 6.884392374465847 4.002375723276329 12.680645811442595 -0.2406164322386243 -0.7643267491537933 0.25956212010319163
Ni 8.745616918514214 8.903016806456119 4.0023505542092614 0.6557812014422061 -1.9735273645398272 -0.277653944607896
Ni 0.9102010908197065 4.326301616441462 6.700463357646603 -0.9119162981417197 -1.0382942460490376 0.3910143972096234
Ni 6.921008706111438 6.776528939264438 7.258947244319761 -0.29690173709391443 0.9045652570932874 0.7793610177790964
Ni 3.2353530653174407 1.4021127950980101 9.4970422123923 -4.395502171595766 -3.5255727594087922 -0.3033955723483742
Ni 6.762182571035679 1.1170125183544373 5.058016734242296 -0.8621014315021216 -0.6735575515890206 -0.06194790245770621
Ni 8.028839175924402 7.51869015208616 9.401673820708647 -0.15097954850608192 -2.6862037365071805 0.4453441210004395
Ni 0.035429656742718335 4.1802930618169984 11.351481362396667 0.7787730064861104 -0.39680580708041985 1.1671335110126544
Ni 8.456060784711937 4.9234703591981335 9.425181729350157 -0.5230739688827507 0.6871684575042358 -1.5111797670028555
Ni 0.5433246507968701 7.170014676304163 11.253548522435086 0.024601600598764085 -1.6349485594221005 0.6652783422993639
Ni 5.778780511305544 5.851537758885441 9.714246600250775 0.19112346771481922 2.743564790925152 0.2209518639301614
Ni 6.541030368398205 7.764228384149518 5.013321132067879 -0.05196070933800729 -0.5085240960930338 0.6325204311420526
Ni 5.656067326534016 8.284230631651045 8.995888799561694 1.40794046199553 0.6424693148246484 0.5420096294449891
Ni 8.349306652836859 1.6853673402565967 3.5152908867490664 1.7846248157357265 1.4372201847962538 -2.2351350543181376
Ni 3.7751456570357678 4.2958097577824175 10.213885208118953 0.5911812060736334 0.9251423099136906 0.11777195140586169
Ni 6.296937027222085 8.072223190048277 11.559012438812008 0.39108510254655876 -0.5184881492842812 -0.7423204200860313
Ni 3.316080517468871 3.024771870848525 2.001011678168689 -1.4188648222175178 1.2942496226375775 1.4320568954277595
Ni 0.5473321255866967 0.45296303908441177 1.1824865836749918 -0.3502176749082355 1.8664632864697728 0.7153554614614132
Ni 4.23327860893348 7.648292203732966 2.6273028958983717 -0.2245005005133682 -0.3617886675752866 -1.0630272300193435
Ni 7.067026582612593 1.2916112687928079 10.607787633046804 0.32129122168187246 -0.6740931123775166 -1.6381074167660563
Ni 3.8744888969408247 0.8551302398872579 2.75002633473426 -2.2451620995368367 -1.7160444955631673 -1.718379314343931
Ni 1.625185304334006 5.993519262779024 1.5857854603082284 0.9709943352507987 -0.5798822361210465 -1.116318228133
Ni 5.385061727348522 1.9257878620161273 12.235703315063853 0.36455234636335276 -0.3758765131269204 0.8636098977268482
Ni 6.826652670236522 3.6155644499479695 3.857101732535184 1.2366913646071347 0.9431698568393628 -0.19957262692343694
P 4.545300465563119 1.4465688250414481 4.55361651175992 0.9895440732285281 1.0607415193089602 2.17968175844584
P 3.652637553551461 8.120361361284996 0.5931491495271448 -2.054003664819024 -1.0335842421678778 0.10621509980619773
P 1.4949027556886958 7.860169139062049 4.73474803338394 0.6143866976558194 1.2928522280694188 1.922035110197806
P 4.58921582665843 2.5992934530023666 0.5307774047696385 1.4309878307332968 -1.7549992795598097 -1.1028939843072942
P 8.98258834589776 3.6307777527090708 13.357267705806922 0.012366491985152895 -0.09139448985359744 1.688275295869699
P 3.657736620101904 5.288328612917184 2.9155903222828887 -2.7439322015668997 -0.702658582720035 -3.1386034788028203
P 8.490355969061257 8.756905711188047 11.0103799114268 -1.0741043137691115 1.9602301332102887 0.6767089527338087
P 8.707499764721234 2.728103145130365 9.817200202998585 -0.910391376856761 -0.41726973136172657 -0.4546440582451266
Ni 6.385671971451815 8.778057049401855 2.938511884880481 -0.1413109150680663 0.2287119674915545 -0.7741529912155958
Ni 1.3858834077774975 3.5343895477153304 9.273220224270277 0.6603474806566498 0.12293626921562055 0.27749196510873503
Ni 2.20101627134303 7.6305247067582975 7.261879906727017 -0.42121328939050684 0.5133780817512255 -1.644681213328832
Ni 3.7994198239413484 8.5982939792762 4.614930223512901 -0.27445394961335956 -0.34872823484690263 1.7272221094465414
Ni 0.8768707207079929 3.054182391811315 1.5502849573026523 -0.39544749328031253 0.09296569099545925 1.1718890234197687
Ni 1.9524391074781295 1.8574957933716265 7.458879126855906 -0.4483528259197762 0.6318321468257764 -0.5894323417033268
Ni 6.027366997047136 3.1575992918307105 6.098430459632124 0.36615002986777584 -2.356176934724523 1.1441668749141523
Ni 3.3677423580951094 6.870418881304762 11.039290779798906 1.1140500009241134 -0.43865796722951544 -1.5796019643309955
Ni 2.6655160650212766 5.678859315045592 5.821480299680236 0.403130463746867 2.548050136121173 -2.0666817745073245
Ni 2.0569000576870127 8.970535159335197 12.012468605173419 0.23184459958326523 0.6297297557707929 -0.45950318610964086
Ni 9.245577131128263 6.19775225922079 0.0013917561900933636 -0.4875413231937797 -0.4068649910886348 -1.218394880290792
Ni 3.950648629513248 2.892718165631763 8.158217502530603 0.7750605906315298 2.212821992643234 -1.5923795757116384
Ni 0.8250615944300231 1.384671563807557 10.774524312683267 -0.4379820242084135 -0.08741262238771397 -0.48784574180807594
Ni 1.1733259754499097 8.452835415376555 9.491516203889368 0.8915732157089936 3.9107849481143426 0.06902949189483595
Ni 8.638909396022594 5.6157222442116845 5.326235092296927 -0.8572507882780398 -0.5401743760084633 -1.4994354819827336
Ni 7.676229868178444 8.71562844119653 13.454682249424435 0.33555724468258336 0.5107861526543331 0.3381496880001079
Ni 6.454169121383536 3.7731041660402527 10.074994838536387 -0.01162164339932837 -2.421337687692572 0.24087225700317225
Ni 4.045405506085914 5.92762291644433 0.811404112888792 -0.6536050197264937 -0.2161217895313697 0.3589311435218335
Ni 3.2601772229478394 0.9388248453897042 -0.031795057020565606 -0.21297938724764612 0.19772503219173687 0.45727583944101896
Ni 1.2268988007979778 1.91572955706562 13.045336271381194 -0.4885047155483135 0.4642728395841424 -0.2119982542812994
Ni 5.744028554998322 5.270272137765068 5.94904738564521 -0.09017707250672856 1.8232602687197375 -0.19886608777471557
Ni 4.532268481947911 7.452998887038687 6.8873800359455855 1.0344895275909667 -0.7931994663240856 -1.5015808104605108
Ni 4.232933699495882 0.5883744842855786 6.834934225489563 -0.41084685855451825 -0.16549933938881176 -0.20332103822227565
Ni 1.9566525957428462 8.367791934316799 2.6810994462870443 -0.31466934548998066 0.762016870073694 -0.07833945644185217
P 3.656123935434213 8.28465943797887 8.610582077131397 -1.4145376555970735 0.8508235445954573 1.716390051828044
P 0.4864574742259018 8.352382872145169 13.238146240124763 -0.07411641949944009 -1.2588627584978513 0.6098317312952852
P 8.128909522211424 6.865189308480634 3.4711816306185654 -1.0134607319451254 -0.6410552080859412 0.8409322536236744
P 3.041038545675805 3.7855954808073333 6.4174838078504255 -0.2716627600214676 -2.5254395978105086 -0.5212266312613668
P 8.347600749402249 2.8129788324096685 5.309316818288886 -0.3450137621097929 1.0720646576312634 2.126802908168937
P 7.51324617609812 0.7982779783189966 1.693377628897904 1.2756368926323964 -1.1731776603242052 -1.7784559679208534
P 4.708629067081041 6.250439506283132 4.396361112906738 1.0289004635389634 2.6260903161550515 2.024777678074371
P 0.7838393235109884 0.05348519970716466 7.546947556902169 -0.2618887113538393 0.23862125618546645 1.0282810847874098
Ni 8.103498086349438 1.7233726315292734 12.563638547394152 0.3237368550088876 0.18560973698544164 0.8419051590599049
Ni 3.1043340884134736 5.192359892374577 8.078226478637829 0.5466484137685812 0.6052140300176158 0.6498956891957066
Ni 2.1659287274749026 6.719283294499781 12.935205755768326 0.6465224018480994 0.11813293428970621 1.4617636784635726
Ni 4.166011946725083 9.111043806711468 11.123962317978657 1.007043258454556 1.0634334643188266 -0.43939407406459163
Ni 8.917195380904424 7.767975778579642 1.7483067873046365 -0.34123989688965745 -0.6309183767622553 0.10175037916662477
Ni 1.1768962542228887 6.117556154040795 3.702506797289857 -0.1677721945833885 -0.7853568303512152 1.0679778891563994
Ni 5.263662927190546 9.0292163731104 13.503348971069581 2.0270415344078834 0.8614257455913358 -0.3823250969657416
Ni 7.9211528563801386 0.08278851908799847 8.336784575876694 0.7707100269723178 1.6560328908962254 -0.8100407062511403
Ni 9.193710209214803 7.751569275601984 6.341311956838303 -0.27050550648857286 0.1304426048949947 -0.03400026820484467
Ni 7.719623204179011 5.962001997683877 11.632851024088161 0.4355872987239917 0.7935920737768138 -0.6413562842661277
Ni 4.495269953357955 3.91671699835491 4.243321998881281 0.05146268665566621 -1.5727720858933558 0.7887586569439126
Ni 6.2032614883456745 6.708022467456026 0.10527941098242753 0.8561159033426481 0.20056712962622233 0.397557854755096
Ni 4.381906610908354 4.177813442616967 12.789847868136956 -0.19600342151493985 0.9645154123946744 -0.5684853071380145
Ni 5.714105330817481 4.011501840557652 1.6296486188940644 -1.0958563607342224 0.8226843631570799 0.390011924087038
Ni 8.139937302337882 2.619344809766538 7.6912008021455565 0.38689908948966917 0.11318021827012119 -0.4291579981588802
Ni 1.9245946617995706 4.309307835232217 13.259266816145493 -0.41853625677897593 0.18113164660942999 -0.5601749875001062
Ni 5.883959246019699 1.7963908916565428 2.475137241718941 0.09869333750785583 1.2563055392936362 0.24654385346665283
Ni 5.8702374435292946 1.643418895143267 8.226476012419013 1.623513063891649 -0.08310756725445688 0.12281619869798849
Ni 3.04197073334499 2.621134610091374 11.546665613133651 -0.8698414804588568 -1.3775963024860338 0.8459099093439237
Ni 7.685318697952999 4.907977400136277 1.187655564300623 1.8630946271078557 -0.08900387813423381 0.8451447490431252
Ni 6.141625239659154 6.379761901629182 2.5206792702969794 1.0728493583160879 -0.9214679463858969 0.7533738496867154
Ni 2.0923697984995058 3.368366923833463 4.363384974109315 -0.6927796330434263 0.05920067872987224 -0.3837785415828165
Ni 1.121226006619154 6.4491446298466295 8.864951855172615 -0.912122500615255 -3.680744491619351 -0.04096153001402623
Ni 0.36770795142374946 0.9044849160322633 5.654783704113549 0.022722124187864092 1.5110255008131783 -0.7106984223053759
P 9.298851656422192 4.4256168907164435 3.1476938656579496 -0.7857052148295695 -0.9741670765518253 -0.5725479072431624
P 6.409535975782954 9.282771419128748 6.822532400738723 -0.5245886057550643 -1.6743463444934326 0.37763000548291736
P 1.5102092772167153 1.2957128945372223 3.456269424474611 -0.465355788235676 0.1884729174658496 -0.6174650794708268
P 5.498975060522942 4.580285468787636 8.059152054550964 -0.04302329763906138 -0.5338047250366935 -0.6613183292103514
P 5.649075919015129 5.7543478724962025 11.975753461634895 -1.1128780921031995 0.2505966833797878 -1.0697442370282029
P 8.758760764649724 5.792492991919257 7.452193476892511 0.9604700386807071 0.1991234552011603 0.8754413431441376
P 4.957532496630157 1.9509662509608172 10.164891288601922 2.267005163553857 1.0911304160134627 1.3223224696143936
P 1.8450604098646972 5.298321664730848 10.830394980635877 0.5342922061960733 -0.32269247290477326 -0.1352089159353865
