# total energy = -340875.34776832495 ev
CRYSTAL
PRIMVEC
9.20345684837357 0.00000000000000 0.00000000000000
0.00000000000000 9.20345684837357 0.00000000000000
0.00000000000000 0.00000000000000 13.47018939726952
PRIMCOORD
 96 1
Ni 0.15727051197623687 1.6501522094663768 7.318946931006157 0.3672558613374449 0.1822657602138732 -0.9551468266955809
Ni 5.872615398104717 6.635351887613888 8.13096977283653 -0.7087976057382374 0.3961985125137241 0.37530547111479884
Ni 5.3356949267746945 4.872650603876529 12.828240222620295 0.8068571663168362 0.7282091774956297 0.2322588043025484
Ni 8.115074482447012 3.1479503936255457 5.629919319649142 -1.285321209799696 -1.1067537243730166 0.624461308283002
Ni 0.3536419105368443 3.655686703166927 1.5793527766718403 -0.9761604528327706 -0.4416525310814652 -1.225545118182328
Ni 4.42065042924275 7.8343966577645245 11.34445890330001 0.337024059036097 -1.2105226766315667 0.9677156644995271
Ni 5.0555232922209905 7.253630917824888 1.0794845024231452 -0.1815777330079131 -0.6438415125818266 -1.3151858585696123
Ni 5.6963415883482265 4.013830024467198 1.8932486382965361 0.33712484628001943 0.7872149666058765 -0.9216774912935417
Ni 1.1344733166315242 4.635302654217983 11.175919678711344 0.1207516028594759 -0.6278834465906735 0.20852906478577635
Ni 1.9006242886457687 1.17057847799918 1.1631724562422205 -0.07213409896208867 -0.05300637699370226 -0.12848548116862388
Ni 5.531203961424991 9.060665253386873 13.025808070576211 0.5219511681322172 0.4191186116450072 0.016778247899603364
Ni 8.266885503797887 3.1323873480296482 10.880774940148198 -1.7790015560116779 1.3166035648527454 -1.1877614716756513
Ni 1.0955150836289018 9.45857671189582 12.348688579449627 -1.0819230384825818 -2.865950844064258 -0.6650433434704225
Ni 8.741912727562912 8.53871880641198 7.072631132956929 -0.03511432720462984 -0.36307884714161986 -0.16434722806223953
Ni 2.5535727409500546 4.3418320244625805 8.922599594896713 0.3590280741110139 0.44858499653524037 -0.7425335645381018
Ni 1.9397665907861308 5.224489557209212 2.1194806527269776 1.3241996320324485 0.5243695477657228 -0.1723353884740387
Ni 0.9931082188473809 5.943325557367449 7.611976715176673 -0.7896680561320594 -0.404570024406871 0.9209778941233557
Ni 0.31176986308380145 4.309040107574241 3.9615562300404803 -0.4655961863812562 -2.0840894284608105 -2.6688806718477003
Ni 3.0295847346019866 2.217425681609687 10.123076422938965 1.2851669436100188 0.5527555551075835 -1.0247095653860676
Ni 5.17874837648088 1.0568237508760023 10.830544313150394 -0.877939941196275 1.1102815350206168 -0.18028266834557338
Ni 1.213135262644615 9.066334582829256 4.55536234804329 -1.0625199513656218 0.7978577910317033 0.6332804492365287
Ni 6.72864733007729 1.4314504634608691 3.9985044280589843 0.1280234539305408 -0.5520988953601911 -0.4267229063548264
Ni 6.706871951082676 1.048098873747137 1.3086459771807155 1.7419198206680324 -0.3026350400332659 0.48754826517231525
Ni 9.2025365412998 1.5565806632963646 3.1096336415679464 -0.5565795568393641 0.7181080845058859 -1.064193996633935
P 4.73026392237793 4.723563805764202 8.78677957988698 0.4798922912889541 0.3056915674714026 -1.0908445093419277
P 2.0933722862299686 2.252536869633548 8.037608065483541 2.4491799067158206 -0.30412550853586334 -1.9580606363627957
P 1.8433051591536043 6.894447605896389 3.482797924853471 -1.0873454950497337 1.7562966582149946 0.14533983372180131
P 5.018074426147835 8.571556740584754 9.37343369154291 0.055177416503092075 0.0958268145933382 -1.3751948921333927
P 4.001488188781746 5.264358932443647 1.1013509956409413 0.43614882765441665 0.4827685843954847 1.273957962268077
P 4.667579177520651 -0.0745765315009565 4.866092220498861 1.5893323042448821 0.591178377860156 0.30389436636166367
P 0.05623496227087712 4.880758849393966 5.986569840242343 0.1910144529407807 -0.25546789542916 1.014418982093337
P 8.90774061375267 1.1166002033569926 0.6513792629050544 -0.3717876877695274 0.12934834338955142 0.1363034345511459
Ni 0.5272531602159293 6.951435410940621 5.5338232652550285 -0.4751007834375818 0.13748279957122775 -0.96301080282469
Ni 3.1408637318225647 0.5990704953421665 3.3553162417833495 -1.0238536451436755 -1.0659027517949256 0.5992290160787744
Ni 7.166695064070396 1.6896902602528794 12.309732187138382 0.16852244248585171 -1.731959624131527 0.30991871817887273
Ni 7.710831045599816 3.73327184472424 8.128787633208626 1.4586282181583847 0.1167244839779538 -0.4308960638959095
Ni 6.006415254327756 3.583945756732852 4.285931147676702 -1.2239286656248276 1.353867077189894 -0.48429324857012723
Ni 0.7301599335119873 7.08798710077287 0.32006401843035553 -0.12611106739917638 -0.04799658248393669 -0.7541114991836884
Ni 6.475948014331248 5.135206821948538 10.385462377058563 0.47231550738296074 1.0759441951913276 -0.3156067697025855
Ni 1.6976512504601244 6.505215007231871 9.764661599660528 -1.2740965447284704 0.6525488105478374 1.3796305593072433
Ni 2.661980259621892 5.54401517341168 12.887751615542939 -0.4409634754342406 0.3803872565130804 -0.047105438128235005
Ni 7.935027255366856 8.585518384682317 12.972950776982858 0.33109612358743623 -0.3550747458902207 0.7675126030809427
Ni 2.58078736296488 8.004329285725879 1.604056695647895 1.8982423786535823 -1.177547764367443 -0.6930184885271097
Ni 2.919667849000683 9.21072761792922 10.030684759941863 0.0630673607741301 -1.303687885232342 -0.24058017968405018
Ni 4.312730693785923 8.48994048491094 7.176822548028837 0.13563803305300512 -1.1632418892677319 0.9856449952844379
Ni 3.0650456539875535 0.9263647495029402 6.065101097167638 -1.9962258345786072 0.5395362282038321 0.3098341288848664
Ni 5.244810790015683 2.4076703389206258 13.631697407125948 -1.008024905641535 0.3070491099405615 -1.3628908779550593
Ni 2.0541287460638498 5.217467319604441 4.851032603994682 2.384505863576203 0.3479857002539232 1.0516621827155113
Ni 4.320875753130908 1.3587431540536599 8.17181195346392 -0.013671069729189357 0.6924991256885299 0.6049283804563969
Ni 8.985555841732157 6.875157160261261 11.297757802018364 -0.4577774616677859 -0.04373420766315694 0.48566647476857
Ni 3.280829904159886 6.243293827685065 7.0358301902486176 0.25324954762160257 -1.0359869380720996 -0.1302885958156337
Ni 5.272688060926372 6.708666625175639 5.602749794573063 0.28130851064134776 0.8109763306915324 -1.275427861945384
Ni 5.971055572967946 4.686400246854543 6.745116916176556 -0.5642185614418606 -0.927524436992622 -0.29339835192634633
Ni 7.621769193304429 5.304366359531386 4.512297532577693 -1.008352978404915 1.6447614317474644 1.366351325699834
Ni 2.8210251980859407 3.402812521740031 0.6656344972773108 0.43402226822971707 -0.2909558039231247 -0.4065027226532095
Ni 8.937716272833592 6.257724848083863 2.4997978627050697 0.12926863919155157 -0.19415685522450435 0.5851591682492696
P 7.6575154198534925 3.473513477545877 2.6772138214612355 -0.1730306147688504 -0.02869248283868607 0.903808838543237
P 8.802655543017035 0.7082345381701145 10.636290630019483 1.1653751335606508 0.20273636936339925 2.694498372415805
P 4.21378432879391 4.875476065140835 5.1054575679070355 1.1849155175864239 0.08117666878033117 -0.1760046097955098
P 8.856781072969415 4.919008416216291 9.54296873016675 0.3249858969246403 1.5232883773409314 0.26248700705947053
P 1.798033354726508 8.232197674790829 7.19630074418446 0.513844994085315 -0.6614808229301445 -0.3837482025655133
P 6.5966697583178755 1.976313518084362 7.239728175851404 0.1895242415484994 0.5799889369022398 0.3175448672655628
P 2.5843675076939183 2.9218858821104474 11.952315018586495 -0.3864992829480892 0.9060747517592783 1.8298854873457386
P 0.1910757294678343 5.052992341577069 13.18819110285317 1.670436467916065 0.9689847610199376 -0.28293087673611916
Ni 6.545636589879525 9.091708513466683 6.285069238840794 -0.67838711176718 0.783720837409689 -0.87958930387424
Ni 4.024441610257895 6.593945535079327 3.160388865608311 -0.8543053324964706 -0.9634774580484634 0.5147541361631457
Ni 0.8069600201968402 2.7762687872445153 9.487323709482327 -1.6230384382480758 -0.07998316269286225 0.5878575410170392
Ni 3.143514327406017 3.6100099466368034 6.54894983435884 -0.30512489633465517 -0.39277148911004617 0.6773653553708849
Ni 7.86756591638523 3.7267742041620266 -0.16625032486087155 -1.9909476168988032 -1.6797042663712363 -0.05415540299648093
Ni 3.508762717423043 2.890962266970166 4.224062749445299 -0.5645098674300342 0.9460248097896545 -0.13305793103065472
Ni 0.7708493367550521 8.712305206757469 9.15210435859617 -0.6420800498060296 0.2551611628220186 0.013350453164977006
Ni 0.5024949408442415 2.326937615107963 12.403026709256096 0.5214377188309084 1.9280013550835697 1.140516165535442
Ni 5.6196031648245155 8.743118380415106 2.8504136766174724 -0.5630618221295981 -0.061540896827274656 0.9255925100772318
Ni 6.284166379720181 6.325747597935595 2.94419322091313 0.7283302764545262 -0.383431699766359 -0.06084284231898554
Ni 4.995728432826227 2.149301693732198 5.835272371785761 1.6194926298783463 -0.7179638456185378 0.5053824651402586
Ni 3.3444718085334113 0.5946997736665357 12.420053104497025 0.2961941695039286 0.6955613095536215 1.0522000574968522
Ni 3.923599333147162 5.020798649386383 10.814151115743288 -0.2737715788343543 -1.1908280264161166 1.0047205238586503
Ni 7.990579321136718 7.080762387116584 9.044235242152219 1.0835960553096307 -0.8437134159132372 -0.16863068592894181
Ni 3.810313982325221 6.697235931721999 9.315000023421732 0.7213523024747964 1.0425656197308817 -0.8415904560329633
Ni 5.948866038413416 2.8528783623718077 9.341656915949205 -1.0206863031592874 0.2688790266287434 -0.8298348581589322
Ni 6.9026846998102425 8.76648595745117 10.620045608268258 0.5962023134373088 -0.964598973247416 0.07524436245629623
Ni 1.2662944296238603 2.372338267931477 5.134526686484588 0.36066715237633373 -0.011446037053412544 0.03576815873854485
Ni 7.513131588210417 5.846578818571427 0.5441028490846278 -1.0829815616540832 2.208698457393164 0.22738424981906646
Ni 4.6848724730113025 1.899556687646878 2.4464150517234704 1.3350607431166686 1.130040719925415 -0.36297985966991037
Ni 0.5957388439490768 8.52698439888107 2.3494161382087433 -1.6921306650600472 0.23672018250801166 -0.1546081463976047
Ni 7.808350874774347 1.173900925935383 8.950065471284553 -1.0390617203426815 -0.14576920794973605 -1.3301044275526577
Ni 3.041530821641298 7.853429406606816 5.233115037003698 -0.8584954593184183 -1.5013769219798208 -0.6574627029096871
Ni 8.042578852548203 8.308107787194709 4.080052578151834 -0.7502684712885144 -0.5921281433679352 1.0445278856635754
P 6.522213792102139 7.116628258605179 12.001898642565147 -0.08839889756038324 -1.64174192819485 0.7827980684851035
P 7.233953927000508 6.9949585585591905 6.5281794728562845 1.0091867871601201 -0.33839599968295914 -0.4076368362576528
P 2.3116966905031098 7.629766997339222 12.162085730028869 -0.2742510895739341 0.011302569497012792 -0.6192849062883851
P 4.089638898845322 0.2717339052797128 1.197652287123634 0.46582090079755256 0.04555866246640541 -0.931943391995924
P 5.996954100647931 3.29582233542879 11.390715477614014 -0.059862480683587224 -0.7179931561945764 2.189993167674177
P 1.9134999248306657 2.746587638783977 2.747891768624864 0.5748372174979713 0.09682954482623969 0.8589310041939401
P 8.477294935148219 0.9300829460852835 5.1643624530208285 1.048728296898168 0.27680008124803296 1.381131826443118
P 7.5263661592139055 7.901222958220948 2.0725365801835154 -0.08521715739829196 -0.12007000341141902 -1.8735628736290315
