# total energy = -381169.9906261753 ev
CRYSTAL
PRIMVEC
9.23444285548367 0.00000000000000 0.00000000000000
0.00000000000000 9.23444285548367 0.00000000000000
0.00000000000000 0.00000000000000 13.51554055078577
PRIMCOORD
 96 1
Ni 9.135551209852782 8.30529168689477 0.8748369489684795 -0.1184877465259637 -0.624677538058866 0.27067957017259187
Ni 2.0992843638911634 8.128018087341612 3.6888367164402 2.316383456876669 0.782413174341859 -0.07158696820936704
Ni 8.477920361690142 6.304243326131519 13.04294225575615 2.584956779339535 0.10900886050125098 -0.12154864483947454
Ni 6.886059398426501 2.2758561457870816 3.748589102399916 1.1081230939167175 -1.2779020345174894 2.198997170945
Ni 8.739449017883558 1.9836599048608408 6.20498507017918 0.24423551704845034 -1.1340850651981178 0.7581180492399202
Ni 3.6136037104726224 3.9959650514685117 8.0289472905793 2.0836235445679856 0.6597990643523476 1.791096025282367
Ni 4.00832997045594 6.790390570413232 4.363180982732301 -2.183863657737671 1.8826962033888672 1.0954033323572039
Ni 2.8833162658999054 8.009244683296567 11.395344042287636 2.092033880118868 0.6332303127248836 1.118291549809287
Ni 3.0082398088886606 4.140807287702886 12.988109980951405 -0.0008381796305792016 -0.21702604651319402 2.8310689445854083
Ni 2.4972796166463636 8.365620302088853 0.8938534371468313 -0.14038480370937115 -0.09137057859419748 0.4341017153174007
Ni 1.1336940808429536 4.568371226490759 2.7576428861510465 0.7394158448447266 0.8017740953669741 0.43626221330382936
Ni 5.329427834667744 4.451250787717372 1.0282958438340495 -0.7943811453370125 0.8092351796307096 -0.29309856129774037
Ni 3.999825048583333 1.8573696643290392 7.307095509557754 -0.46412654381426516 -1.33291618596984 0.06552713516853231
Ni 4.883034866891545 8.320316125425427 6.142583322563383 0.03016623917073515 1.8378088559578738 -2.4121565354139363
Ni 0.589094660155991 4.345682636959873 13.489577165935241 -0.26128938720694356 -0.07704567733109312 -0.5837268066781173
Ni 6.967119337837743 7.443108694975189 2.3907640120515907 -0.24141733087336487 -1.0783898285183426 -0.24534211984906779
Ni 7.3686975544220115 4.257743037619105 13.177070691386183 -0.5414393587638159 -0.3144178916008069 -0.09015701790207055
Ni 3.7358492650324346 0.9218125597892807 2.413037488226108 -0.5404944783520433 -0.5091406466311102 -0.841419477672738
Ni 0.3924250368229994 3.018970231490149 4.4222176993704885 0.16993063568728797 0.8301284781399509 -0.8230306907529051
Ni 7.835092325429557 0.3216670418646141 2.7164480365596186 0.5268051537904089 1.4270321885196584 -1.256194724747385
Ni 8.431434176340838 5.353843701585416 1.7740362050860523 -1.2625669468223157 0.25388589565402087 -0.20292457411480536
Ni 7.708386534969126 8.344159456885876 12.037764839618166 -0.04991899631763016 1.0243539818188616 0.6375212267907536
Ni 1.6558556522725183 5.249291339542344 7.835499564359613 3.3572912292891535 0.44841941749165354 0.605250539682506
Ni 2.365587227042384 0.5554148001627482 5.9425800653584995 -0.814518539516836 0.0797759317780626 -0.5415445168831126
P 7.156508526421153 0.08750096330499321 0.5461147927600298 0.24912266993742255 0.4807104163148754 -0.31768473527753677
Ni 3.0042505295738215 3.2770359716116557 1.9364118779757162 -1.448099550712919 -0.1185067726893572 -0.5952962566832717
P 5.835927791009422 3.811220787642888 7.50976105663872 -0.0863741538208706 -0.29205675029678735 -0.1181355053928675
Ni 5.561480149257071 7.060156349636361 11.490088502570778 0.09808964248558591 0.500518452179738 -0.38833453638461507
P 0.23050831574339925 4.980236612419312 6.463320456032154 -3.4485792754718734 -0.9435580934167169 -1.0658081351985902
P 3.301516479629337 5.805823507290961 9.393611409308575 0.46600987687990714 0.9374370681206436 -0.055277946636698355
P 5.247075073256322 3.2633782306240473 12.421281409415645 0.9487982587697337 1.1700216311937268 -0.570673573038585
Ni 2.6808326373432503 0.8914340131179244 12.866307679648797 0.06607452303157008 -0.25649145159766795 -0.19817163281085226
Ni 6.700816474686522 7.256240509292129 4.838131465048174 -1.2835962566887893 -0.5930907643915205 0.6308258170484491
Ni 4.862054212717207 3.137577415563742 3.097491622559611 -0.10018380601045328 -0.32459894589886673 -0.08202204749976197
Ni 4.53492407445755 6.83966555750578 7.569297356635548 0.1398713544080623 -1.5600109295729456 2.6475878239071955
Ni 5.4434455006407 5.129659132311465 9.714875829464562 -0.3641013748688633 0.0784934655212132 -0.14721673902954002
Ni 5.481888486260319 2.6494724693960436 9.382447891337026 -1.60991835592635 -0.1929659202401967 -0.023001345991179742
Ni 4.420915642927451 7.822588889799251 2.069080348189831 1.2332681978581987 0.1537923353645287 1.5239704910096206
Ni 6.4312169154348435 6.784221962583804 0.08316169860581996 -1.0103065025868598 -0.10935878764150198 1.3507380446426092
Ni 6.809773665973062 5.7065070743486155 6.655457814810231 -1.586618761968461 1.7834133119261284 1.1923136098227078
Ni 3.6901941795403883 5.302647950378315 6.2306780605441725 -0.0998199949131313 0.3395259995223443 -0.9761188009615576
Ni 5.111310294351778 8.856403236685495 13.469723113789632 -0.8276620188773294 -0.11076903772546728 -0.4387124746165348
Ni 9.208734169505789 7.801377374553452 3.574239127455734 -2.224823130869168 -0.5489804043358674 0.47824498549351824
Ni 2.1229430064944443 3.2011011479868383 6.455698346896811 -0.8057395077726253 -0.09873550359970093 -0.8562256894476351
Ni 7.695024296152987 6.1208472909632246 10.911947738533447 -0.806616768171256 0.5437980888039795 -1.2111399985005915
Ni 3.7337438120607143 5.647221951197536 11.631757784238998 0.12643914016255642 4.470809783189829 -0.4282753384436108
Ni 1.2116050752394738 0.9057630981013404 2.0356701339280545 0.7376867779687618 -0.6225586919436504 0.6000929067409666
Ni 4.704680837523951 1.024912343970723 4.452776317677584 -0.3424539718024167 0.33380169544405736 1.2155586963935774
Ni 3.1031237092589636 4.321340645585069 4.317917437617451 -0.12683329027718154 1.1799892839294002 -1.6961588123828337
Ni 7.396991887340222 3.889113313153692 5.80601927747956 0.8811381364185986 -2.964056941610076 -0.8982418859784209
Ni 9.195769011732564 2.7487334956812397 1.9055429823885777 -1.1738538604556235 0.587147402323892 -0.2123384112295375
Ni 4.794578138750705 3.1627228034672297 5.487444850528231 0.014597181087884537 1.5382372853412798 0.5979732892948024
Ni 1.8429362301413228 7.646681987789139 8.999714402293943 1.3800272805250298 0.39638671726513025 -1.5690797246434331
Ni 7.486815313024109 1.9182800494232013 8.66817851134653 -1.1311565786974132 -0.14073498795993827 -2.0805901570583005
Ni 4.544952679401797 8.030289978570915 9.670193130805506 -1.9394815878090272 -0.1911815746462643 -0.947295191861646
Ni 0.18970223619631102 9.114118067978382 7.239207579439767 -0.0055129593984292145 -0.11828025850084792 0.789281362216602
P 1.1993509695663456 6.7276702345188175 2.0727436516717677 -0.0974322114072451 0.17045231251871287 -0.30516089177891315
Ni 1.8123979276085158 6.494168112400717 13.156675500889069 0.16594619711824324 -0.3309961076744622 0.4347285502681223
P 5.924227533621669 8.826732971781379 3.7133006024607353 -0.965222465764028 -0.6363120369740008 -1.9005098345315203
Ni 1.6496131689002238 4.521072410169914 10.170795971937796 1.36700310035122 0.8818793854599974 -1.6964053811760011
P 1.8204780651096366 2.582818260843942 0.19524659568850858 -1.7245854431546428 -1.1472473136116885 1.166574810295707
P 0.44699505345056806 0.8070145833947872 4.345516416988422 0.4766542439676308 -0.28354614172261494 -0.06846590608188209
P 7.204435284856372 8.492381499206434 7.095901954497033 0.19724552145215707 -0.8959214653753603 0.37802801225228444
Ni 6.7451972070641055 6.80955203934446 8.67200341757849 0.08754940507589438 1.541626513528487 0.5163883293324592
Ni 6.665901046238822 2.4720880565285843 1.3683671303155018 0.8154256247121376 -0.953055748494507 -0.7926412798277704
Ni 9.05155471761256 6.294390175601581 8.363686609754298 -1.4077077771594335 0.4182845457794861 0.8478192105514947
Ni 1.743758313841853 0.5016306346224315 10.273013866826258 -1.121940459415784 -0.07907530616661221 -0.5831768477119182
Ni 3.634104173618323 3.692161115869232 10.928139410641409 2.136435803273011 -3.766856392917771 -1.826404470775674
Ni 3.889251829796568 1.1356517827289394 10.943425183904957 1.2764221075378532 0.1697635139818044 -0.550887134440277
Ni 2.3702783240144636 7.388477731024755 6.532398705834591 -0.5497345088930726 -0.23418995988699023 -0.819637605910956
Ni 4.469793548977087 1.9898469815759847 0.370898627075728 -0.022218959299200442 0.18982326084615694 0.7407695306591435
Ni 1.385332648734998 5.776965873358387 4.977273279706044 0.5741553609395983 0.6114762088772437 -1.2307148353087254
Ni 0.18758293156030278 3.3821054624548 8.09736343082879 0.01782571532751124 0.8007369123517113 0.28712768842628617
Ni 0.8957030960513737 8.875453892302422 12.308156714067097 -1.4025629997337006 -0.4714639580159429 -0.06850730084277878
Ni 7.159066467092937 3.3165409181599923 10.893269230963714 -0.41832311232690533 1.8591767801106884 0.42176607657018333
Ni 2.672216902156341 2.164765798200245 4.332798742283801 -0.48393972188545037 -0.7542153717514042 -1.442424868925645
Ni 6.542288794135963 8.91378606460774 9.998701971383928 0.9065750884344644 1.0280445432965715 1.0551108033857441
Ni 6.305296052617379 1.5859324509485346 6.207309379446645 -0.06920304135822275 1.4901550851220724 1.3015860083979907
Ni 5.597429835304915 0.32391008803492516 7.998388672272205 -0.3914360581280743 -0.2877018157622013 1.533112562520205
Ni 1.1883804514505383 2.6494170627388933 11.451352785112547 0.41795030236851893 -0.1972169822070668 0.9367693526296577
Ni 5.470603997087324 5.471998397958946 3.730586556047419 1.2637242003552107 -1.3949854444967589 -0.7076781474218136
Ni 8.61794221875242 2.0568798022852817 13.009342735415778 -0.31136136416267024 -0.539533914210987 1.035045657204753
Ni 2.5045563576188012 2.486392208516282 9.318829967596773 -0.9722480051522417 -1.4145803359095508 -0.970990992816689
Ni 1.153972917360052 6.770518049381903 10.87732042470293 -2.4487996405582666 -1.5960904489043222 1.1495469082791427
Ni 8.793913761862541 8.221442945740284 9.787048541068858 0.12460491516729509 0.7068050007882407 -0.14333283059410154
Ni 7.4670259019785075 0.1279312010277436 5.096358807919704 2.9211442014069497 0.36411294483308904 -0.048301001098232946
Ni 8.41906925735341 1.5564838126730216 10.701915876384318 0.8255809679785846 -2.4733942991784947 0.9702762261378515
Ni 6.1862548497294405 1.3557085560451747 12.118006607392152 0.5891407786048369 -0.5736521960509346 -0.17081792338824775
P 3.1403292795355524 8.96344889830034 7.759988601661997 1.3637496264109288 0.45572700689666035 0.8506047437164319
Ni 8.76703229870167 7.143395617562192 6.125324148860989 0.5702542261129792 0.1649941176176191 -0.24701205135232293
P 4.204801976711762 6.614991562760332 0.20748407936449156 0.12618691494243428 0.04170509304827011 -0.8701386999843015
Ni 8.107739250824514 5.648385490997697 4.380738428939021 1.0781178058038787 -1.765408904928908 -1.3958650188882347
P 9.089083493389195 4.6158639661116325 10.964928507545082 -2.0339251489015937 -0.9758488351296225 2.0426005651884047
P 6.857377218908236 4.128350024286873 2.92584456904009 1.4345341533236584 1.214909492845353 -1.321113536907957
P 0.2497021052246328 1.4018438325658593 8.827134670045721 1.954757025910859 -1.244269948285341 0.18818032592609527
Ni 3.184414509741667 5.7418749904963775 1.9207881241035494 -0.028971704642001717 -0.3248475715745631 0.39377524778421213
