# total energy = -381170.3329177648 ev
CRYSTAL
PRIMVEC
9.29727803832819 0.00000000000000 0.00000000000000

0.00000000000000 9.29727803832819 0.00000000000000

0.00000000000000 0.00000000000000 13.60750619235774

PRIMCOORD
 96 1
Ni 8.976754234086416 5.885688254223948 3.8191776491256797 -0.11518362185339517 -0.8761219141509297 0.7103343540977379
Ni 2.7663771441337213 4.971431135699702 8.758457868156322 -0.41578569061703236 -0.7331999458420019 -1.1541805503964122
Ni 1.2201933447502338 1.8371514082076694 0.6922734521832452 -0.2589136878859154 1.6266274411509147 -0.05838641035869299
Ni 2.8623157546736215 4.9533479302049725 0.9554496379406697 0.38894208806162694 0.8402090023044047 -0.03337214770254252
Ni 8.288867237611354 4.939625148040336 6.574098687444179 1.8680648266289375 0.004425896981837539 0.2690384350247431
Ni 8.968600521377482 2.852609396557171 11.48431282660944 -1.8597555354322939 0.5251413929347407 1.3177515624142595
Ni 2.986787711055848 3.105476760590917 12.793954352205038 -0.20220517945027755 -1.1980178592963369 -0.46807035895336163
Ni 7.304527238357408 0.38191637032088455 10.837507711943916 1.4205262690803409 -0.14612967661294832 1.7872702237783735
Ni 4.4772157349370785 0.08975963965465825 7.251834915919682 0.43554564685277886 -0.42089138727471387 1.5172683963990967
Ni 5.315672146829692 3.7806915673028363 0.28987889758334273 0.05492030618696348 0.26476963244606017 0.9455530123595587
Ni 2.1637926722931753 1.8142429154883832 3.7117875814095025 -0.30532955614629353 -2.0349520475042113 -0.15660486511265934
Ni 8.910046265230541 8.50025944498084 9.211274349933378 0.7962462235702094 -0.108035183734072 -0.1360193276518238
Ni 8.226268665582557 6.2648963274956735 12.879109979848906 0.7824005759363687 -0.7864649758137294 0.16468841345174215
Ni 8.213168801036504 8.440273408038943 4.690507376179353 0.4565939828826459 0.4212580265855132 1.0977499782125093
Ni 8.577129338569742 1.633420157818984 9.192033633341428 0.6749734580999408 -0.794927761869102 0.6368486262037613
Ni 4.259752405105867 0.7954983394050067 5.043391136835256 0.7877291872381337 0.7905527727298579 -1.3748159115274192
Ni 7.1470220536344256 6.349752582791504 5.3754815354916925 0.19653872519311957 -0.46156623928625673 0.2839125239230982
Ni 4.467676727822636 1.6331505367601937 9.065157400897023 0.35636595389781855 -0.0696090185473898 0.8114311588407639
Ni 6.07632893734447 5.558182343294735 12.202912450864083 0.14185058962162023 0.9872488494364481 0.0967765801011172
Ni 4.498329853023726 5.5685766999749955 10.055280306998126 0.546816049694697 1.4823060213912989 1.987076306868855
Ni 9.042606853376476 1.5083159865402838 4.983966655477873 0.903662799883676 -0.07414135920010456 -0.5110594609203779
Ni 2.270739259854032 0.11035775881844836 1.679724320618957 -0.16445804260849098 -0.04359562520276363 1.333743824077458
Ni 6.56921482736892 3.440708709446155 5.162647320321573 0.14981226767085812 -0.4119681166431551 0.36482256930560397
Ni 4.389756241832239 8.044386018233775 12.108775652779133 0.04135670856991587 -1.2574350249123891 -0.2766113622759946
P 3.0430269450083496 8.965225609503658 3.6252568863658055 0.7572793553887087 -0.03929468383456458 0.5239188333815493
Ni 1.1286616439298711 7.9468668704526895 3.948421898248494 0.8253724515122043 0.13787155036921417 -0.07260229684775883
P 5.963329821877665 1.7881361591751705 0.7990777913923951 -0.9567635363633973 -0.21060394503693405 -0.052681903774747976
Ni 1.3051890592144042 6.445049681157041 1.9968609775182102 -1.2435032453226456 -0.8200916627292392 0.1031400604252998
P 1.273243612386698 4.189855469933953 7.046293485525947 0.21176042723888044 0.9015902336253634 0.5721056774994212
P 6.129063097532697 1.5696873178876902 6.802596026674438 -0.24151451857286144 -0.2963618054300444 -0.5823972892334164
P 7.646016255232159 4.099123335012072 13.042086612609753 0.20866430481205997 0.24171146507501598 -0.24464560800267546
Ni 8.375731704931278 3.3161995639523716 3.436820587832841 1.231405433617847 0.45608798978050485 0.8984594013058655
Ni 4.969562382843949 0.8127215466949734 2.570444450438598 -1.3532942354055595 -0.89494521750502 -0.39344897479304497
Ni 6.7610083729477175 7.436697340831992 10.54667398392134 -0.0880019192322807 -0.8593110132411781 0.0772549651284218
Ni 0.696859799366047 4.753298401860458 13.346472982611592 0.3316926195208546 -1.9366621160823612 0.31445260149348425
Ni 9.197797015905017 7.994599095136462 11.543165525376626 0.5112921457564742 -0.7923520307221257 -0.7484910676731173
Ni 4.5125546881943865 6.430992196988387 4.575551183716846 1.4575833218336383 -1.404965438527606 -0.2313424631358661
Ni 7.133420136082349 0.037531251383610006 1.2464098089425406 1.429632088036351 1.088707665504583 0.7391679904999786
Ni 9.372306921887569 3.812915932467222 8.86734479761268 -0.18696599390301993 1.510734709045637 0.8990286435457743
Ni 0.23795546002706422 8.053199837672851 0.5275926283852845 -0.32748989429341663 -0.23201634927443915 -0.4907336048788323
Ni 3.7875715529409337 0.6100752886359715 -0.03951436075740212 -0.8143850992627653 0.9731954566671756 1.0764481314109398
Ni 5.768802876599406 8.301994993991075 5.746762749634983 1.3773659316427826 -0.33567217299389285 -0.2974961761448038
Ni 4.687631728128187 4.8940219999932175 2.656416379081147 0.37125341253261224 -0.18219865442136363 -0.1395805626405209
Ni 1.363101803186983 3.439844062602448 5.046493638466922 -0.6416936130008885 0.8509603272836378 0.49943756041073334
Ni 6.024245586608495 2.811673482010492 2.938391660730778 -0.7466794683856754 1.7390211589639986 -1.4898743206568599
Ni 8.089310464994973 0.4049420087415763 6.82898170132433 -0.8419678939770403 -0.030273454172560763 0.025633127187071985
Ni 2.6649717341949 7.570866358052779 0.431842752586537 1.4098428212245655 -0.42165294803108677 -1.2486382525563657
Ni 5.497285173119684 0.807129234044547 12.171397468002654 0.908357377145868 1.1951143124962966 0.29003457766043594
Ni 4.273475187270504 2.8737328119217076 6.788022543582928 0.5952834011674651 -0.3682876450360689 0.17421717887778385
Ni 3.3101191442127558 7.804423275910406 5.73678862991532 -1.41361077290743 0.7781394866671695 0.9437552970291876
Ni 2.2693725600043018 5.575884360396 4.056832807076919 0.026298528685212774 -0.5974050754961582 -0.4979545481073037
Ni 7.1517450708022 4.321597897625629 10.26408694138659 0.7826767124158908 -0.30822281853368855 0.40481145099371574
Ni 6.863622429012151 8.061874197943586 12.976702576125316 0.003963612633438335 0.49262465125395805 -1.761384357150547
Ni 2.5914674552019297 1.0434334975184678 6.560096986942862 -1.1809272223626373 1.3494347524501535 0.17567268037738779
Ni 3.6370765157464984 5.267921327590141 12.336728171525078 -0.9561847810417919 0.8152757293978345 -1.257950273985911
Ni 8.541241845916964 7.7167499454141115 2.484757948227251 -1.08218683366693 -1.0177794139251375 -0.03053827779817321
P 4.687389998903063 6.3395906580584755 0.19477332314232504 -0.16421687313196234 -0.8467090082064515 0.6964272570983425
Ni 2.4320563285116363 6.935722819043832 10.569820486954592 -0.080646507308474 0.4339492488999365 0.25822900311406494
P 8.539196444781314 0.31559423849741497 12.891832374912651 -0.4559149545377503 0.7247093918724874 0.015004700938948354
Ni 7.169698114406478 3.3891738981056503 7.575366240551211 -0.6578077449539316 -1.8453619857147832 0.9191637237327526
P 0.9613571283115441 3.964517345730486 2.117232834351246 0.6453003565155402 -0.4263673227876205 0.020481407782803433
P 8.176835039045038 6.0591847569165616 9.569628628899356 1.3704419508294399 0.965550281417092 -0.8937429696668027
P 3.3048382903716216 3.512139695469806 10.412940079305773 0.07325869948483511 -0.5017536101384197 0.3891518900795879
Ni 0.18534960227370953 2.1723182761176827 7.271075632511632 1.2555419216547343 0.22440485547576836 -2.623817460960475
Ni 6.439145909697322 7.342562402202619 3.6540235938831525 -1.074842991707349 0.9791110508206622 -3.4002145110152413
Ni 3.3525519204996157 5.159970634017237 6.197892705202916 -1.7796299336242962 -0.3408192644124711 0.6139398399263879
Ni 1.0364140527120307 8.895226404274963 6.147680896506061 -2.0885011843752617 -0.7037057930376268 -0.610147205653175
Ni 1.0732777595431873 4.8618534184961675 10.846298288188269 0.47638196414285056 -0.040163716703079215 0.24165695768799672
Ni 5.298946343906803 3.8727532129628903 8.86961705232883 -0.7001545853512587 -1.1687710466160774 -0.4457267011508388
Ni 5.60819240106139 5.137908193585879 6.504496475981358 -0.3625342874920595 -0.6173861466037754 0.22099351580137425
Ni 5.350453263413641 3.423573826296137 11.626661588917251 -0.7932298053413888 -1.5107514212161852 -1.5521605802905913
Ni 3.50401387459454 6.936364331218195 2.575464980498831 0.5446429533027781 1.5821555839907848 -0.1569187968086523
Ni 1.4502544861214757 2.1024120436678797 10.46138261602029 0.19453326472731658 -0.3166028150672677 0.00694840629337513
Ni 5.238514037626219 8.147567208249455 0.99439965393019 -2.418069044243629 1.4604182201792721 0.8232991139229434
Ni 3.309682172151958 1.0157183121304025 11.200215906145463 0.3243876012190091 -0.9718181167036747 -0.18121057947648145
Ni 2.136970025582485 8.072259257345959 8.000247191454225 1.3231665627822438 0.0917942963951774 -0.10976270794813998
Ni 6.558597336019314 0.09072097818841401 8.658102120891204 -0.42973006861226637 -0.06377055748874179 -0.4754085444859876
Ni 2.267336456146541 2.53822194472979 8.402335865611569 0.7744599809330533 0.5284282912161286 -0.7177157341634737
Ni 1.4372289997985375 0.09933118724171396 12.742422330047901 1.3676579603263994 0.9336277216768825 -1.1657862529561407
Ni 0.8915968631246038 6.2977343130007535 5.886485030939062 0.28015614220445945 0.38515768131853023 0.6197474477471003
Ni 7.882948084963609 7.39962909388727 7.377214286623907 0.5194631116030408 -0.43691835883058944 -0.3981913745740368
Ni 6.2132964352099425 6.13339562902912 8.459772588956215 0.11856025163511193 0.3178518569830203 0.595967057498051
Ni 8.245579111758676 2.332305834037114 1.4275905118106786 -1.1921444312346952 0.7143938688790923 -1.939519897246131
Ni 6.648390445874375 6.415289094633326 1.2760699848650516 -0.4825446413101367 -0.453544911643677 0.26635420332436066
Ni 4.603472768674055 8.043567857779514 9.542902673878714 -0.7953687060612625 0.25006909301109187 -0.6009557689618941
Ni 0.864094585400204 6.2066581787969675 8.455636230023256 -2.014936009393601 -0.1965014441972809 0.26428343683826094
Ni -0.11007698102619087 0.5699101184263169 2.44947384890949 0.9855897165664703 0.18713234427755512 1.2111474546997592
Ni 8.455669700223657 5.144658017333526 1.5595021499599393 0.3946105992013139 -1.124604122290876 -0.04224528182245628
P 4.06095800927641 6.623371471074213 7.755611637263684 0.06718652514882621 0.3545399564326733 0.42989847586933067
Ni 6.99859101213142 1.1117220036155286 3.9104434477984076 0.33382123582808315 -1.4665855253322484 0.6437600086116139
P 6.829566500103569 4.931564408110295 3.199233300010194 0.1308976901545423 0.6688619458855641 0.3622967175599567
Ni 3.85743129900129 3.2736366257750613 4.500669048140679 0.40439081851652936 0.5618084093384712 -0.5796716627721371
P 1.5414328903820445 6.507889982410959 12.626554074624451 -0.9898040117581339 0.42382707286427007 -1.527780351674014
P 1.854648885195371 8.973918564330173 9.890425624103635 -0.4730428724672885 1.1157243033027429 1.4725774812496253
P 6.6796850832498285 2.1316240907961257 9.796982402949228 -2.1049130500743813 1.271438538280333 0.2793925245655576
Ni 3.0755767148988613 2.952992105928167 1.963890040939312 0.4283121052188172 -0.4506750462950497 -0.2626677556117089
