# total energy = -381168.6132206186 ev
CRYSTAL
PRIMVEC
9.25653343839844 0.00000000000000 0.00000000000000

0.00000000000000 9.25653343839844 0.00000000000000

0.00000000000000 0.00000000000000 13.54787235183157

PRIMCOORD
 96 1
Ni 6.865617076510387 0.6458931283295452 6.535046831469506 -2.683703852903462 -1.611695759541747 -1.0196858869192311
Ni 2.0433056871708506 5.101516205106968 6.677638173975485 -0.16664399451621623 -0.8183651669564357 -0.653018036874772
Ni 5.548514201108999 6.338966610937068 4.0044661203363 0.8972718087556676 -1.1083228686323492 -1.2370569754766696
Ni 0.1815039574488927 8.815070771934197 2.3110638737840867 -0.06093874446690151 0.6174910476127559 -0.5610548190018982
Ni 5.08615035972773 8.640251882878609 -0.15448876483485402 0.5276019386600914 1.8751636424572478 1.3355029728604095
Ni 4.1089103632083175 4.496777624100368 5.337740159519331 1.049219891822606 -1.029359405453253 0.26154932573654954
Ni 6.214142258564166 2.701223052336317 2.3314125110715427 -0.12434189131389554 1.5254146796553147 -0.7822409104300527
Ni 1.0501999924707073 2.168046730743503 5.836789493916862 1.7301199998196266 0.06569399976369976 1.0595169028732399
Ni 2.659244673544244 4.781101302816426 2.0955578923402824 -1.6063344952298335 1.5817915157831468 -1.4303784792840721
Ni 8.577899874159005 2.686292264025046 0.3678259405121788 0.18499112956483624 0.9255295180497802 1.8168865039829096
Ni 7.769702689877924 0.4737410465352569 10.272362919434386 -1.5746752164533397 -0.6959294915263176 -0.2949261014247824
Ni 5.961957263677455 8.807369336177857 8.448601839212738 0.5394552384542516 0.32230680743058043 -0.12970212718454435
Ni 0.8031246039992594 5.141939486294396 0.7017442736697285 0.011176328331793654 0.7346387351710574 -0.6532419799601201
Ni 7.486184329564273 4.746278224312395 1.0305030151318644 0.1611706301064708 0.7781433433219115 1.0526746831404257
Ni 7.299989161008033 1.320333405544372 4.221462403651223 0.08802505916073226 0.12824405458177915 0.6831932749065718
Ni 2.7627419730534326 1.4767503062783198 10.312098440193093 1.4424783478713996 -1.2631724416167989 0.3471583192566215
Ni 4.124498365388218 7.565114789533404 5.059480435808056 -1.9725444318012675 1.5728559038564138 1.9715278176112947
Ni 8.601170799028525 8.995906407674427 7.698903168813084 -0.06191087857218369 0.5431905371269676 1.074577139640472
Ni 4.85960596225095 1.8887863757759056 4.6807901020900875 1.3998309455145181 -0.9861563877032178 0.06665713500791746
Ni 2.4745398068591222 9.326790449196245 1.1180587128867623 0.9807053918909756 -3.2133199937801042 -1.684258718511138
Ni 6.228332524206559 9.687517554273882 2.174785487030301 -0.24316439547145863 -1.7966724909288798 -0.2631516372266629
Ni 0.7186207852934788 1.6558549702800447 9.659578559630418 -2.100909842452259 -0.5265107624784416 -0.2998644192666642
Ni 8.458240667401533 3.527479733204681 4.786625601926262 -0.8847831893703536 0.47505578913225927 -1.569630969161213
Ni 7.65357022233099 7.67027826504757 3.4097282979729098 0.7498367830677344 1.0185160349808458 1.6752858255885665
P 1.01775584304045 2.9417725847882696 8.037979242359375 1.001954531077739 -0.3952230359743322 -0.7816991789939699
Ni 3.979337409221231 8.504153072872025 9.640882213547897 -0.6250526620100978 -0.9418740208460746 0.2736119133280384
P 8.188005432460898 1.5960855343681557 2.255598725885056 -0.2852055317029088 -0.526631347216706 -1.2795359705764868
Ni 2.990906263868385 3.5355329172287395 8.856474320004553 0.32257703037283153 -0.7264831959434586 -1.5042421593427577
P 8.74997882933974 6.1768847117861965 5.3834905756560065 -1.064262130867709 -0.055039091153014884 0.686760680542856
P 5.946397031097637 8.7694916016647 4.352104487241504 -0.9849721375871294 0.6939538558571855 -1.017528474256596
P 3.380615574899272 5.792905194905761 3.833668269372724 -1.1264584018907955 1.4655565698471018 -0.851994682085423
Ni 3.1356969587009336 1.6359811931540071 12.69194483642266 -0.5821481493370877 0.2684481097389119 0.6117657150932044
Ni 8.828576054107875 3.9242517791900005 9.37205212037146 -1.7479043203862414 -1.834624544692621 1.1643181530510465
Ni 1.9771492432398812 7.037260974623157 1.9198013164552261 -0.2967693252811083 0.7240661018615336 0.3080029892133986
Ni 5.396216457720691 1.9929501456870848 13.555459064068996 -0.14587179496587135 0.7477503328523508 -0.1192369659871624
Ni 8.910551913552771 4.5342017884788355 12.186852837047079 -0.9435151559939234 -0.6240705006024865 0.5610057109315176
Ni 7.51947082353038 0.80690404657055 13.513988868958439 -1.8439885024060243 -2.245016832208224 -0.5516749204488951
Ni 3.3321483662211473 2.039112477558324 6.506433035544025 0.36336552514410325 2.6369470563638973 0.7196525461748703
Ni 9.462583793601913 3.8298166258412176 2.4231456823322537 -1.0479243129396338 -1.4794361560426714 0.10632231480802334
Ni 7.869663993643216 5.872853873544599 8.38086252807704 -0.9035674119563923 -0.0741354456628336 -0.8382480219232918
Ni 6.743625223345948 5.130692798260797 5.808271040284998 0.33786815220394717 -0.17935090055992337 0.4159178453195224
Ni 6.385286303875444 7.290103183378499 1.6017783023851624 -0.6789715235157404 -1.181248610257798 -1.2941179821557196
Ni 4.885348381527853 1.9272565284241647 9.097585724031518 -0.8808404026725217 -0.16811003753878145 -0.6101929712894458
Ni 1.952036268231525 -0.303224594185855 8.670746606383043 -1.1887531461649592 -0.0819019769821299 -0.1893964577213835
Ni 4.914154713347243 7.226084998653917 11.65187426840888 -0.29861023514458895 1.4753578722082399 -1.3310950736007012
Ni 0.5418598755387556 7.037603466357513 7.747486084158221 0.5672738033284166 0.7814441255603704 -1.0414836995206127
Ni 0.4947681877180735 5.818684640316108 3.506257279167948 1.7717178778660714 1.8702669764865791 -0.3691556494633191
Ni 5.189619889636836 5.733376428861257 9.477739515673857 -0.8929626398573524 0.3630636776329683 -1.8111652852284164
Ni 1.5916146287547992 3.626274713766489 11.066864136954552 -0.9937375424845855 -1.8440892896499466 0.4479473629512415
Ni 7.609620201933026 5.327468184448645 3.330039727921515 -2.1264879480316794 -1.354294651645616 0.023130158259560163
Ni 1.785215023999829 5.798348036522021 12.111919348183221 0.8290596705558045 -0.4797210558184125 -0.2744760611005466
Ni 0.9865057864137602 7.41399262588194 -0.3242869101954434 -1.5658154520698648 1.3685151661203723 1.7926194039054288
Ni 1.4883487425796353 6.9772878949773265 5.469465257512847 0.6554297316400582 0.7883243976199714 -0.8097290885479925
Ni 5.134043663337474 5.162007650621013 12.073253882681046 -0.07357443095304102 -2.2794169069546486 0.9975792848281787
Ni 3.8226150428863703 3.37853285489305 3.0520512206377166 2.624489547326835 0.21714303170703247 0.6615831528359638
Ni 6.9649767056072145 4.98892898983729 10.612698807171109 1.2114001941405137 -0.8485938839339902 1.0264831123467226
P 1.9830086288573856 7.043897909042984 10.008585042166375 -0.19244501473972017 1.0876866804392364 0.29035699399686127
Ni 7.127484405292691 6.297256671612463 12.854831128322601 0.24389690276210896 1.1010073088075425 -0.6575532057409643
P 4.07223597803209 0.4719739743166446 7.564454798704766 0.3563435853003153 -2.164596324867627 1.5484859596524816
Ni 1.5510154734335133 3.9447364875178637 4.351075160731762 1.122364691437396 1.0071659000753495 0.4248192615742103
P 3.962694162238177 5.202014387807196 7.372725148851991 1.8773724771831084 -0.9651242496232669 2.0472298364303003
P 6.83965250043282 3.6738718083086805 12.889283019838858 -1.1266113825288921 -0.30605769256156967 -1.7673094643857306
P 8.764261660315743 6.7545294196451895 1.6734470119325993 -0.17529575665394326 -0.0606608082151665 -0.8389486475347422
Ni 0.5321071919896203 0.4730708735199215 13.43312194221019 0.6705393335879871 0.6514085262958071 -0.945159890686198
Ni 2.3919622727457632 9.230281832374601 6.0856902707670955 0.38740302570928126 -0.8178969690707656 0.21154342613206795
Ni 5.147317532177127 0.5797357587452395 11.10909244214737 0.2394625211398392 -0.013988600969608168 1.0824370020045229
Ni 9.453327260240929 9.199948172550648 5.3161446671881505 -1.1183172608408998 -0.6067132402709615 -0.06668850246648515
Ni 8.297343604520869 2.132409077303705 6.54005924428448 0.09480094443198511 0.46877689810208295 1.1734820789385016
Ni 2.7544203495619057 8.577427790957595 12.21190286762858 0.38586987689420643 -0.18203693203251872 -0.5391078824171619
Ni 0.25563490487035195 8.67968471499641 11.011493405695802 1.9786754843996697 -0.831591950059355 0.5655159400970453
Ni 3.1965216394159754 7.13152025383808 7.373429571040763 -2.14787078458283 1.9276707112170288 0.6963951183088264
Ni 3.2920398071679933 4.184952784768821 13.275302676672055 -0.9115784551863269 -0.3227454376298957 -0.0954498908698937
Ni 1.7009342877480482 2.0157489873551944 1.5488059389202458 -0.34732955472716315 1.8589772625053729 -0.0967963775954591
Ni 5.922357813959155 2.806044036116127 6.937146938057408 -1.010224484396015 1.2855942609554247 -1.2617614202018852
Ni 6.99168180435366 7.716727549452999 5.8296092009887435 2.391322115167088 -0.8917871314920126 -0.04432864671404624
Ni 3.9942126583323354 6.787556730677189 0.6548895531030878 -0.4916558595827855 -0.584981762131141 -0.5635181929407262
Ni 2.213394487678975 9.339564465234405 3.455385223122639 -0.17393127220624885 0.5237547969998593 1.6016676858817835
Ni 8.643760109022422 2.1576794133791983 11.674716615783788 1.6703009707794652 -0.43480259803916727 -0.26266004230222506
Ni 3.992546482327358 8.062792305686836 2.8225234424586905 1.357794180158442 -0.3940174457020053 -1.2917137435896013
Ni 7.173905920098037 1.9101874809065058 8.618709152787586 1.3950049848807846 -0.14050615977858383 -0.168856943007135
Ni 7.227251321857402 7.332229666704348 10.053171912059575 -0.7604927201196838 1.1988735224284126 0.5064235048102633
Ni 3.085406212950695 5.108440092060985 10.447495604970912 1.9468827653691052 2.771206463901821 -0.2846990243801355
Ni 0.48866905788651965 1.7454767262811148 3.6307752402866003 0.22462108525163252 -0.36723092163678045 0.2948965337384276
Ni 3.9469950816579438 1.2968958630743548 2.284049606823384 1.0141037648457631 -0.6041873885253143 -0.4771440391198557
Ni -0.10474415455291333 6.215530738568315 10.68615495331055 0.4873780581430381 0.7783613728699885 -0.5979509206972993
Ni 9.153554427345384 4.283035012261832 6.84147233489159 -0.9781574286581411 1.623726465454036 0.09048791887892803
Ni 4.980459261811988 4.720776474902876 1.2746200155411411 0.9650728275600411 0.01842838190851665 0.05219699371852946
Ni 6.606369346669243 2.4609882420186384 10.78216927125072 -1.2505336698068656 1.7197641105065997 1.012771419187585
P 1.2536863653452703 3.1281899101451742 13.242394774920411 1.6254311068499683 0.1861617528341697 -1.01043402930366
Ni 4.102625177056208 3.2214957664239163 11.1011133103902 1.1930422604586164 -0.9813759355954389 0.33463087621357207
P 6.080801895499158 3.6664017858863645 4.208389401585502 0.6322368384633628 0.7688220659209856 0.9692848087588597
Ni 1.225416912460818 5.24005873992085 8.902713481102687 1.2130552132454335 0.2834067879312732 0.39232206027745337
P 2.756475299968045 2.207831311129022 4.356142187093567 -0.946935494529382 -2.487272599822484 0.2483819351166561
P 6.549367614232287 4.08472304153606 8.630780597943646 0.14664903945152807 -0.2436793874346642 0.22832501646578096
P 6.8516767372687415 8.384151374380199 11.986805266316122 -0.18004509841347058 0.4763901916729667 0.15853293537330762
Ni 5.377333129664278 6.984720891266199 7.072436727048241 0.5221249747059201 -1.5320365558472067 1.1518459887259647
