# total energy = -381174.1433309768 ev
CRYSTAL
PRIMVEC
9.16222427675272 0.00000000000000 0.00000000000000

0.00000000000000 9.16222427675272 0.00000000000000

0.00000000000000 0.00000000000000 13.40984136085066

PRIMCOORD
 96 1
Ni 5.382211324055232 5.238355237851666 5.482385588936325 -2.5727666650312466 -0.4454217683159103 1.6609652952008362
Ni 2.900668640926478 1.9472200772297976 0.24274397477085857 0.5767246643286712 0.38065722234501537 1.717699257557771
Ni 5.886353562591946 3.0006743208775584 11.024660058037583 -0.04326858088064806 0.5150757811686226 -0.2946041993089894
Ni 3.3727156071893836 4.845992137693622 4.038186293969673 -0.7200405256419083 0.7933853570826466 1.337171104591452
Ni 3.5908773337413917 2.1330483136721075 11.392411590858517 -0.3457069315220756 0.5551906469116374 -0.4338397199052657
Ni 1.2264278791765235 6.528185710272485 11.178725610953881 0.9474299176672974 -0.5789905775447125 -1.159168490529307
Ni 1.6293275374604268 7.020013919138631 0.01066757793559714 0.39890408437034525 -0.5150734671757774 0.6965828088396003
Ni 1.2447706525399742 1.0545720350315475 11.073740262010276 -0.7033967464376403 0.12235057191547963 -3.2177649169253355
Ni 0.7767422379240269 0.902860257578321 -0.1291470510598669 0.38607505092647704 0.7068104001048795 2.467893938185556
Ni 7.5508548797438255 5.301107313159495 5.50719414409927 1.832897277588869 -0.4157013584333421 1.1515729375702362
Ni 1.2374591974230742 3.0550887719292734 12.030143643094426 -0.8796695222928721 1.1841542139403671 0.20911167676212375
Ni 4.836848237685269 0.5779402916502256 12.880032499973051 -0.20852829345482796 0.7825507283609877 0.24787877022799246
Ni 7.065403579099937 6.870788769403108 2.145104884835426 -1.0664635093944022 0.8693403724527222 -1.2341377449473454
Ni 0.35117065522061386 1.4957514670979166 8.727325730067095 1.019251884705606 0.8341635674412732 0.3239852235742678
Ni 7.129465852505155 0.21535625342319303 5.61795902423052 0.9927037019034323 -0.8390085542384002 2.1079304967444665
Ni 7.309063776316522 0.6322768637940537 10.274620207071818 0.11749118694064925 -1.1990794677916317 0.3066451896339235
Ni 0.907558646280008 9.12149836955545 4.461400436320231 -0.8400655347480048 -0.27916960992147405 0.6829029973596626
Ni 4.147803147376428 3.5233975506136126 2.4552617584955256 -0.4490637359438718 -1.4403487031229063 -2.2745487802290696
Ni 4.162536004303715 7.894758974747379 5.523017305736972 0.9033460399742054 -0.6374114406857667 -0.5879213043754391
Ni 2.7461110765568244 4.690802379836415 10.575711975853896 -0.8906962124206789 -0.2434896400213613 -0.07242823316373978
Ni 0.04661923048347107 8.225368682063438 1.2749363603430834 -1.3453999202591473 -0.4787898022533948 -0.6219074315128967
Ni 8.25504512708053 3.889813231108675 8.08854826802061 0.062410443916421546 -0.4159857224429803 -0.5815241425998435
Ni 8.387228539325534 8.71858954904709 8.10327196272344 -2.124061083757742 1.0700152313014024 0.2261408643302686
Ni 8.750822254687758 7.463612178461719 6.163873676512812 0.28050401246218143 -0.16401092776874332 -0.6210985624583562
P 2.1362276055587794 2.700190007576997 9.837097418786344 -0.7963233566650479 -0.21626911374251143 1.2329437246392443
Ni 3.302074856623847 8.899543482078133 3.676630257326746 -1.4480689545852996 -1.0637530524417744 -1.2468582778378074
P 7.969541050767601 1.668706778177765 7.230010271254322 -0.7498977182126568 -0.3188741275999476 -0.21231295730824082
Ni 0.8299271184535763 4.607325352806247 4.232293516431571 0.5547669291106574 -0.629086208649523 -0.09800068231620541
P 4.603449731860823 6.761208564894182 2.8672118620983182 -0.8099782284443212 0.490131195408143 0.5177060197026181
P 5.7453102792967625 7.396205693129598 0.2571579862870326 0.8504666754766708 -0.049443599343108394 -0.7521183800130595
P 3.265737474426322 0.21824143790478673 6.827325925245165 -0.3473598937444663 -0.44383694032729365 -0.31704992990701525
Ni 5.807301889974639 4.989701628305871 3.123004676941218 0.2825634660943714 -0.020158991446378186 -0.025348248956801503
Ni 1.8566331640207887 6.952928111662515 4.8296210750333755 0.01114290399069694 -0.5126316905035042 0.11040908328288726
Ni 3.3483074412352214 2.030605482015394 4.217247311427845 -2.0007949420065283 0.3665866031845622 0.2562554243274619
Ni 0.17027261175876007 8.295267292447935 12.033763637977492 -0.5796917173767951 1.0234093585174053 -0.5737378137862055
Ni 3.128688920994507 8.835087233021254 9.77472832446083 0.31286648795328703 -0.4889145493922225 0.08629059296812881
Ni 6.650235702267752 2.3692962713027628 13.287503192038688 1.8652229863047685 -0.30123815968573925 -0.12893311022900375
Ni 7.804144574864999 8.818512768978055 3.114288652815019 1.3337001153237158 -0.5958888959619479 1.5845842480369356
Ni 1.5582744867943135 1.4454875037253443 6.301351938271672 -0.520423418633781 0.5914545143396782 -0.21576234930942195
Ni 3.7682579992341 7.503302934810604 7.67447894190085 0.4265179894328719 -0.7647473816309797 2.1425475725977035
Ni 6.24746431512625 2.85330910270686 2.0807915664800793 0.5067402647197337 -0.4883339942984042 0.20244892002996748
Ni 3.9216886099955106 3.6029989566983573 6.785299717882123 2.329973279745962 -1.8058330743822253 0.3199668464434941
Ni 3.025577246952413 5.589836492481382 6.527803645512616 -0.4771334975968944 1.501467167700782 -0.4217658194598672
Ni 2.0266840499476833 6.2685374313779665 8.712508580674802 -0.6296323109609802 -0.033340780243974834 0.3373678155287609
Ni 5.710548799705888 5.836712630482468 11.7590902271955 1.7875358187349346 -1.9285538851529302 -0.024596458392441508
Ni 6.382579639197582 3.336048384911397 6.671262091174737 -0.45854339329953286 0.35220050966621924 -0.2278190233636399
Ni 6.252640971944606 6.973002545448389 4.420594637254896 0.6749230644779796 1.7629563296233572 -0.26615725682220615
Ni 1.931506862285583 3.6432852576369648 2.1492489589574486 -0.4091262763189857 -0.9099848854469619 0.8581894980422252
Ni 6.385566524370652 2.194984951003239 8.709048008497291 -0.6014563627473964 -0.0861466111910968 0.3194973630062433
Ni 5.549192864788941 0.03157027681240837 7.805747964145021 -0.1035774050730345 1.0365222417502793 0.23873926982056948
Ni 6.959112613171171 1.5736212127602374 3.86330874819869 1.830909300624563 2.9208330979244344 -0.2605687069908351
Ni 3.9422669661265344 6.7276381744827525 12.564271093612442 -3.2979720227035454 1.1739356215361525 -0.2614315692117627
Ni 5.316005090127013 3.0836657500114923 4.478752773219851 0.7299822102356525 0.38236752016790276 0.5658360424406255
Ni 5.087050263164343 8.132940161738519 11.152536308565226 0.8081468316625373 0.524458250824787 0.10060238160511062
Ni 7.6318122950482445 7.031310941894443 11.215964556038003 -0.5771054447068578 0.09875195865993315 -3.368344401779522
Ni 1.3328104673498622 0.6735517687516002 2.214045126541694 1.6755735320323142 0.931635373837202 -0.4176805936469
P 7.888125524240318 4.436550651147229 3.581889191548812 0.5776723729539213 -0.3483469402480839 -1.1147899644139316
Ni 2.8771125618468423 4.535401890816693 12.894327402571282 -0.0069491776243235165 -0.21352368978689032 1.0178017825226406
P 4.099802253444801 1.2290116264734732 2.265659601799267 -0.20124358686795663 0.28316741822695746 -0.951080112825375
Ni 3.8800737865105988 8.126480793496146 1.1024208360371839 -0.9687844720836734 0.06495275072230103 1.0690271563565201
P 0.9537051059814842 8.43748334047365 9.745762868061624 -1.095151621357714 -0.816516029562839 1.193429468594706
P 1.3614149321054532 7.660306813110349 2.817702866021025 0.4905014342633681 -0.9340300993216235 0.12278740234258209
P 2.142641162678867 3.5157562554162514 5.851826635947178 -2.2868553655105646 0.74040649089277 -1.9051375631115188
Ni 7.242866704612761 4.848090287094336 1.2068665299602563 0.35747949867697143 -1.9328070040023293 -0.8458307193665562
Ni 0.6553390989754428 5.184041571268982 6.5736789033701575 -0.4978825572187877 0.803305701520152 0.01792495990953687
Ni 0.303675516079028 4.8517826635506145 9.79228223029851 -0.08074369500797063 -0.20346861954373344 1.0605036922665412
Ni 7.116547116020406 9.109605802209916 13.069150891217966 0.23490652633804057 -1.6947629604765717 -0.3697369758880858
Ni 3.4699359709054542 1.6768703201691906 8.424638818007006 0.6470268522883438 0.1500467522791674 0.25352825520428596
Ni 6.287713967167028 7.1115720281401105 6.952037543445268 0.5124226598164917 -0.37368387635097583 -0.3695287165320217
Ni 6.627998983509962 5.189676339310201 9.589900602929253 0.30130192304413916 -0.3274289591484942 -0.5650143178702786
Ni 5.571200527935298 9.13337261245207 3.963332752598685 -1.9769001376668018 -0.6476943106690135 0.001369626654016996
Ni 0.29830920121440613 5.471469714717936 1.7801698198126588 -0.12023558245500582 0.14511409086424043 -0.3863840975264636
Ni 8.059953881711921 6.667588955389817 13.249567001673368 0.16170850488781183 -0.8043763088765115 2.2933044635700184
Ni 8.483221164964332 2.951409039970829 5.593620491182233 0.5360498123171283 0.21657918878376248 -0.111240320934931
Ni 2.6438240027158844 5.740802464863787 1.8055409355572796 1.271642683871339 1.653817114191829 0.4991462544225597
Ni 1.4576641000290533 8.540485067822257 7.730237491280447 1.051737001817505 -0.6659499144450918 -1.3666860833314334
Ni 8.182782662786057 2.9014107811075167 10.360832158102482 0.5342322994924154 -0.6433445183407501 0.15257106136291787
Ni 6.395837377987248 7.698705695810759 9.245240624407975 0.45791630123849525 -1.237977944629042 0.43628226790848734
Ni 0.29537454072074315 2.0796875184329786 3.6641054964936606 -0.34197908904852714 1.029287414564737 -0.3676775222558958
Ni 1.6641439903980453 3.695564910390136 8.12452649101941 0.3536770942117457 0.4269519916464969 -1.047860549581234
Ni 5.9936065620887256 0.16322319626133808 1.6779468815429197 -1.239089432525666 0.4600462030973045 0.11464651840300255
Ni 4.309177406742289 6.244788945584728 9.8943979705421 0.028669085799918368 0.4972300112364534 -0.9449166643271404
Ni 4.360595810396477 3.8674024300861976 9.071490032245235 0.8775162233952951 -0.01665946293355195 0.4724983128177282
Ni 4.820328746988814 5.234763645864418 0.6219849370612044 1.228628642203658 -0.34947745430810134 1.6981226209774238
Ni 8.557563454210605 6.484326141795543 8.410786450850063 -0.3346918113584945 -0.9338933166334433 -0.13297077063348714
Ni 7.881702804895773 4.601864667029715 11.909655810369124 0.048687952124006464 0.12934474384512562 0.3955840188581768
Ni 4.771814768487579 1.4433618676512583 6.131583248858061 0.9714293659056882 0.28816744254471016 -1.0531642211823347
Ni 0.0869403478750161 3.000720131999845 1.1298901011825193 0.11205510352674251 1.134121060642376 -1.1560739107643832
P 4.914928714510106 3.3469880809133747 12.940175173755451 -2.242865847303492 0.7810762006979903 -0.1043587633237493
Ni 2.626040125044327 8.967270645266257 12.219061381623726 1.51321633781691 -1.7033884973620534 1.1510522891800758
P 8.288652166389788 1.3496597981267782 12.116985038945304 0.23843562253722161 2.0151486396250395 -1.596419807219283
Ni 8.664046826852973 6.637857537025983 3.8330825697141626 0.8316127759949613 0.6833722236865972 0.24390050230653482
P 0.6654322054375694 5.010884691251074 12.885557321320785 -0.474017577675732 0.3673664187733802 0.6778932028498971
P 5.01606134806943 5.476444802598233 7.717819928473512 0.05940045344550414 0.1477327594340101 0.5654861153003744
P 5.108434895047606 0.9746041399685124 10.381322556878716 0.3136645583745501 -0.1861077596677827 -1.3889101848369565
Ni 8.003413794586121 1.291708728434558 1.5207295234133207 0.6532419799601201 -0.6446830346465156 0.2484852934637398
