# total energy = -340893.7658872375 ev
CRYSTAL
PRIMVEC
9.05484231033956 0.00000000000000 0.00000000000000

0.00000000000000 9.05484231033956 0.00000000000000

0.00000000000000 0.00000000000000 13.25267699867283

PRIMCOORD
 96 1
Ni 6.565041317306679 1.9249145807535444 11.472060434091482 -0.16476220411247108 -0.027948148473493802 0.39049272037819843
Ni 4.635463492804367 0.28469782199395327 6.057546385775718 -0.6210939344726659 -0.43275805680531276 -0.6327549157503619
Ni 2.616152181796637 1.3660768828065375 4.733550976751752 -0.014234398431827099 0.5974120174746936 1.1951436230723353
Ni 3.4719072113278155 4.464299810119008 4.861916947634096 -0.11930715710346548 -0.8002298908083058 0.2363802826700897
Ni 4.696339197120807 4.6148365622030205 2.5072876246263713 0.6832004739954234 0.09509636418521687 -0.14281835285152822
Ni 7.25390654968535 6.041327352372237 2.5588006220763533 -0.26245435404932216 -0.5301103069042419 -0.07745268296152467
Ni 5.21024676791949 4.488412854979142 11.644994338432925 -0.07685824391063537 -0.07647823486339732 -0.9448282183783921
Ni 5.6084696743798075 7.969465456959881 12.375561646704703 0.09964593122911225 -0.026592662886863877 0.41913352404334264
Ni 1.5115791426103267 6.7071389564317565 0.4066176506923227 0.2593502612027017 -0.4838291644495152 0.026749757290018446
Ni 2.6806769875320158 1.4021785387800085 0.4256789990719952 0.020061803746881577 1.458492463911469 0.5705817846557271
Ni 0.6502571960757649 8.887264265455247 4.866793885659508 -0.9567360255595715 -0.0026670053092018586 -0.5780981476374302
Ni 8.459730834694422 2.480872838871215 1.473565103957749 0.23560946594233617 0.21177919629195785 0.2399947394942254
Ni 6.810536199863175 0.415159083368464 4.792287021849097 0.39140854732424846 0.9685119351485771 0.7624840395180997
Ni 0.3826875136452474 7.379162182261479 2.6039390105959805 2.2329236484891157 -1.2118074568812613 -0.1350875598661738
Ni 7.75441295398272 3.618677149043891 3.838187350851184 -0.3467785673196995 1.430620162981233 -0.2567411057146288
Ni 7.677700330604931 3.8999386584113247 12.560409912453196 0.42372165763465736 -1.1665516703672554 1.2733005311897363
Ni 7.782799884375706 8.739308143406962 7.04626271862128 0.6649286722694291 0.14742859793002996 -0.790615250536677
Ni 6.983809660788268 0.6735815641776121 0.42225445774037573 -0.9468041111578405 -0.1310002771706776 -0.5666968477790241
Ni 1.8383865083977655 6.59599982289316 9.152497798590266 0.7944271680835996 0.2453022677500679 0.1988771435183091
Ni 9.097128343834264 4.908829179746703 1.319067763882065 -0.5857132409805268 -0.13831969365022628 -0.07886781814149643
Ni 6.293948395764229 2.1421493007082835 6.855423769253013 2.0243711866645717 -0.6153133232351468 -0.454664627070417
Ni 3.0512192412933365 4.448625878217809 0.2638698738950874 0.7606629271489609 -0.6953119125469768 1.2163184573777375
Ni 6.038882544969971 5.743251000982546 4.678645129917958 -0.42563507260728634 -2.057863661995062 -0.03206756995850606
Ni 5.345127697786766 2.765412201126132 9.34292475263704 0.9125279635837896 1.3272875269291529 0.25494081928109646
P 0.13184303029890296 5.51065926860468 12.361460540898964 0.5635228209264166 0.9328062542168516 0.8621027170537022
P 4.100802223613107 6.094080863207813 12.624844169766266 0.20055478833104814 0.9671086270431473 -0.7706902294779759
P 2.3204029248602156 8.505385349221195 1.6039050304463696 -1.5118351411986672 0.11031446668655194 -0.6100942409280524
P 6.1019314114217575 7.586237369233466 5.717231006348644 2.227267735754919 0.4828040656191105 1.3777557108820337
P 4.7683523573809055 1.0842901925897277 12.658386927325365 0.3391907276701126 -1.4146358717378347 0.32201961520746475
P 4.038423415486386 6.310799457155407 8.141264789569828 -0.20603432338838065 -0.14227173631943887 0.5381709724251893
P 4.6439026057633015 0.9012049046235385 3.9094869895435105 0.3876336536628485 1.2295123303601923 -0.8462456954167878
P 0.284869863996335 5.395780485224838 3.6408280095926497 -0.5612011147717754 0.29491890233593077 -0.020054090437397722
Ni 1.2822743179621745 1.144088370680724 2.5174516850302395 -0.5552595524763598 -0.24955847192326053 0.7069294421812471
Ni 1.837879437232851 6.533458027606287 4.744246556394557 -0.44842687369082124 -0.40857348913930924 0.4252928587765191
Ni 5.987306163624374 5.782503742052272 9.164729984959608 -0.2648269680465568 -0.26542963462756225 0.71892003888422
Ni 8.90739317973391 2.2805616190454994 10.34592781555407 -0.5983507272388792 0.726098301800214 -0.08795461093411304
Ni 2.442969269293851 5.126706793499816 7.144517717149932 -0.21645011940506595 -0.17748222278230077 -0.2797247110939957
Ni 0.5227351364893127 0.07555179260382448 9.116410630364365 0.9398369358113877 -0.3148683488746642 0.7249217649936095
Ni 1.6032865847220186 1.0445213255128567 11.538283928229324 0.393085163695723 0.29830247409618305 -1.0996669927295644
Ni 3.7986240286929482 6.964051995041061 1.346630703632064 1.402955350076113 -0.9874306264299509 0.8592454501105653
Ni 5.69988736154012 8.004589189972446 7.943031656036039 -0.6772964498061625 -0.439500774845785 0.5917609898365034
Ni 5.332740673615281 2.9229936204655647 4.690917157593113 0.09398539050922525 0.0002946484222833635 0.011184812972225898
Ni 0.7864139532133341 7.349000502791293 6.8900132665739715 -0.20712190002560457 0.21082557412943692 0.1383474615643682
Ni 5.261886533160701 4.807813359821936 6.976924358756106 -0.5233819870414729 -0.42649150707031064 -0.24273733523636903
Ni 8.181991658954699 7.225066877180835 9.119458490259191 -0.16304085054599018 0.5280932764742131 1.2792423505954678
Ni 4.815863114564954 0.6119669847351538 10.36179099365789 -0.687328637231184 -1.5502520504139687 0.3130302672246609
Ni 8.12450246563251 6.927289335584754 4.716097768352237 0.5079497116468026 0.8382922448976661 0.6220904940579802
Ni 7.378745659518871 6.247623822912391 7.168134556655828 -0.21357819717390958 -0.5600191786485323 -1.9592415440447741
Ni 2.1772368143519256 5.299699554315758 2.4443501327340202 0.28051918197083303 0.08382721902930079 0.7097270595310422
Ni 2.3551372996568634 5.391950286961288 11.468509124968632 0.7632355729721436 0.5304638335889186 -0.3519256587382778
Ni 1.1723666429669422 3.320464975020741 3.8274392531234414 0.17681296462941806 -0.11739965566810749 0.30852312338292676
Ni 3.429186465683763 2.643253324592875 2.8711790967693034 0.2761259379991438 -0.16816171671232327 -0.6269714762993654
Ni 0.9523973606585564 3.2817193051159297 8.356607952982591 0.19394371077243372 0.38438789303204124 -0.9784934718413212
Ni 4.041248526262338 2.7267299151169353 7.076346526448284 -1.4321075461600368 0.7444603492471694 -0.5839291524969104
Ni 4.108326797506751 6.796075616820879 5.804315046017383 -1.0431240633375134 0.6356288948640472 1.2230151526716229
Ni 0.8297422787710608 7.37054197245793 11.332735387657419 -0.3883530483273763 0.45200636351196344 -0.10164959192270236
P 0.20106277173085674 5.624496745128001 8.070164357406576 0.573091181341142 -1.712863012511392 -0.012632086941713729
P 8.570335732541412 1.56707627064178 7.878451615763054 0.152883193286698 0.9348176282199255 -0.03524288236269414
P 2.0544712633892166 3.367785580517947 10.530020001976304 -0.7673657930904332 -0.30482613414731374 -0.9738793701080777
P 3.859363910375929 6.224986717335847 3.703685818873372 0.18002247270565125 -0.20083349591373154 -0.8332230579048746
P 7.012930033401933 3.8550447506319245 10.521472230910602 -0.018695005306341998 0.30192490134011873 -2.115753335222995
P 6.376229747113848 7.793538927261218 10.3167051232232 0.4874855302551797 0.17246008697736104 -0.4964764208998805
P 2.4385867256542326 8.540789782342909 6.029145873119387 0.07184690673897304 -0.8964585688257528 -1.0116617310631737
P 6.687480893949086 3.8034140402329446 1.8306056824689962 -0.30546685305510624 0.8939342597420025 -0.7440836826340411
Ni 4.938347965418515 2.8003729469785457 0.66366470096664 0.7088058332683534 0.5662898421485925 0.5204740693660584
Ni 1.6139622437119163 1.08447128943434 7.220522251865287 0.002312707293576662 1.3236722987740688 -0.7195029079708835
Ni 6.956952998732256 0.9193381316745727 9.07571183099041 -0.16375021790818897 -0.6050016568964935 0.6784753006056121
Ni 3.0447903033095978 2.015046480317109 9.234226804563818 -0.6825695252796438 -1.58424923329502 -0.10830103580094896
Ni 6.374916794990408 1.7552721115629295 2.6664916716935307 -1.4926994488104808 0.38146249185513015 -0.3115691092981021
Ni 4.123466493716343 7.072927418022002 10.434998487608206 0.5204604425193037 -0.6492390294483141 -0.238012418956874
Ni 7.819209404985017 7.146027159349775 0.2507303923342387 1.406070755776643 0.6053726670826671 -0.2116465273688355
Ni 7.4267634878678335 3.961710792108596 8.074286121589953 1.0588895537018859 -0.34621292462421666 1.0651764151518621
Ni 3.141106660116674 8.349913708121496 12.557627359435726 0.17169029869087205 -0.4719853777370517 -0.5477879266896631
Ni 0.42630287770168473 4.817203231215086 10.277040386831981 -1.5812166171162831 0.005945676060473632 -0.8735785789037859
Ni 8.883234860662624 2.1094975396246776 5.682244001453762 -0.21710626493182608 0.17833042971520902 0.6182801191729544
Ni 3.744023330042326 2.70171138603374 11.728963512374332 -0.6093239384209312 0.18146126203470683 -0.6500962352422869
Ni 1.1223929686961651 3.422956734229098 12.486605704399878 -0.49213408477078474 -0.43962264513562993 0.7731008958019976
Ni 3.155114501047439 8.502623622340858 8.15046269830769 0.8519070074676233 -0.2790899057234742 0.20978067780469034
Ni 5.615604890057535 7.882828726497335 3.5580260048147703 -0.7538320202700565 -0.28782214339014944 -1.1472275161173469
Ni 3.0754137797335455 8.278190302812778 3.7293825556396407 0.053350133486366184 0.2899322477546168 -0.5480666342723465
Ni 3.601916636075018 4.4174500564177945 9.319918209497489 0.14934586955740087 0.6679060097301981 0.08804022866938385
Ni 7.322152895577512 5.941316619935068 11.309489796682978 -0.3105373255994781 0.8631219023468361 -0.19385937858874355
Ni 0.6548434736655727 8.959558125824497 0.18849012329364467 -0.820289123452026 -0.5858950179740297 0.7309422601560767
Ni 4.3496655074793935 0.268909799080649 1.734523846075693 1.5715865502256867 0.35833233359557 -0.05741556180499144
Ni 6.12161663843112 5.42190370506017 0.37165418838724024 -0.9173906909927299 0.6431038630848537 0.9629107869117159
Ni 8.194514505759642 0.06483267037121974 11.1762342109961 -0.6208990448530404 -0.7829721321691225 0.5862601146229323
Ni 0.3682550006138665 4.601426340859476 5.824949220492513 -0.730799049709993 0.4735619781955521 0.6357183692540599
Ni 7.902830872984769 8.86588578294876 2.4598031264847915 -1.070210120921028 0.2617308456197363 -0.02364000801644316
P 8.285923138077724 1.5683348937118358 3.629629886206045 2.043949108796499 -1.1479039733590812 0.34380354385177564
P 1.6299530950911865 3.2718133077156346 1.6335379071302878 0.7927713776477314 -0.8763859664455937 -0.7570559265239929
P 4.890683275916545 1.030241839315173 8.05202207551331 -0.15902350185648098 -0.17631005685107054 1.8379875476275827
P 8.75569740784438 1.672882102106543 12.716871247808701 -0.941182651206005 0.08259000418809001 -1.603406008729129
P 6.055253699722925 7.636881101829308 1.3822805229782271 0.6694561278261374 0.14800041127309993 0.07120747338276125
P 2.123541599924365 3.078193616298345 6.126447396761154 -1.1379800293771498 0.4881661012619722 -0.2748398721978686
P 7.071197943155955 4.021210160405982 5.904743206681382 -0.39539504277582227 0.49307510852781533 -0.23184125714915554
P 2.5360258828979045 8.518025908975137 10.292280591790332 -1.3094235021645384 0.719260195832458 0.33203611890320234
