# total energy = -381175.17017594876 ev
CRYSTAL
PRIMVEC
9.11684864234251 0.00000000000000 0.00000000000000

0.00000000000000 9.11684864234251 0.00000000000000

0.00000000000000 0.00000000000000 13.34342953325340

PRIMCOORD
 96 1
Ni 7.47608933286211 7.348526387670584 7.515406654005118 -1.2725775369807826 -0.23929462810340726 0.7438525404598415
Ni 1.743041161250898 8.677370884688964 4.055068488495305 1.2318746599447816 -0.28065185089395533 -1.6222755919401222
Ni 0.37323466360748014 1.2673878208079692 4.647796751534824 -1.6064458239967172 1.0289007206492795 0.3837286621814875
Ni 3.0318171088041015 5.094604383102253 10.749240363532557 0.035986188286621895 -0.34865084464174795 -0.24216526478298295
Ni 8.920170795805367 3.157894007678716 11.209441557334182 -0.6578134013808864 0.028950364485763047 -0.6792240058461786
Ni 0.7797002402526325 3.6346322531014756 8.97424373635893 -1.0440020950670923 -0.23480008266716337 0.5840628498612973
Ni 4.53737348165491 9.131617864689519 0.36007084595724825 -0.5064589860338891 -0.2666753341092052 -0.7711774535270397
Ni 3.55157776262872 7.231329299303155 10.044479706840518 1.827030534395447 1.0052463144551333 0.010357689085240226
Ni 8.748828743780672 7.166171182573321 13.05398332876953 1.0273102362337083 -1.1663886624268298 -0.2325053730957157
Ni 0.3465022402305082 3.9215668281452776 0.1496503342220793 -2.3832925599943926 1.2849723111007096 0.6356525490131311
Ni 8.479617322356962 0.26481527704325347 6.996533981231218 0.3794076662086304 0.3260683313555417 0.7503031811811917
Ni 1.8024830139273378 5.301875935341343 3.033535634759548 -0.977581244439697 -0.5732194793888902 -1.7160190416418706
Ni 6.263603174142717 3.311412620749049 12.261423773608904 -1.0916613488162683 -1.0427162863761332 -0.49020807139266537
Ni 8.091941570614592 8.201863413823157 3.4557751828005245 -0.5401723191259343 -1.9530014766723334 1.4005156302863688
Ni 7.6723386151800606 1.2719462450929724 11.562708499203636 -0.7462678347695535 -1.1803579801227284 0.7313425809182889
Ni 4.032482407847972 -0.11041324134648699 4.973736851500541 0.38859987423085973 -0.9186464177767019 1.298931601494279
Ni 5.094978173893624 6.671965055290431 5.8304516700483 -0.007684256018135153 -0.994918450166564 -0.6628126543676908
Ni 6.5236430459050005 2.2079001529869395 9.936398555358238 1.3782151670169553 -0.9575333246498864 -1.7206182309767788
Ni 7.548185371353718 3.3974483207041963 8.063487886227604 1.1069108187761711 -1.5176869719937538 0.621737995814568
Ni 4.70091151130368 2.390930004878382 0.7394757926769085 0.6497049133411392 0.1963111825633458 -0.10713195519351228
Ni 7.588436257790295 5.091304083919912 12.557741409200956 0.45639626504954306 0.7205550033844816 0.8628629922584946
Ni 6.902995114902955 4.616042767965493 10.297177780449378 0.6714345917087469 -0.08368863656890747 -1.4492750590782588
Ni 4.703983889271773 3.2840256076447507 10.171388973989574 -1.4813729680540682 1.9938365084108243 1.124264222452954
Ni 5.796072945775665 5.665547024798887 3.5536618742118233 -0.712903914597127 -0.17442235291005445 -0.3988984279433904
P 2.8899407113576667 9.035781552521614 11.347772412371741 0.48711040630394825 0.4505506049020434 0.11227930372240663
Ni 7.692149527122684 6.975410243094514 10.76607918284136 -0.38657410205008264 -1.53971361277649 -0.05679978259786347
P 5.555369909830363 6.972000541729332 0.10503247732046939 -0.5495324201845955 -0.05950869688859429 0.9532159282214552
Ni 5.91040734369211 0.7637466669399788 7.831498734145514 1.829228313377714 2.1733709857364634 -2.469915082380643
P 7.64105870773637 2.896395440145231 3.823439451931731 -0.009875607242499121 -0.24635359183271768 -0.10491155050342577
P 4.051655140390695 3.902002071114045 12.532656400360583 0.30842156480805594 -0.15253275192581472 -0.28005715473274995
P 6.192227366688139 6.654597458764569 9.178971687846987 -0.5238368151907044 -1.5688676086326272 -0.12173376426708711
Ni 3.5815539607269 6.980524795142288 12.311822624188755 0.35400928074018384 0.8675889369792541 1.3215267131859756
Ni 1.3606805322248416 7.448210009935031 11.35868801516461 0.41630376790403145 0.3654051812819513 -0.678832941055347
Ni 8.343539240601052 1.0075758702599351 2.5612847022029452 0.8638328123709317 2.7200595087143604 -1.1391956469518056
Ni 4.848923547837729 7.928221203994423 7.817034853889199 -0.589106582932792 -1.4626949320285907 -0.08542927340909802
Ni 5.325133016043428 3.0881227655724595 2.9096814235663007 0.667197670809264 0.5101811720804826 0.2574281044793244
Ni 6.123413393681734 8.769469288943167 9.589989306983146 1.2193451600192033 -0.9962428254049424 3.303679357500968
Ni 0.6601874723484225 6.911546718861621 7.408072172420722 0.8888630158666821 0.7330189401794472 -1.2737504742429613
Ni 1.8799397593781098 3.7268856437813676 12.111563751869713 1.7366516302905572 -0.42313184656945835 0.46009453983673665
Ni 4.098579559980516 5.251496230143489 8.554566022766126 -0.12856107160156569 0.4476411445647323 0.07827466464218777
Ni 2.6900355727631426 3.479454373591402 1.360762583861972 0.904294519930404 0.8949660434406265 -0.8306516976332727
Ni 3.4221640971774834 7.3264544972826 1.423717158292435 0.8097679122057281 -0.9542765082754856 0.9141636994149998
Ni 6.429210728416878 8.797011288473156 5.8566844901236355 0.030562960388521552 -0.3636288061078189 -1.0596855672406202
Ni 3.284900825107471 6.944686463413594 3.806987187002298 1.5009786581001376 -0.08526112326234994 0.5666199717945016
Ni 0.024073950333958132 8.295110540997179 9.758330092458593 -0.1789078994852338 1.4624964428645393 -2.255421572481316
Ni 7.052702885271026 6.549616947480949 1.7753166285584334 0.7184027329281693 -0.24633148034553062 -1.3075764216534707
Ni 2.7465144496543306 3.096610551591135 8.12838981951262 2.026286401409414 -1.540119075745025 0.25109650583434173
Ni 2.9702783809565605 7.11730487423809 6.378293129153394 -0.2117897378149191 -1.243654426188529 -0.682917909757998
Ni 0.9116766518368978 7.64122281101063 2.0851910179740853 -0.03898178057983609 -0.3465188859004097 -0.38769381747682263
Ni 6.336547079551337 8.681318480119776 1.7635613640122676 -0.5846611455669286 0.6354998254853508 0.4615700959409987
Ni 4.10370322887686 1.1797749060502105 9.135112352746402 -1.2955164051651429 -1.1203646302882317 -0.02257120043229661
Ni 1.896678293352641 8.38612404027155 0.01649329074799805 -0.2687874953562016 1.9813216637732651 0.6584975719321046
Ni 4.160966154745068 0.7203085302433276 2.8168117339230765 -1.2286826353700453 0.09014724771005765 -1.6612972246189581
Ni 1.1629634372871194 6.251240727481789 4.992284168231361 -0.2193163852092675 0.3334165441904967 0.8150672129314542
Ni 0.6287325214121874 3.1622792118408887 2.2095648895358226 -2.459087909858152 0.5513756440409214 2.3388682682427464
Ni 8.607891381736948 5.633948027655245 8.803260888167893 -0.5664536214199664 -0.5711471702408937 1.1002020392974277
P 5.893796445597559 7.748920143168113 3.959209384205976 -0.39922727203771885 1.1442794892326162 -0.19266175873621658
Ni 4.898236581752892 0.8887787749684706 11.376288091329007 0.15167426058026137 0.38606168119003836 0.3333160140568905
P 6.441664343563506 1.3347886822860244 0.029293346140286627 0.29476103660182784 -0.4332658496796667 0.32184966528850373
Ni 4.514462841198485 2.177231074397439 4.879211542157003 2.0744467631647243 -0.8542595668601997 0.6437407253379042
P 4.007101101429075 4.627885554257931 6.425034300086958 1.5516386463488503 0.43097885341770287 1.0722176382693598
P 3.7908221028028204 5.134955554873101 2.5835817787506095 1.5478681235628244 0.703038334656957 -2.497116582496099
P 3.8499357489307395 1.1152367350231374 6.8777104470789014 0.4774669696769131 -0.5303134240539835 0.644992081246502
Ni 0.5365383902480005 2.3160624444214917 6.737337417961659 -1.3664801379682143 1.3162600654703978 1.2918487265055687
Ni 6.28358730620817 1.007347949045685 3.696490070648967 0.5353196190193232 -0.10145495941339301 1.2873955758302216
Ni 1.9172914879694247 4.6367197805222675 6.823696766041042 -0.6475829819021298 1.5186768467108491 -0.6143170207601484
Ni 6.762294790922051 8.310590949869049 12.259356072353226 -1.6557153596558065 0.029702669270755298 0.1721772656296196
Ni 2.568161541079301 2.4386475902937943 10.446490791274364 -0.7187955974912137 -0.7448321307642914 -0.8090009521327165
Ni 8.675164607335024 4.736075196238193 6.4463440219344905 -0.9027821970509355 0.16615419936399128 0.3767725425786285
Ni 7.256646787782063 3.227501146510713 1.1273566735121034 0.5585580207219736 -0.7996043414091648 0.7014972154220822
Ni 1.7175413358005909 -0.033357637232795355 6.276909214630641 0.9107184211788767 1.6171668099586471 1.589026342968689
Ni 0.5545551063920466 5.40301825337699 11.291917127922742 -0.9334174054382893 -0.3483345989529098 -0.8267852726993309
Ni 8.62656268760832 5.6626296332564845 3.325128919422623 -1.2127263691511052 -0.8599846422694349 1.7012369982366893
Ni 0.8508116590986802 3.8611950569146973 4.729071633166715 -0.5813647342038439 -0.6567592490847592 -0.4124710244215025
Ni 6.205027422080428 5.051572857851825 7.387456242749367 0.3894349685376454 2.1584166784194765 0.9016707091543117
Ni 0.681968535267024 1.6300013558313924 0.5170602432781825 1.4070079228789316 0.2333785197292884 -0.36193650600706057
Ni 6.140115460261984 4.2013264433644855 5.319517949009161 0.09571368605424162 -1.2404392616853412 -0.9376625538678883
Ni 2.538978508806711 8.157172622132986 8.318160669236725 -0.5090596568815298 0.5668007203467399 0.09131889942065563
Ni 7.000900951696251 2.0890984992711896 6.077251142632364 0.4017140430153146 0.0771220390949833 -1.0375509401251097
Ni 1.474522620318508 1.0078858431113153 8.643700539550219 -0.08017316721648128 0.7479763328202279 0.2590324728519668
Ni 2.5162137379274063 2.3553651786067884 5.7441196725146275 -0.7789408995225424 0.26491515688498896 1.4025552864242168
Ni 7.324922866722838 6.35681383392246 5.324482073055529 1.4712489922461889 0.862882018421888 -0.29467747574908604
Ni 0.7588071583847494 0.852060667352771 11.494657606422537 1.6358492168594991 -0.2418816721042931 -0.33830164019694
Ni 5.482608341393144 4.848540640197789 1.2284771111111832 -0.9485087525537729 0.22878061594596083 -1.4958997009153334
Ni 5.425956244379126 5.764692752997703 11.611091614564657 -0.4183079428182538 -0.3274834665355134 0.03170144486833895
Ni 8.26729503601009 0.06728416581635908 0.43837819337960177 -0.3269916145007594 0.45229535550729205 0.10923357491754734
Ni 2.8863122056268042 1.7325294348496811 12.686598946889422 -0.1127521295937671 -0.9546999689661493 0.45111779025942306
Ni 3.6510972816189065 4.190112719623378 4.397340510989331 -0.9976008820947335 0.3470639597706023 0.8661907710801469
P 1.7964658938711338 0.6264086367116928 2.1111038366646135 0.19379998610571786 -0.050793942723415746 -0.5947576105709822
Ni 1.9824860720935384 5.76096396193257 0.20703360249141173 -0.7946343989983992 0.09643950847667263 0.20807937884286745
P 1.7243333879852454 6.2411210255690825 9.265824257434009 -0.7546177493961456 -0.4822793034638919 0.3246084589805635
Ni 5.122274018512222 2.929407548817223 7.841292964564271 0.05151179472604677 1.0447626273822008 -1.106034843929121
P 9.251230917927998 8.084912480367118 5.325629884290493 -2.330606028233954 -0.37297965119509957 0.6804889886015313
P 9.122501016119513 5.736229951762144 1.3602693623543345 0.33398578643040544 -0.766335552053706 -1.5507413313455616
P 8.607426422459879 1.5421514030108134 9.116191245224211 -0.6739018223023168 0.38819595392422174 0.38610513283346404
Ni 2.229169760700764 2.288511328042934 3.530284451108614 1.4152467658489563 -0.9645256968073196 -1.0077014608638453
