# total energy = -381164.63747103815 ev
CRYSTAL
PRIMVEC
9.32055264948010 0.00000000000000 0.00000000000000

0.00000000000000 9.32055264948010 0.00000000000000

0.00000000000000 0.00000000000000 13.64157093842448

PRIMCOORD
 96 1
Ni 3.341418139535561 4.045567254195624 1.102233648291359 -0.09260985031793728 0.804805168883814 -1.2289148059855093
Ni 9.281126752595052 8.756314392252433 9.074931893644731 -1.133043768417797 1.5586996669606898 -0.8197088254685239
Ni 6.9261959098194446 4.805173657364017 8.443709579400759 0.38329440285754635 0.8369349595388231 -0.03581726680892541
Ni 4.9624579840157965 2.3239306845270837 13.497884598056643 -0.8384639945888398 1.4686853452840707 1.5473526173789867
Ni 6.2282076804877855 8.870630971001118 3.458410648961682 0.413497665913804 0.813013158615903 -0.6391073403309508
Ni 4.702684859979547 2.3959412746137 5.76288188358159 -1.0608183952934829 1.7528066427838653 0.35841846555147305
Ni 1.7788181604246087 1.012957666400906 3.3131013684066266 -0.05641103179987704 1.9857051375529418 1.3188249979840965
Ni 7.157140564384052 3.877927793504727 5.845426562318981 -0.5082659573356407 -1.1564364363101245 1.4576738246649155
Ni 4.816768424910969 3.7283702050333525 8.396114177086844 3.6404416782352467 -1.7116610217834907 -0.5392287242657423
Ni 1.7038809167931837 5.483980189258677 6.122050313564343 -0.34038371953694924 0.3533868166648365 -0.13440981707285884
Ni 5.414299737344681 4.006420932895626 4.190294932262794 0.5446923184834749 1.0245100477807518 -0.0636178339609614
Ni 1.4580606601345758 4.810057626973827 3.7130444202444033 0.3446085562515742 -0.7125609294354115 -1.0208189720824097
Ni 5.7020904427685 -0.23998186245329375 0.8546974778824346 -0.25488502634249655 0.4916458322804565 0.387550607030739
Ni 7.920307418680208 8.885226956514401 0.002270486635399896 0.4105542670147639 0.7004926854169677 -0.00016069394758036842
Ni 3.6037450950090015 7.464793367591277 9.663415745581798 1.6351869006851518 -1.581741893492134 0.19660891630942268
Ni 7.431295301221707 6.289536917191117 6.314628777089146 0.7478428925661573 -1.5543948689377487 -0.3676515541139668
Ni 7.252266125143048 7.610072822377722 8.305588309080598 -0.9906442482712423 0.48177382458238316 0.21838590297519808
Ni 5.026676592053174 5.26559963972083 6.3264835880561625 1.916856908430976 -2.1146063661027457 0.8281512998089222
Ni 9.246799157036028 6.3469701628698285 7.897500958301883 0.8484861547115322 0.47941200921842597 -0.3584619171948987
Ni 3.9606197369746274 8.528380276206848 2.778678586184858 0.28442083101808435 -2.4820051807759578 -0.7512444620485383
Ni 2.2053173309880894 8.288553134928215 0.636581632040997 0.17720171542740448 -0.38468665521938267 -1.1366494834911844
Ni 2.565659218554573 8.888824689852925 7.8739693589242385 0.4042442656363361 1.010996329565033 1.0032886765081301
Ni 3.1398798287094034 6.331908149722019 3.949166641828571 1.5703099975061086 0.980918022122414 1.7854830499709637
Ni 5.650389336994431 7.343178796085949 5.323404775451892 -0.3927138963992333 -0.6279240700206219 -1.5662977910229219
P 3.752929861372756 1.5194831023648112 8.34010138363816 1.0742449531120337 -1.0149676555079552 -1.0250054993599316
Ni 0.05925448167443061 4.211435809875331 8.948406322926791 1.0873624643305984 -0.3316252566180289 0.868374408995027
P 7.045769280285558 1.2350850781203242 2.0820586139881616 0.051012229381808924 -0.23602829864730965 0.6295618627343609
Ni 2.5130353780641466 5.963196405839488 8.288318257000416 -0.3904896350544049 0.6473981195848334 -0.4030831554486994
P 3.4942565625539825 4.4968311332576985 5.039892203712999 -1.4328012297929518 -1.1622610134117013 0.5527488702393641
P 7.505319130689465 7.215384698146836 4.155276683749407 0.2702769354175345 -1.0386616566907854 -0.8546575736295668
P 1.4981297161509313 2.971308312749459 1.9400357603117682 1.2103334434388962 -1.0132861540404743 -0.5194199170699313
Ni 0.6693042284267193 6.434406267659181 0.8484480473034706 -1.8346443421869632 0.2257551988560757 1.4213158548611715
Ni 0.2712970553827542 6.641164087992005 4.426007981583849 -0.2367052701096762 1.6260867381560962 0.1900556885719372
Ni 4.168952730712142 0.15098083686720973 10.411724706834066 1.2528540904099261 1.6627509263463494 0.8123451860146009
Ni 2.8959889264577243 3.8739851997166554 7.64304520957555 -2.26080006318441 -0.3825870923778766 -3.146862119267187
Ni 8.28707116705043 9.345065744051713 11.31662454561794 0.29993872414802536 -0.4554434142179704 -0.03355906690236801
Ni -0.08546201172951037 4.341038095036397 2.052074395982901 -0.4700238831353066 1.40556887643956 -2.2365293635625028
Ni 3.7586713218300893 4.781480812424828 9.994633702156351 -0.4925120369354937 1.4171586381596883 1.7362654505957325
Ni 2.6260191177780943 2.74486548513435 9.609067602843632 -1.9824236385881921 -0.05392631770481036 -0.8261628086239836
Ni 8.793503397487429 4.762839707043877 11.667008354689921 1.725197365707029 -1.3319491940708803 0.17302727233474072
Ni 1.2746228626333225 2.185362027677781 7.769856921261086 -0.9254996932531093 -0.8241051547640065 0.08306540116261177
Ni 3.0912917875339536 0.8795134494208263 1.46499515133629 1.1892781654304938 2.3759875416925467 0.3604766336320824
Ni 6.5991190748052695 5.2601750780549725 11.122804584474766 -1.5567780244579446 -0.7507657226399069 -0.2698434474245417
Ni 2.8197654465550137 2.5458530440873117 11.704985878682532 -0.8026058472396499 0.4484451285232664 2.8871547318353823
Ni 5.486459456274344 6.358052300018804 2.8588092417754165 -0.3805654339621575 1.0598136081780523 0.29389688882931964
Ni 8.878963545106402 7.032468851596248 12.230446017437139 1.6115486924409212 1.3228845127654507 0.38569015678323254
Ni 8.1021420811187 2.33052031527925 7.950648613853514 0.3491781779001277 0.10054787421809133 0.19748000606046634
Ni 8.622825436619438 1.8110672727336552 5.589620265507798 0.6245430693635309 1.0402344004945439 0.5423821822930595
Ni 3.775261905619136 7.002838814593226 6.461561697922883 -2.6699263395033954 1.8947577625390917 1.3942267119538634
Ni 8.750423802952051 9.482357485182423 3.968905708316461 -0.0008196676878179432 -1.0053319321904042 -0.9563765853376239
Ni 1.4157453509198161 7.286696246781666 9.73698473207826 -1.793389449302234 -0.8819616607611586 -0.2758778265440797
Ni 6.717285041815121 1.8728438959661284 4.430713928637271 -0.9790562863233266 -0.3074921110152511 -1.476142315782748
Ni 1.3508090603252714 1.2768225130682749 13.54242379114335 0.41186552962701967 0.42576876997167323 0.6497295959314875
Ni 3.3022065743667297 3.1722407876507357 3.22867300597049 -2.102510097059844 0.08585761919576827 1.698332680105701
Ni 7.579026061365748 8.542267899715656 5.880171718638538 0.02128821995481495 1.5309345810322794 0.9852652433475161
Ni 9.47956131937528 1.797552471332465 10.255186956452794 0.4704141765951898 0.3524887303305994 -0.573282985636974
P 4.888956105498704 6.033575899205271 8.534344497873482 0.708920761579663 0.24790962346592788 -0.3759994118580299
Ni 0.4158979739333333 9.382068338232903 1.7580575613618432 -1.820576294129671 0.4419770043004195 -1.1590844154559328
P 8.345949098396165 4.94979135290944 0.1663411077011138 0.4660898381882231 0.11016945646825543 0.30200794797222824
Ni 5.97262880516225 1.568061822987571 7.4815284199470256 -0.6043323987436108 0.2980826447758931 0.3646341074438817
P 1.7600372467533003 4.5008669325726745 10.852265290025748 -0.6666983625753421 -0.10473337305434867 0.9425049695618543
P 9.049622864869013 4.4565756661875335 6.760967676109574 0.037837125452431605 -0.2370012040835402 -0.09361952252937425
P 6.350344202943781 2.786332624054277 12.059244241507942 1.6158277794322495 1.8779823428529656 -1.042575389922895
Ni 4.554348263910624 6.888978942926375 0.4573539281900314 -0.28618846444146845 -0.15542061499657103 0.5918052128108775
Ni 4.409777171128654 5.162672776359906 12.334913568157798 0.3620768882396667 -0.528912944162031 0.09292403912424642
Ni 4.212367865144378 1.1553850320640662 3.6993898105528564 1.0733759202435191 0.5550358665013279 1.1239870575321675
Ni 7.931389555829184 7.561223805726939 1.9871949607597683 -0.02844308583204134 -0.472959825835179 0.367773938624444
Ni 1.1965632338505878 8.006643698252086 6.312322872353523 -0.6726304117890609 -0.07533023730188317 -0.6269048847274881
Ni 9.026116430983633 2.464577824626363 3.21097980079816 -0.6866462664521787 -1.324296562621629 0.5026650662090957
Ni 5.191081820960476 3.040951482452694 2.14906593139053 1.9553414376594196 -1.549448580676067 -1.1565012281097888
Ni 1.9887449686721945 0.33472434849671084 10.554046750251823 -1.3829377693036053 -0.07713360905920909 -0.18177442239975145
Ni 1.6601861657802335 8.087378325656987 3.132813917714754 -0.8568568952737307 -0.9592225394268511 0.9329764612461288
Ni 7.632423507729483 3.1154599806603573 10.19879295239907 -1.6908682534078558 -0.026595491100341293 0.6925685454738846
Ni 6.861231657566829 4.697642440973999 2.3124095493463868 0.5995617168278449 -0.08574500487730395 -0.7441057941212281
Ni 8.272484502089835 6.4259711674743 10.107994924254264 0.17556829358903955 0.6152503312076952 -1.055280496194389
Ni 8.735212660961194 2.2216376187491123 12.734556498198941 -0.5289378838626956 -0.4308374427438322 -2.0293275022285826
Ni 1.7397836857568962 1.1864504341814217 5.7414511367803795 1.0140911664402728 -3.198414280312866 -0.21037460263494737
Ni 8.358531844528308 4.7655333467714245 4.129276069964056 -0.6882994857848856 -0.3114832344525152 0.5114299568859192
Ni 5.918084930817586 0.7523251874065942 12.081793454632011 1.1330581665955002 -1.9541337905045637 -0.6476770842778329
Ni 1.326566302777344 3.554094510826837 13.297844100047845 -0.6268570622086882 1.7226141783608848 0.4501243159979022
Ni 6.952815408303443 6.407991821334373 13.187879287350343 -1.6188010031279605 0.557507210859956 0.6354543169593959
Ni 6.105772900345696 7.88995969912002 10.788777413319302 0.3581294735561445 -0.3576723314140679 0.08995415786264507
Ni 2.4268482273353174 7.492755025662705 11.680158722480913 0.40100287588090294 0.59225001365778 1.201225824710673
Ni 5.16353026720743 9.520758162267182 5.758079934835457 -0.6094725481836536 -0.707843212244768 -0.18759899950132852
Ni 2.36303972361632 5.937909746390227 13.23307371529119 0.98500530481791 -1.6311996339026293 -0.12531222564696484
Ni 4.750023947094473 2.515747658897075 10.496657311170758 2.362946392237873 -0.038747553081842946 0.1420202824302651
Ni 5.015268235560032 8.767014386741097 8.413425239598865 0.9786670213047081 0.19858763730234832 -1.6918522145876798
Ni 7.295709221233356 2.983331825720173 0.5880476500711516 -0.7609634891085153 0.1380661828785235 0.886551594124686
P 3.157887136507403 8.436638076074495 4.970947143406281 -0.3127711000260032 1.295112484858505 -0.20474105849825386
Ni 6.937818639024468 0.6535543584903533 9.44325497048007 0.1891717433050871 -0.17280281502876044 0.5929367553121595
P 0.9554312151952895 8.972467329697254 12.375292066523476 -1.2962890216651095 -1.2248468065637228 -0.6214338343105877
Ni 3.62114656688212 0.6729075540968572 12.88259483658177 -0.9803840039958148 -1.0369816978852011 -0.8660532170610182
P 8.979131524870946 0.3864226581049728 7.056184065861895 1.3920597862095314 -0.5303879860456607 1.1210799111877017
P 2.7518279379941353 6.602502435431912 1.9443744775891847 0.2938462380970423 -1.0366114590299762 -2.2294858264521604
P 4.436862697247178 8.14502594404758 12.314519266815768 1.396229087095873 -1.0073067965285876 -0.29511147796271114
Ni 1.2608284446514184 3.2413340447452326 5.3622286056287995 -0.3710369256464319 1.3357084040029963 0.29594914337265804
