# total energy = -340859.81413474295 ev
CRYSTAL
PRIMVEC
9.41491804082509 0.00000000000000 0.00000000000000
0.00000000000000 9.41491804082509 0.00000000000000
0.00000000000000 0.00000000000000 13.77968422724787
PRIMCOORD
 96 1
Ni 8.725567319286723 7.7570923420636815 10.708813251077109 0.5171393485658706 0.5009776512043437 -0.5257119207262301
Ni 4.208346048684657 5.096191666304544 5.245815429579329 0.4167745368928629 0.20036246981458397 0.5490449390252157
Ni 8.37313868570138 6.863767242041992 4.375642554942987 -0.12399864904186385 -1.190884590685665 -0.2042921438862933
Ni 7.756320318769958 3.4361438715138064 3.1220631413146838 0.8217950185735912 1.7080830746242452 0.7315158732713596
Ni 4.8520251772867695 8.472626126491493 13.583709368938528 1.6662766801114206 2.4628630606298683 1.2419014480531645
Ni 1.1949884945855251 4.489654390065164 8.031599346524839 -0.9161663316673253 -0.5894837637665525 0.20690695580132107
Ni 8.888530138690157 3.1617554950221733 12.316033939756998 1.5172791950323739 -2.1543579349690702 0.706559460436338
Ni 7.327226006150458 6.398303100353485 6.877027212857625 -0.2497129952232538 1.6335136267477868 -0.03878483407768159
Ni 4.366300131597096 1.0052778925299934 5.457664270328329 -0.17627200452428352 1.0315803243639718 0.28229915668939126
Ni 3.737148221802511 2.663084936785286 8.057491313111088 -0.38140592758558184 0.003052156562762485 -0.05388697982644269
Ni 6.859474039335425 8.775428726159483 11.984591158875464 -0.5849622217471151 -0.31935903765616613 0.33243618255509844
Ni 8.461770725788265 0.8328888570085448 11.135059550936221 1.1244467707774053 0.0901701305281931 0.17520576804329827
Ni 1.586545528277212 7.823580494506171 6.563649777049249 3.1598446475697837 1.0869153494908506 -1.7388185560348892
Ni 7.082654675649389 5.295307771658014 13.54613254735421 -0.097102081761336 1.8815410067385014 -0.9076914614270948
Ni 1.540553652791293 0.9276151736567493 5.356797544019547 -0.8865577647722732 0.24085991570799808 1.6394729296550152
Ni 8.531836547152894 7.56260837647256 13.123661629699777 1.3208628543497316 0.5550420371489151 -0.21999618488511144
Ni 6.655678719628526 5.9736620440502275 2.5919175699893673 -0.7128674049322369 -0.8181700202264943 1.955860543387683
Ni 0.9445140103629265 3.0317072297024183 10.406555775173834 0.2280321678157105 0.10286032440135189 -0.37271071380442905
Ni 2.404080536658851 0.17670671701537757 3.413255263838511 0.1601560727990274 -0.9804310551836664 -1.1231815309117366
Ni 8.744745507693032 8.776285483717153 5.7858278351951755 2.0452757980277227 -2.5062383422917094 -1.1716105729474018
Ni 8.89009301511404 5.813815562576342 2.0909573036423112 -1.352699282134038 -0.11599814733489054 -0.21737314543996758
Ni 7.359283802676467 0.8091359598410064 9.097953696506675 -0.8035813237790418 -0.8692128457359224 -0.9569067468094811
Ni 1.2553192905146489 5.0484109563575545 3.0672061788364324 1.290658048631577 -2.1382227199701047 0.29014436376542285
Ni 7.822177671691964 2.8593200771646132 10.021703104743871 -0.31390572785107873 1.250832431994207 -0.10557206690556012
P 5.147747758456211 3.3700982202274763 6.503101496509333 -0.7902822926772906 -0.18227038819956354 -0.6294474486436837
P 7.16121275324499 4.000106887579731 11.718560405284311 -1.6764680188221257 0.9148324433472503 0.6515946741646843
P 6.501066932682821 0.577343497834725 13.78822775436443 -0.6271524819619199 0.8155719204820148 0.9530572911564038
P 8.89413201502877 6.076454121134212 9.402127108266939 -0.5081687696361442 -0.475495190662523 -1.2569490864149062
P 2.7782293865688668 5.992793157865456 6.900479774134069 -1.33448018802285 0.4832311258542 -2.7675300434914982
P 3.7945886378392752 8.740329911049656 7.0840527910044875 -0.6888584436121491 1.202060919017459 1.484119934671586
P 8.325320316081525 0.8855314307223562 6.853973844113548 -2.113460168313444 1.4666120076948097 1.6846361564552148
P 1.147904488586532 6.542276029714933 13.307978425109273 0.22977306176621717 0.4391215371294954 0.38513299872818185
Ni 9.122208408815135 2.2047478881864087 8.145915283505397 1.8555201571947075 0.8630375701631459 2.4604505945336332
Ni 5.53903175951963 4.231760950288235 8.526165941911303 0.9478410370627869 0.6206617320312536 -0.08685674988424397
Ni 0.3125489230053543 7.943244105033506 8.20436874474222 -2.0134961916232808 0.28010317747933694 2.837688506784455
Ni 2.261491600275177 5.240409383539612 0.7745530822494243 0.4757600142881354 -0.8415377484181572 0.042406747100985034
Ni 3.449936726700474 5.642266337759773 11.321967331838803 0.15917365428110006 1.111427732809918 0.7719415853865738
Ni 1.9217166167723445 2.795562251004809 -0.06695042492690272 -0.6760227253000615 0.005189257510423321 -0.23151858370241418
Ni 8.16030504450697 4.607209058912081 7.917186435886654 0.1522404174963765 -0.9271215451272485 1.6352331805420548
Ni 5.91904610347831 9.37619465753236 7.28728980606117 0.8604350995432923 -0.5330953576744948 -0.6229147897314885
Ni 6.169577077210206 8.054471948839167 9.754308129503197 0.8659097495046184 1.8002707498030994 -0.4544543108318238
Ni 7.043413296524453 4.21020078757324 5.826436260445098 -0.4355104227394694 2.0438897163134735 -0.5821131823340943
Ni 6.658550269684453 8.414065335187006 4.925217692990984 -0.7083006114971607 1.1689854766197287 1.0446150460607428
Ni 9.145359692708661 1.5294911238873103 3.6590298208876044 0.4124126603797414 -1.1207006734714118 1.429946791063292
Ni 3.8460976553998614 4.902216106297094 2.8857279812691075 -1.117233797968734 -0.17655996807834756 1.4141535327847774
Ni 4.61722653189407 0.5974339918161791 1.860560132515664 -1.2380023701090743 -0.40190327620798527 0.48521061817807404
Ni 9.187839803699955 5.5021911845398135 11.946518171101152 -1.4807484470961918 0.07289257439466801 0.9659855691822975
Ni 2.9393939565930145 7.858189733868758 0.5921503397132727 -0.4219704792715055 -0.23504125214369198 0.19350276658027318
Ni 4.770576719798809 4.274918935391092 13.307054821632267 0.061726016254887245 0.7334089765290143 -0.9078773521856557
Ni 6.773299292902955 1.5901985165450805 2.160268990057826 -0.5434000820346125 -1.5536119680251375 0.20104226949042794
Ni 5.004029031886598 6.741175591949433 6.907232153478695 -1.1263902676570212 0.4711240581780209 1.6672452146722772
Ni 3.2040755524037916 5.203606468232661 8.656314946855971 2.1438079273673663 -0.5306373830523055 2.923764669748932
Ni 1.8533172359319756 6.835776690185362 4.412751455091963 0.4361123179895263 0.9722590608958352 -0.3314355092047259
Ni 6.908657572096621 3.2459625235474676 0.6575764893809799 1.2685882133157314 -1.9634147015858576 -2.9991643268361705
Ni 4.406840769435861 8.082340106758986 11.43620135903088 0.6870152197558232 0.13671018307126132 -1.2091787610091627
Ni 1.8407671499498404 4.588784063963065 5.358010185485789 -0.7280986200596945 -0.2933883246240173 1.0283728731702677
P 1.8057342392675262 2.778841356252917 6.837864919045706 0.15457163673271443 -1.0216782347589115 -0.3931936642491293
P 6.104265789544735 6.415984316763425 5.072219401542569 -0.0724040647940237 -1.5292384242767794 -1.0910939063485725
P 7.4936064408663565 7.110588737996722 1.0523722549390246 -0.555943723027578 -0.15185140958807397 0.7508186873650295
P 9.074408869031714 4.784567288268017 4.654336373534868 0.1645871119871875 -0.7505145258610494 -0.7303478211051874
P 5.8234658537479005 4.016404111011896 2.073166874181064 -1.3767162138739257 1.214681950215579 1.8290593919000178
P 5.657320791987406 2.232644290860877 9.601257335997733 -0.5188717578759452 -0.9300394901049919 0.017377572046499104
P 1.29126544826393 8.958897237437704 10.008308500597746 -0.21601174631606673 0.1999382377929718 -0.21204787657231222
P 2.7453430772398355 3.02560636269835 11.6566620254722 0.09830098716544361 -0.242697226027053 0.4521668003492277
Ni 2.7603692867128196 2.6997466283189953 4.2500682587595495 0.007478310654916153 0.040795436749807165 -0.23000034728567484
Ni 2.6016620103430883 0.5204811577764329 13.036077470010348 -0.06994043374487954 -0.03011224600434814 -0.20604537913197415
Ni 1.3138518370644872 5.578423777336023 10.396414025271392 0.9906668739790616 -0.05036662537801003 -1.4445172326782993
Ni 9.265352825373562 4.035130383343829 0.6853034235275575 0.635018514973558 0.6205174931439055 0.05836969818814463
Ni 9.052726312379908 1.7932877173857689 1.4541567142889211 -0.3162127787177006 1.8336112729367584 -2.5299706529116426
Ni 4.282752147346933 0.5020759341556706 8.931743671810489 1.5979825237207124 -0.8374350391036933 -1.049310137543567
Ni 5.223048274349022 3.0703554689797365 4.160955116351817 0.27657330994920754 -0.5584186669306319 -0.6202724670126349
Ni 4.607783368923266 3.8550041680323446 10.82204082351188 1.4565841911451622 -1.841812834910944 -0.2180912545529147
Ni 3.052702497324445 0.9129504970432656 10.607270533640406 -1.9743925407536 0.4560820762432339 1.9692194811930925
Ni 4.187604983854467 2.21380503951035 0.35021989377183527 0.5867062010214154 -0.4577363240172052 -1.0940702153680772
Ni 0.12505176822244096 6.0429181824482665 6.5121275786031605 0.3953469631467062 -0.10109731896365816 -0.5880755705651163
Ni 5.809541189706207 8.233054117563203 2.6595204487486495 1.7944518291284774 -0.6543146441990086 -0.897064577840868
Ni 4.0207632181459765 8.146041443409494 5.116066558658848 -0.19953663147917897 -1.2142353495964637 -1.8615982450679875
Ni 2.159932877477509 7.672838238947307 11.729418630463003 -1.5420448320128282 0.5973148297751971 0.11486609061297635
Ni 0.9728529141935544 -0.05849959433608162 1.2788716499241832 2.193950352549712 0.29890976866287877 -1.0069445280931628
Ni 4.670966885071885 5.990241715028877 1.203990097891991 0.4910979301967865 1.9527567076513785 -0.8499002614502394
Ni 6.852497584937254 5.845374368436895 10.628022896372459 0.06474346292497238 0.08082057099249307 -0.24194466413174465
Ni 8.219129453521509 9.040129151806692 1.5977266851507184 -1.736732620040138 -0.44086680195537625 0.4209795761131459
Ni 3.120734696354384 7.558202194747399 9.440875145677346 -0.3121023560937528 0.3880979948937767 -0.7384215992522573
Ni 6.710708916601954 1.9708813196971082 5.800365410412742 -0.1554193294449904 -2.0382911391797736 -0.6674918050109149
Ni 1.8749903776655654 0.70983964189068 7.842693719976788 0.5398007947191283 -0.340393232618646 0.5632775376848299
Ni 8.961853521757575 2.9252527494323495 6.068490041815167 1.3269052038890696 0.5607907667072342 -1.8158346656796276
Ni 5.27832325919607 1.1986697276080418 11.989882342912942 -0.6378063621313403 0.47329818301120424 -0.553312456052318
Ni 1.3365888645565023 7.131263898399399 1.9572937097275527 -0.7887429732146287 0.5226497368611386 0.8416768450991827
P 5.006975901288255 6.539959959833759 12.897013479006802 -0.04348995286283478 -1.9373450010819993 -1.0534115613064503
P 5.866237827203895 0.6728889123677351 3.867447865438637 -0.615697703157759 1.0069843801921625 0.42685274706447135
P 3.482823036029505 2.9817140139746336 2.171071667219042 0.9019136784030533 0.002724340909698534 -0.248473723499514
P 5.105305307137782 6.429843076377606 9.19248229987234 -0.5267316202399961 -1.6581558507764989 0.1244845875393469
P 1.5919496913332853 2.113357277062188 2.3181016205252765 -2.196581619524972 -1.662222564646705 0.5529041648703059
P 0.13694280992944524 8.521188274650422 3.683571688201657 1.3687414231985653 1.0956763835129324 -0.9795342544010096
P -0.0633153250036451 0.7838578459224507 13.050780747788519 1.2842323476108914 0.24385473667026392 1.272172074012248
P 3.8257143574618846 7.735117922947175 2.8156715748226953 -2.471854722605517 -0.573588946913167 -0.7287269976723126
