# total energy = -340872.3816835372 ev
CRYSTAL
PRIMVEC
9.27753012267616 0.00000000000000 0.00000000000000

0.00000000000000 9.27753012267616 0.00000000000000

0.00000000000000 0.00000000000000 13.57860312165440

PRIMCOORD
 96 1
Ni 1.1836643944426328 3.9348509893228814 4.777563371012465 -0.8107251339126748 0.37713609656563435 0.1685818349688774
Ni 5.958493677348107 5.50540694208824 10.969094687028488 0.6635898988533474 0.5419160412899184 0.5592139091384175
Ni 2.4066005736049454 4.605477249295023 6.9653070106374315 -0.38919328484048454 -1.5228890850199839 0.2926894987847798
Ni 7.609142547071888 1.396138387745282 11.246152350297852 -1.169591999855476 0.6849223417825365 1.9866924411668754
Ni 4.614513563567872 4.526284252751864 9.25293532208557 0.6483836234265542 0.8046863839177625 -1.0023913615048414
Ni 1.662551940783395 1.4063807809251843 0.21392314349712438 -0.03467723966721124 1.0239194653846044 -0.9004862019279072
Ni 7.857891682886691 4.738025321180228 4.091885246280293 0.26420656085373856 0.589934735261042 -0.7053770100924626
Ni 4.493747954851577 9.058404071907859 0.3905329888690228 -0.4891914572026931 -0.03707582180637486 -0.018693462644445224
Ni 8.448499246140845 2.578652368461187 9.588326383324096 -0.23024743029947442 1.0065609195014988 -2.1098259139949667
Ni 6.870484159211861 7.649676075878947 1.1994807276791344 0.04869617965412259 0.9682663947966743 0.3633876366312903
Ni 9.394334157642538 5.736621546100493 7.38934023277938 -0.7572970960005215 0.3182156680803423 -1.008830689372282
Ni 0.4656819100615295 0.934006060682512 2.9641411642397086 -0.18927073077679663 -1.2549217715722323 0.5075635319519775
Ni 1.6258036442384736 2.7944662725833687 2.588923521984257 -0.8780080754300491 1.554989050878322 -1.480774929458753
Ni 7.761609475983587 0.733596567462422 1.4245582455604946 1.0150342470798326 0.8150350741419382 -0.88150066196434
Ni 7.605283094569315 7.8623448973127354 7.4443337199290065 0.13394933249667254 1.1421848114871167 -0.3481173407357811
Ni 4.839326671842686 3.4117745673336817 11.743454866043313 -0.046472689640242544 -0.2309241446515249 0.19030508557858192
Ni 8.41838438358472 6.902640078379925 5.179218262910534 -0.5048083378043435 -1.4063034406127393 0.024596972613073767
Ni 7.203992809602379 4.427775438635739 8.398229877294845 0.46955131437426234 0.17958538516823264 -0.4365512052991578
Ni 8.099293014898521 9.19813295205506 9.6263197244023 0.8177915538411529 -0.30413373606597943 -0.7179214224163766
Ni 8.104683259860044 6.68113904833448 12.84812851409797 0.0979106937055604 -0.9367428702670965 -0.5438291991522313
Ni 8.301700888092299 6.693802876858546 10.001985471359372 1.2213310801009805 -1.2764478185694663 -0.20942149469305868
Ni 3.3354576051073437 8.788047568596685 5.57688196137926 -0.4221139468279053 1.222373919543198 0.4398856689890295
Ni 4.379309621632287 7.587071303072804 10.276789622578558 0.9298597699940181 -2.9444101139134258 0.8621950196571927
Ni 4.318244918815151 1.0985987213751283 7.045312718813342 0.18265553945312413 0.23409200085654522 0.2829560735470998
P 3.5899495320257335 7.964722441461488 12.26518511842164 -1.6527917582511085 -0.33351296055904495 0.9878391747222796
P 9.305177093821104 7.743926503700169 1.0933392895873686 -1.1415260948571955 0.5008089868369633 -0.1358563197113983
P 2.9695147096471355 7.3502901810279955 2.646143616346907 0.11341984508475304 0.22966918919850124 0.45352408570807057
P 3.029336223437 6.1059136299102885 8.769387672398553 0.6143784701257031 -0.6486818713932634 2.3940269156927605
P 0.6168277186935021 5.886871145329225 11.387125347225329 -0.3928694481404912 -0.29015747639154543 0.2569190260533898
P 4.342932426289536 4.407865859139298 4.991507852828714 -0.7477120234152477 1.0845514772443645 -0.055014408562666546
P 8.939920735584911 1.6990497440168515 13.131459643190027 -2.05025293952734 -0.4607080050510195 -0.2814884878626378
P 6.91792017037929 7.7948601436980525 11.027047706265423 -1.6515262612751236 0.9393070314498468 0.5887862234788956
Ni 6.23662475084475 6.626754167156413 8.87448631611222 -1.1406899721091452 -0.15497401437745567 -1.0298525430395877
Ni 0.03979318190872947 6.291761111957213 2.819569413404184 1.3665282175973306 -1.505880466277129 -0.3254605225682137
Ni 0.5825324010949268 7.788004048987954 8.566537261021187 0.8323571103601536 1.2090671751319628 0.48316067762758075
Ni 6.72217356376447 3.2316791539203975 2.221092649158007 -0.9102273404750711 -1.0330152570382856 -0.9417657774029845
Ni 4.633838658670894 1.9233340330785729 9.789737849790045 0.6403363276420456 0.26014653185175196 -0.03323022280803954
Ni 6.701865050475697 4.38454214858289 12.966099730761922 -1.082586897318826 1.2212485476895032 1.2114174205316943
Ni 5.023095987157456 8.24511723229137 2.9240297630501177 -0.7905741128860965 -0.1979039809717624 -1.977330283225685
Ni 6.10715681893756 3.2746062854814566 4.463626598024413 -1.0312355394300434 -0.8297551539609321 -0.7932778849705047
Ni 2.3893258126439147 6.980153841983262 7.077018677773774 -0.8506582226621866 0.8852629572202495 -3.1373837474631063
Ni 3.4003260952467254 5.6706397523546 11.707675143636058 0.4178708552808352 0.5414432154185579 -0.19826393541434242
Ni 8.323521638779917 8.272309672880406 3.1627554553942994 0.02992609813547104 1.0263131624277615 -0.9736297159911167
Ni 2.135984299452253 8.278655503437518 0.6234194037970534 0.5788429962232547 0.5281680955762066 0.3212151170282984
Ni 4.387427460429764 2.4445363939968123 0.9761427466829474 -0.23986952677027076 0.616005721316481 -0.740688540909563
Ni 5.184506455041461 5.308083155364197 2.9468552702426125 0.1841444652938248 0.8543575258906446 1.50330293535794
Ni 8.824341266168949 3.6588166376185014 0.6983187594311004 0.10112457265716777 -0.9691295141279181 -0.11841472719618315
Ni 6.401068971056498 1.8726879965123708 8.083396894903553 1.2856094304640762 -0.9440052082564645 0.9281558999290338
Ni 5.918266307032838 8.389262216744399 4.969605459876618 1.3395509176775382 0.4817761385752283 2.2301550846050433
Ni 5.390439789655858 0.3466836708205711 11.733162374201118 0.36662774083514277 0.42010025883198615 -0.33918867078758363
Ni 0.34203284500437087 8.711211064687308 12.510727012096686 1.1649100209987744 0.5377110020696352 -0.44450696981112475
Ni 4.7944141488500165 1.10653100957152 4.086005147731903 -0.9844013526853239 0.43292286451795114 0.08430158756255804
Ni 3.0020046198971517 0.78221917472379 1.9332396519175057 0.41603225941019967 -0.2970056096616304 2.2575548167742348
Ni 3.685285430863303 6.353150528326248 0.7176522043111717 0.6289820789714909 -0.19192873722493398 0.47127112527884646
Ni 2.8871673528855286 4.136646545533078 13.320215630908962 -0.2517405671762439 0.6571199748582878 2.0164655586642497
Ni 1.8225429465690988 1.9531520146729626 6.215225200021596 0.44561125861889705 -0.3358791467983764 -0.13653791915945518
P 5.638094176924258 0.8462499038992722 1.746235261872815 0.506038867777335 0.8785559775137193 1.5132672456595035
P 7.207731654214245 5.868019204258969 6.754051157030906 -0.8952905166595807 -0.012492476040055905 -0.31839641663258067
P 5.117095921667213 8.283832365207795 7.268938303241211 -0.12472112903018522 -0.7839077566095145 -0.5258031948884557
P 2.8144686273803523 2.4626368551326725 12.14826040714781 0.22451592713233592 -1.6754899711795725 -0.5271057157499631
P 6.772986595871649 6.813668565159578 3.294372991015061 0.052156884509213394 -0.7844142639322877 0.613222502144389
P 6.445053741043742 3.3257625862006424 10.108944259848919 -0.07837776587895534 -0.4606424419204067 1.150898794321347
P 5.191668708243349 4.560583281362462 1.046525800686581 -0.5829441628758218 -0.6021996686713241 -2.27166580225432
P 1.2249030155338159 9.251961181429873 7.002933889278491 0.38829005629992486 -0.6640778942333596 -0.8913557003815488
Ni 8.703853983354282 1.1931274750979775 7.437910885872443 0.31280503858773223 0.2993751383350715 -0.08578588541756837
Ni 7.362536520699618 5.402101644934062 1.3928791914372205 -0.17975456375624527 0.28710814804226037 0.8480930330381716
Ni 4.629580272375989 5.634475940203097 6.840261677307106 0.6932195487943222 0.9485971985025211 0.6419466095519589
Ni 1.255453922002492 6.306735045464788 13.452960386431316 -0.035835264531054414 -1.426793075925659 -0.846972032059851
Ni 0.6813334574077623 2.086674227213864 11.21650971402149 1.7101584690960354 -0.266558863135999 0.6756383453774493
Ni 0.7758881882147634 4.7434712313220775 9.503025988746218 0.2243776017822587 0.2895938905785916 0.550749066200516
Ni 8.301107126168827 4.24165890821724 11.4874711122922 1.1603871934277563 0.04882653458439978 -1.0773878696163897
Ni 2.079131595279751 7.451888412652191 10.684337601567092 -1.6691637718512287 -0.12216879492197669 -0.03600161490558961
Ni 3.291584165480751 0.3573407695938989 10.794093565367998 -1.6341887984379404 0.890950237413014 0.40007213653651746
Ni 3.133216727454543 8.547453381699576 8.560494805696848 -0.16652752354300998 1.2611744373501634 -0.34401668830384624
Ni 8.441457600829661 -0.12266750237741794 5.2842630969498865 0.49059013732243256 1.6674596446759282 1.6055446523386865
Ni 1.3037434659349125 8.252168155132608 4.391035491867865 0.16534275920628944 -0.8367873782173654 -0.17628537426072222
Ni 5.446392573413096 3.3291581622005015 6.692282289682653 -1.0797304017066371 0.9386953660077769 0.0422913045690433
Ni 6.36195490434774 2.2300027890221177 13.268562982331872 1.0562269192680585 -1.7980660288422972 0.3818887807592713
Ni 2.8016470808453655 3.6465610204168244 10.356033645537014 -1.0003244516734837 -0.200812412867809 0.31368564142047267
Ni 1.4824286947799488 2.430146944882656 8.719038516794088 0.5164790892740525 -0.8142514018983782 -0.4777032540574354
Ni 3.744318354598556 3.293588111972471 3.1448860047567906 2.0477484279379317 -1.4411807121058986 1.0166365585699457
Ni 7.934848794686773 3.160093732021732 5.857375094027718 1.7794155036206452 0.4128065533840503 1.3069601282257106
Ni 4.187895621552808 6.852003319343776 4.73371869172904 -0.819887260027917 -1.670774567981774 -0.7717145569774322
Ni 5.677774172966326 8.984118888763403 9.270084836390868 1.1532906915922914 1.8321501150101993 -0.9489378696713915
Ni 7.111161843879459 1.0348992000225832 3.615180702761297 0.3621851316827569 0.7687531603562632 0.41634130601018615
Ni 5.525539182305983 7.402708225834561 12.751122659850635 1.6348122909545522 -2.2323235530112715 -0.618084972443013
Ni 7.385971561616677 -0.2694649326729592 12.899062154095855 -0.6614857080261511 0.35350920117531376 -0.10308143927322247
Ni 2.5747929159586147 5.183300376134408 3.2537995688287684 -0.7590210206701637 1.8672135343722358 -0.06674249563287216
P 1.1654711580062302 0.17712103727788814 10.183082858018516 -0.9509764973679751 -0.4590545286079965 -0.8159308464833303
P -0.034636730704572086 3.5986982428669005 7.693174703291348 0.08310191082750204 -1.164920819632052 -0.518211755694443
P 1.2177407623319276 4.780080364916185 1.479334638506853 0.7208967029946166 0.17083823510322188 0.38849240211871805
P 8.599917814156413 2.8141531913585074 3.1009587554558826 0.717294587465655 0.17236392771912895 0.44303398481002415
P 2.577010245641582 1.374252694347284 4.05318588516496 -0.2526036865074876 -0.02675541371697327 0.9058765197055431
P 3.6423119116519738 2.909767416097705 8.158390881344154 -0.7696880134657067 -0.2813632751386832 -1.2190055172915972
P 1.1810202983771687 6.116276630980897 5.394303880923458 0.4301861823130784 -0.3764133594669969 -0.6396781252327564
P 6.8067753603292624 1.3736403773637027 5.854862738889024 -0.9479515944987221 -0.7699343251485578 0.2246768781902324
