# total energy = -381169.8080199661 ev
CRYSTAL
PRIMVEC
9.27186214798023 0.00000000000000 0.00000000000000
0.00000000000000 9.27186214798023 0.00000000000000
0.00000000000000 0.00000000000000 13.57030746775527
PRIMCOORD
 96 1
Ni 2.434716796067364 8.566542220150362 0.5506169445676078 0.13336054987273807 -0.3711228004920189 0.5831807043666601
Ni 4.331035107359717 4.406443161308108 6.399661702751037 -0.07656051016455848 0.19073163159303924 -1.023172817026567
Ni 6.7684871027280495 4.12113869456202 2.4227208609636595 0.4322435790627394 0.13419821528268502 0.6551852197294199
Ni 8.490271883032513 7.477580567607558 3.04174374926918 0.4075077668789563 -0.6296292256371866 0.9183121743657345
Ni 3.5386246902141028 7.297029598157538 8.189979451303321 -0.8632990513546487 0.06839520074494672 0.42755311556560555
Ni 3.663998808680861 2.1314063732450705 5.374764908140338 -0.3548135218090341 1.0615264771041009 0.703106468890731
Ni 0.6094617441727791 4.171512721010023 13.137522917984075 0.6388054928198159 -0.03024105827272856 -0.3886790642082274
Ni 1.90395832561099 4.484994376487103 11.13616090011389 -0.13780264480449173 1.2442416661505669 -0.6891631193367614
Ni 0.6211887952774053 6.498184508758119 12.306829909673146 -1.4175605015837973 -0.37423383531717486 -0.8407535619539649
Ni 2.3415623981798093 6.891654518029959 10.253398968974562 -0.41244814160336707 -0.893955342787925 0.006532658912195201
Ni 8.656915059426762 5.801404076663988 0.6756396594631566 2.1602226212799636 0.2318991069702845 0.6562301160541666
Ni 6.228271332993751 8.207850965379988 2.8329098918609428 -1.216907497111988 0.8767153247605546 1.7096229083075396
Ni 6.962129941374569 1.5852473399449392 0.22385705546708057 -0.5185262016110683 0.06256676698862773 0.3781308563787359
Ni 6.563087543018384 6.584922778115946 12.683623547884912 -0.42838872409302353 -0.6166649521670348 -0.4017999178609016
Ni 3.5255884521898264 1.8959381649488287 2.6617476099097717 -1.547093450180329 0.13036572891047227 0.3563772667517282
Ni 1.597486197834018 0.7538459613743687 6.8727232301224435 -1.0880854585395519 0.03419130116972821 0.01179313598018614
Ni 4.536453210793456 1.165129999178243 0.23990386709482925 -2.016191221956941 1.3797213192488367 0.04741936982422801
Ni 5.1300285465517295 3.662366960962317 8.411188462972584 0.7812710903176159 0.31287265860087404 0.2139396942783864
Ni 2.7082738136123448 6.08396407224707 13.039572185864687 0.804357539823434 -0.11880733464891152 0.2858835316065399
Ni 1.1115015491551896 2.2856437982335724 8.804904176588408 -2.27271841188855 0.5054058621790264 0.3199763595251909
Ni 3.1350019920115506 3.4002421493091806 12.909650219068693 -0.4546211754269912 0.11866360998219565 0.5976621858122868
Ni 4.645481036488665 7.19523382485133 5.566146339635989 -0.8581239349116124 -0.24701385112453592 0.5928501091356241
Ni 1.5392959916886717 8.489965911585285 11.828137580486558 0.51599443632815 1.6365914943421622 0.6509763238543951
Ni 2.1848401141653433 5.957913107851598 6.9825743971665535 -0.3392380359682803 -2.4593211089148808 -0.2201458230890983
P 3.345232191842587 0.8549009129038053 11.64970152276722 -0.7673601366634785 0.9675590843170047 -0.15018019253323814
Ni 8.901302799002773 3.79926600394129 10.20830434077053 -0.033269046465774964 -1.4733616677138173 1.235444636684227
P 5.831129666355189 3.964425682409591 4.466842852176915 0.06196204352509329 -0.17325327230261772 0.5990927476112263
Ni 5.547178891466528 1.1552461942466083 11.616142018123643 1.3617827324925451 -0.38115987301304677 0.6585893603149625
P -0.13193859678908187 5.874253096690117 10.318237100200566 1.7304485868036392 2.0273081578057086 -0.0012778382711590896
P 7.276093733677583 8.496864176940948 12.116710378600754 0.39502686080312616 1.4903096084220655 0.463598182114621
P 3.2712520046479217 6.244793791144008 4.210187511939511 0.17405391382704216 -0.2975877074173456 -0.17796816127978382
Ni 7.833684972869558 2.222011009072401 3.5087655857095656 0.8943384371589566 -0.2790102015254743 -0.12882306701370072
Ni 0.8822093281619137 2.397935319365868 3.6397195107502993 0.7876803362780692 1.4723440250825803 0.06653860715218217
Ni 8.831532037172988 3.1555020789757573 1.5495794138741088 -0.41440423688847333 -0.44720045748288784 -0.51291091230682
Ni 7.12067878221036 5.411754074551467 10.407909913893159 -2.3339368923793997 0.7564038947622909 1.5849395744938253
Ni 7.515122336996103 4.676949736242856 8.26380108965715 1.493283603448725 0.4466715815626114 1.7932827485210407
Ni 3.061355591850224 4.631109650331035 9.040457686015392 0.7726481245352951 0.24872569160932 -0.17496665544929865
Ni 5.922392604387158 9.082576973691692 5.800193171481932 2.1664045817209594 -1.5948216094942274 0.5454289395391831
Ni 3.8933475880325634 8.08724258400034 11.857762106881557 0.6627854006741811 -0.5978539901081188 -0.13954739540974032
Ni 2.173222471032756 7.824691266693493 5.879376727651863 1.2952693221513434 0.6073945826087024 -1.5889795488911536
Ni 7.1775709276705015 3.587524490598194 6.539409061747833 -1.6433889768799699 -2.0816875038875375 -2.8343293605042352
Ni 2.0763129690201425 0.5787116137264692 4.468932729880095 -1.1934929748427898 0.7353311332523916 0.7372622888368334
Ni 6.233445032010499 7.809717209503447 10.399360329908674 -2.539116323966653 -2.591110457645757 1.4427897084642314
Ni 8.776188292673055 1.759289462244859 5.682430324561495 0.3904523540585663 -0.2845856387307228 -0.016944598274138557
Ni 8.849760517938083 8.433147941021442 10.44891935968361 0.409398813254082 -1.215341952397081 0.044449745672942804
Ni 7.159852399317449 6.854854497604388 5.158236332427445 0.7225494081066911 1.0214548058941957 0.6306520104747462
Ni 0.6594973476564249 6.230580026641009 4.77593428097939 0.18815744310795982 -1.1137872341810302 -0.46192156574314647
Ni 5.947491534921808 1.4598268621679955 2.492322874904368 -0.2833872475472474 -1.0002429477032708 -0.25653001814508725
Ni 7.888222065372256 0.1982083035136275 7.341549370915264 0.3676183868831862 0.07840039158677466 0.1692436369225924
Ni 5.450195214557619 8.363534800846288 7.93477608466094 2.3074475878396195 -0.42687845809608416 0.4664636765878741
Ni 5.907288741128592 6.140216459226646 7.34868777749769 -0.9393147447593307 -0.9296533104101666 -0.12444782076414052
Ni 4.395446732932012 6.902697305716241 1.7444359392612956 -0.3715436900795214 -0.3378488689302375 -0.5418571630275248
Ni 5.595819079713579 8.481083467753667 -0.00017709256491015208 -0.04418466493701422 -0.057188276285533766 0.5217593638363852
Ni 0.5930774367668771 0.38470439090188824 2.5007908665029253 -0.1412134702582536 -0.5071359574962556 -0.6853108354702069
Ni 4.361066668498146 0.249205399090529 4.222591408972852 0.3427977282950806 -0.6399048965315818 -0.6413542273835986
Ni 7.284994721233277 4.47326547101007 12.601251398360393 1.8073127442515455 -1.2479643664177926 0.41573761098791623
P 8.498421849763195 2.595194184206888 12.781261818253647 0.46184468975862397 0.12832607277262417 -0.5226057709970806
Ni 2.3921033181444815 4.427888978200107 4.7932086871408615 -0.952739759915985 -1.114930089536222 1.0391851332944233
P 4.154396863689387 9.183269395415476 2.0167514544794973 0.8256969247311585 -0.4148930035994339 -0.5662499900495925
Ni 8.086296854072549 4.607568392618633 4.508287148296908 0.22345791818146676 -0.13696575072549316 -0.35644488676487
P 4.837204599693488 6.136971307513633 9.487843573033437 0.5029044359134114 0.13233879347644306 -0.995712406822769
P 8.55178141578717 6.419957808750425 6.723205182910866 0.8512102385109147 -0.4001847508549818 0.576376022740001
P 4.692943698256992 5.382213922101009 0.07056072447535285 0.8375895624036866 -0.6558498498966124 0.4540884428519728
Ni 1.8742698233679371 3.5445308663317867 1.4567180068269288 0.9392844057420274 0.5921782798795802 1.3366360580235883
Ni 4.359546083124048 5.253863535920316 11.35380117208504 -0.487206051341548 0.6523883737105732 -0.40302016342124786
Ni 3.642979497442572 4.388177593094862 2.8484754938489623 0.5346585883965566 1.0413947393512324 0.2711361980940363
Ni 5.35290556620148 3.49847752759311 12.38830639732487 0.12613060778320215 -1.4092206142595343 0.9810182951457042
Ni 0.32656796155635764 4.034224259825487 6.545881748635988 -0.33736730130812864 0.04358354101790558 -1.9227642750543468
Ni 8.609220601107504 1.562197490920508 10.742228224926397 -0.6059537363971177 -0.27375306689159307 -0.5510583699108187
Ni 8.970971570350148 0.44403132733299294 12.828690174132436 -0.33042609410360513 -1.0874946190330883 0.31085999904621947
Ni 5.629244142357615 1.4134860957061661 7.622305989332117 0.4882681740574752 0.7643295773672708 0.22041321781787204
Ni 3.78693442743184 -0.005481524836381251 6.725796668350258 -0.45495747572048745 0.7966226330730216 -0.4155555768840972
Ni 4.0392681527737135 2.7487362195426015 10.421534915156796 -0.4566685448743232 0.03633174455149872 0.7863294786771297
Ni 0.9765310534799496 7.875352720864648 7.949852132333396 -0.8272079620590462 -0.2639345381392745 0.41715788837421064
Ni 2.066531154570917 0.0922948962767082 9.702050474492218 -0.1934929963882603 0.10115619722605158 -0.07916452344630882
Ni 6.587991764450252 3.150550904647903 10.261961533565897 -0.29451883868403467 -1.322527386536348 -0.18219171244282817
Ni 6.761051069374231 6.249707878023712 1.461848128092101 -2.700313693546001 0.47359051744064246 0.7154094546278001
Ni 3.168770113550963 1.7053643126366158 8.396233876692815 2.2337623423403272 0.8640369579619378 -1.1586414143812431
Ni 5.023976988570457 3.257019696420849 1.4367427072540266 -0.8895530999551713 0.8177013081201918 -2.5886403988387094
Ni 6.141152917292401 1.8050924607085317 5.0157482110124585 -0.504707293450105 2.1846727839025277 0.0013138337154170922
Ni 9.2808557433568 8.308432124759324 5.472931674645193 -1.2441629903938314 1.6590287402997557 0.3069069279357424
Ni 1.9564741521895819 6.217219273445432 1.8781575151201273 -0.7308232180797091 -0.9353267066458602 0.08293633178391524
Ni 4.634326986457936 0.3028792812375646 9.71153651654246 -1.448995580164627 -0.0465837612968101 -0.25286131104424836
Ni 6.999439914212185 0.26655212577589044 9.535882017434274 0.5227518096566416 3.2880370229780214 -1.4571884003880646
Ni 2.7062247321021276 8.037563947205125 3.2254174818533228 -0.8314991332352325 0.10985938142700434 -0.28641857817440347
Ni 1.30497749428504 2.3526979044864635 11.6990973677703 0.5947406412901177 -1.0412890670113035 -1.9760655575806487
Ni 5.659238616047895 6.061720875219874 3.7509410590035044 -1.102157877472218 -1.6867591163354885 -1.104529463028188
Ni 7.553711826794849 6.967173834322796 8.730660668511886 1.9977235021700561 1.5895045681566882 -1.0733211557461837
P 2.3115771963515668 3.5296680714861863 7.238849591060432 0.8113658528204671 -0.29746455157591994 -0.5361657690697024
Ni 7.612884850316136 8.598372522524002 1.1763934571810102 1.6954103642525833 0.6119372076740622 -1.6609969197697199
P 7.656889107544596 0.13857354126288843 4.408884442582498 -0.023481885172024076 -0.31760785929301427 -0.41655625023446974
Ni 1.5066034061455724 1.6148987547398432 0.18931936937858232 0.610796923422032 -0.5450329896523453 1.7140647461289769
P 7.713734893694552 2.3580570407439536 8.365402153860577 -0.1023874985299914 -0.6826014069588439 0.31285697487159025
P 0.4610053251644597 7.711899065011189 1.24584619414292 0.2088535380047306 0.9699561237942715 -0.6122313418757134
P 0.2240684539215283 4.953195593778619 2.7203986275983656 0.03533544207650043 -0.456034253724434 0.3443532457076586
Ni 0.7592885443901938 4.793478498326143 8.581414286858 0.5186442152461713 1.8100581682071666 0.7584003563670293
