# total energy = -340850.1458705986 ev
CRYSTAL
PRIMVEC
9.41023271233160 0.00000000000000 0.00000000000000
0.00000000000000 9.41023271233160 0.00000000000000
0.00000000000000 0.00000000000000 13.77282677539322
PRIMCOORD
 96 1
Ni 1.1474179258975854 3.6297150269181984 7.681738720983612 -0.12284293817086585 1.2842619152972463 0.2697056362950968
Ni 9.001301801069275 7.423459823187768 3.3394149886743674 -0.2520095045669144 0.8715448363032088 -0.5970039834029977
Ni 6.904908940271852 7.32207397412623 12.442730301338354 -0.8943780321476403 0.26552785076832336 -0.7087382132552117
Ni 7.242868043965568 1.9561709806353684 12.891380092366493 -2.3468044923706874 0.9191565246439007 -0.5529100784075769
Ni 2.7559184425058882 0.6021448046690597 6.212977339590562 0.6297187000271993 0.7450180215228525 -1.0765314351533652
Ni 0.23153407492432027 1.7249239178139233 8.403091414767825 -1.9058667279680597 -0.7207560636516942 0.01824223403963955
Ni 5.757716859963414 9.143612752930947 6.248001285350925 2.0297892723563495 -2.6080347442049217 -0.5594357953412367
Ni 4.2432245698378255 7.0651557960049995 11.342005950997049 -0.4245693503469333 0.4561219283422338 1.4561561024688083
Ni 5.614822473663111 2.804475244172636 1.0930145465417775 0.9922108214274137 -1.7422162688625284 1.4129631120211021
Ni 7.66562275615135 1.5420736827002461 5.438325086767501 -1.0711454882511036 -1.2227891527037458 -0.39624453526031117
Ni 4.3397359182669275 4.198507143186589 5.254181885655953 1.9046570239306746 1.3927066757649114 -1.2708083608955016
Ni 2.293245522438256 8.010394868451021 13.22527491647884 1.227072610570448 0.511429442665287 0.4186599268410338
Ni 6.003380399558784 4.59047157338524 13.409513160942486 1.7468532534139076 2.479335347253278 -0.6336128928752831
Ni 0.30693074281469146 8.643534157160733 12.251053267782156 -0.8355270234477029 0.3504799274306867 0.5453348371634802
Ni 3.632886275399146 0.8947578781550775 12.244125454335054 -1.5620783536249354 -1.8962315188711407 -1.3821111596372522
Ni 4.144435945051486 2.6394762208345055 10.743769216043532 0.36374964795639936 -0.004915435023746373 -0.4029450872089383
Ni 0.2892197435090741 4.52581386325884 5.529293808029603 -1.4241605233988184 -0.03604789476249276 -0.1900330628641179
Ni 8.104563068892714 0.5951454734520584 3.09669591094751 0.27531449784144196 -0.8828900861126989 -0.9884413270826524
Ni 1.3433483847160645 6.494227556872588 4.523465069131705 -2.094600355294464 -0.861490023170368 -1.0090574606711074
Ni 0.06062072022038534 6.121939923628426 1.2876849751774706 1.0048933019910886 -0.6417296084451464 1.3095168332092932
Ni 8.543192843949003 0.11707741239086063 10.350651091293653 -0.6743137130287549 0.7180738888338407 -0.8269413386612211
Ni 1.0355961285708486 2.0372589573722606 1.8190732977898556 0.6880495745576085 0.047933076235852926 -0.7615458439745465
Ni 3.3970093780001744 7.651055715651326 9.152263580018591 -0.17297045095487631 -1.6514367868851108 -1.3361318646936602
Ni 0.6473957915246584 1.9317231956101337 6.059602776930519 0.36538718355982236 0.6190241964278307 -0.11621926220676114
P 2.2083275809187346 5.464889233167706 11.382208347911908 -0.5625069780673926 1.0890624777408404 -0.4060628069023136
P 9.224587806873267 9.085363411396612 7.469596312957483 0.4249280192379327 0.37373041331819506 -0.47149763946735573
P 1.6358278328951699 7.42861663080664 2.2601487923719543 0.5462069553557884 -0.4341335969966007 0.28844255058296775
P 4.831326483978342 6.807898849500049 0.11068598221798175 1.2346627642128802 3.9509157546969567 -3.5621091637719298
P 0.7791955132580825 1.684092917342602 3.90134610414911 -0.6490914481268564 0.005548954842687218 0.6023266811674917
P 5.943107857955002 2.5526856429716345 4.24507462162226 -0.061784894517280683 1.4569603435376584 -0.5613546096305042
P 8.815666137022777 5.015691766585885 3.210170145168177 -0.1640610642803884 1.1446042195618868 0.4531042245618325
P 6.281989164471071 0.365961133678162 10.051422624092183 0.13252751244848143 0.12282031246304656 -0.08409127132396486
Ni 0.6475557654836381 6.202359773830758 12.893735473656646 0.9884847787260782 -0.06687105079093644 -1.3328171984981303
Ni 0.08817388209640029 9.233000555069015 5.206514350996473 -0.6365015272769876 -0.7984781982245216 -0.5961722315303216
Ni 3.002758261211403 2.9256978641476445 6.342166662722754 -2.3120760877505666 -1.3946828256546755 0.8582242079349025
Ni 5.652632789379582 8.0135002453018 8.807557339349088 1.0680635068916702 0.3545283864684475 -0.9087435568406931
Ni 8.676648766669508 3.563749294421318 1.4356928820253916 0.9804338833971438 1.3242600529567388 -3.1746048365980934
Ni 7.130509863364605 0.4226954277186313 8.047821246665942 0.9198054710818094 0.2562145437871975 -0.33530167702835156
Ni 6.904607812819655 4.458351903733857 4.957928934091505 0.20250779829236087 -1.7987113757357798 1.1159186787017363
Ni 0.4671117269176718 5.701603641293101 8.934529611614481 -0.891843952871877 0.6885375699376207 0.06949794689082224
Ni 2.0636170196723693 0.16953475558684605 2.999680174035978 -3.0788829230137362 -3.4565298977775183 1.7098813041752488
Ni 4.453496223567182 0.38024774923832794 7.959923084392958 -0.7588567271781576 2.00253017953008 1.435891181572185
Ni 1.1835532201612116 1.3874917871615517 10.458106540563533 -0.497713121520459 -4.090472148967761 0.9935112854063921
Ni 4.0210019203494065 7.840257857959781 6.787703548713807 0.13479522543673558 -2.1231347152887308 0.2558193652313078
Ni 1.909364482284515 0.024334862230660743 8.261424122835225 -0.8538759582685359 -1.2235471139156928 0.07950930838023725
Ni 3.675684014542629 8.584070895584729 4.503287647787936 0.6714731582561662 -0.3509676657003827 -0.6838231951810868
Ni 2.73503713574261 2.1394070352971726 8.895097912772586 -0.16642467941655856 0.5952906002563167 -0.5531659031721247
Ni 1.6847986848086884 5.103959751011096 2.8839201942484793 0.541941495211215 -0.5227672362756093 -2.4675918335641054
Ni 8.668546556158837 5.15118029960872 11.234206087203717 -0.5657511960363031 -0.2887899066200575 -0.25921399273515355
Ni 1.9537807814835555 5.820727779335612 7.059028793376081 0.5728464123201876 -0.1294640430318093 -0.8054836830080774
Ni 5.028837861920855 5.452740622518137 1.4794354085501418 -0.7472088585265841 -1.6876793141569126 2.146954700526464
Ni 6.597561324140525 2.4938340465329056 9.309232851639234 -1.1463625970138902 -1.0846093270654935 1.5490256342060356
Ni 7.001956671975179 6.423236760017172 4.047723217638727 -0.5777183957005082 0.11786194001650668 -0.9899711334636178
Ni 1.7323956427215585 7.911154552486385 10.548525704225378 -1.023033206124909 -0.3863326754632379 0.8787380116175383
Ni 6.759859610641764 4.4323890712147564 2.2069715663605605 0.8666075469025913 0.7708241839526789 2.150149039094045
Ni 3.786103687170074 2.4776390357444424 13.720311509471333 -3.538347028355325 -1.0548511219664545 2.591919069589981
P 4.285307131282341 3.110401915138908 7.861199390213498 1.7034036668707049 0.16698929367077694 1.5084541405415761
P 5.337192372970465 2.9164664256912336 12.572235808295355 0.8105793523634299 -2.8661025391507735 -2.6894836928100325
P 8.35097942711858 7.434074565877708 10.900021427918631 2.8206189528966776 0.2804356211180912 -0.041402731316502885
P 8.185792199122826 3.0221903921109834 6.752927092078219 0.6428158995307897 1.3131827120966544 1.709613909446475
P 3.0330498008558333 3.96323250069201 1.4788707945772726 -0.08819835151380294 -0.9684245176410935 0.5016283974144651
P 3.2421639959408077 6.270207552903868 5.227325081013142 2.388784179236583 -0.7254411278321893 0.3464250406350227
P 3.3859053032004143 0.1580834431937714 9.948994121227413 -0.640813267278464 1.6404787452117102 1.9112691299305538
P 6.3833938339983725 4.584703100629094 10.972398352077441 2.1028638808548368 -1.053588967424579 0.43456708498959346
Ni 0.40193457193623233 8.88254466210913 1.2546842294865563 -0.9517218601744318 0.30823618827012716 -1.032218986389235
Ni 4.600869880718913 6.19242256790826 3.4866597256356275 -0.1780967164378481 0.3767532593049189 1.9466518803052217
Ni 8.376010646582445 3.843063826799691 9.193637550927155 0.5706648312878365 0.0356498879931257 -0.5524634777884614
Ni 3.7108500548194967 4.395990290430458 12.486141587665688 1.4759453692805937 0.6100003956626656 -2.2912570941226864
Ni 6.6028216443210885 6.577809245322986 10.265645634608335 -1.2970698656951918 -1.3239201531188167 -0.9375697370437659
Ni 3.100464709216411 1.98222791548328 3.799565025306563 2.9500529140214997 -1.6315444188365578 0.24660735971473657
Ni 3.1059696954518854 5.722277922932993 0.3016149022601283 -3.8156605589046673 1.9404676058713806 0.5120480500858923
Ni 1.559934304708674 3.3496100349778084 10.858399967885292 -0.1857174662078995 3.633105035364517 0.06683582667762682
Ni 4.582811643819982 5.0291483996059325 10.206959658268314 -0.07427274257164627 0.04061211709440748 -0.0661565412224151
Ni 9.330236491429966 2.0786263411178076 13.445777375396585 0.681186014668556 0.7685305028224958 -0.6106619405060644
Ni 8.290913910638182 2.9284362419160597 3.4652298022953785 -0.29851407588635687 -0.667207955221909 2.36041822649938
Ni 2.6364837667782988 4.867235932652821 9.167731179805342 -0.2141698080113215 -0.39807978869683697 -0.3219494240911616
Ni 2.0325726613974466 3.593382117764068 4.48437778481326 -1.5734133190217805 1.6317030559016092 -0.36492207099794566
Ni 3.569226049958149 0.8040065332725296 1.7743530480687537 2.8733566496100256 1.4722671490980581 -2.632805780502014
Ni 1.937726924188309 7.903711058277394 5.911324796398909 -1.3321931917608862 2.5175116012126835 2.75964806964026
Ni 7.505150054829055 6.9400843907816006 0.6678329352959458 -1.2305106897177194 0.7063311464756158 2.487434322211329
Ni 1.7461345827280412 3.614611603143948 13.204697560237623 -1.4798364768048835 0.13723314545426687 1.307904751527167
Ni 5.72764175567525 0.36871833191233977 4.058714369643914 -2.1689659146902325 1.9572746501263902 -2.2338366472216884
Ni 5.1976103886443275 1.823674901668739 6.151935981960389 -0.38551197933415543 1.836927996014817 -0.0939931038187091
Ni 6.467897725271123 6.362493706769332 6.837988069137534 -0.03559666615768708 -0.08182073012223329 0.27106600697773314
Ni 5.231129638166993 8.850747485203714 13.091223326016957 0.25308036903358994 -0.07648543395224892 1.1040067577554988
Ni 6.220653266551718 3.917112949341481 7.507512964305511 0.49142111786416015 0.8141572995226753 -0.862977920569804
Ni 4.616886097082635 8.12036284990017 1.9124256310407541 -0.14586176766354234 -0.8945225281453045 0.225373904257257
Ni 8.220186600303437 7.567229361146018 8.719011753053882 0.20207559585094878 -0.15233966207840216 -1.0173829498176672
P 8.08051051364849 5.149307663265371 13.404183205038601 1.6833007254732428 -0.1826246862151887 0.7440692844563379
P 1.5285135371185052 0.8321280732145662 13.516735236436917 3.0128446525367405 -1.192786435694068 0.3651370152222292
P 6.162827385497035 0.13727365420039045 1.753969542624889 -0.2501567676288918 1.3491930687529925 -0.15391960497101234
P 4.628470093759334 6.080309053362208 8.308747242971254 0.7929737234665247 -0.39383978247356044 -0.991711513193492
P 8.59085567349204 2.628259223240171 11.173329408648963 1.0960419943824673 -0.23265603974096707 -0.7296358826398273
P 7.179847714360488 8.46846618463977 4.3634242974986535 2.531130477547699 -1.3035328477117163 1.548199024539682
P 8.137357730483533 0.16480705458735498 13.342343859660106 -0.6306800354992042 -2.1031983813761195 0.7881894147040038
P 8.630915034867108 5.58624359640305 7.001210440507704 -0.6058524349325631 0.9573314930517255 1.8700268354513148
