# total energy = -340897.89375335176 ev
CRYSTAL
PRIMVEC
8.99335982019822 0.00000000000000 0.00000000000000

0.00000000000000 8.99335982019822 0.00000000000000

0.00000000000000 0.00000000000000 13.16269115960987

PRIMCOORD
 96 1
Ni 6.272553676631462 2.023721790384203 11.476892267038288 0.6631934347458772 0.1189564586322661 -0.917329241627175
Ni 4.525584546654564 0.3540424936639379 5.959277183499168 -0.01945810872461165 -0.6697222370033304 0.6440469437244134
Ni 2.733873451788756 1.6836109103502968 4.837420303550636 -0.3220725799325873 -0.28622368855477803 -0.26265644275779926
Ni 3.194189578597564 4.3894700464347425 4.717811316528928 0.018384673154774787 -0.2052707057494787 -0.39982633907429854
Ni 5.011136040996692 4.5681770985568475 2.5197604415619 0.22757605411489837 -0.3781763649046906 0.47517508831894295
Ni 7.101381713648884 5.935608459238942 2.647043462481036 0.7399737742307256 0.6113659085516245 -0.5907279205862987
Ni 5.19121008380485 4.383471475463708 11.559409940333097 0.03373338769670319 0.24184696221161578 -0.7157820074758705
Ni 5.751244583817315 7.537829463610422 12.18491340151175 -0.7485998253368398 0.8623716544443729 1.1802337958400384
Ni 1.8187451343544607 6.532992382403896 0.3554607465007179 0.1570596932618908 -0.9772102342535235 -0.6218351835140645
Ni 2.8014135837115086 1.4842191307418628 0.3365782883136327 -0.8697913439472117 -0.08525495261476285 0.9079120620783332
Ni 0.5286827484950349 9.221881048589776 4.795984297715631 0.6218169286816194 -0.46079670811008383 0.6952864586256801
Ni 8.589953630522652 2.2322957903246112 1.4091191805908465 0.6293590026949355 0.6131150300322473 0.29653072690774096
Ni 6.775642222538087 0.9448783515755027 4.822888832823501 -1.0043849948961026 -0.6883532218409565 -0.18194360098776405
Ni 0.7462060407492023 7.337250560511469 2.433044667923344 0.3987500752909843 -0.02438742770542897 0.22281231417766786
Ni 7.583515731275879 3.8124650765237105 3.8956824332091444 0.03856346209549488 -0.2083118065686477 -0.4248274891043264
Ni 7.633446864755922 3.734420700381814 12.660323983369711 0.05370648838452041 -0.4879727543042434 -1.3966808299213107
Ni 7.881061039486832 8.954445508911098 6.694689393844418 -0.24907510452893877 -0.5772609964481156 0.6732665027111632
Ni 6.814232729339756 0.7539331354693125 0.3574707624108025 -0.8975312330646413 -0.37705613525731835 0.49017644682378164
Ni 1.9750317405533404 6.462628335511272 9.187400507206045 -0.8919879346489089 -0.42560087693524123 -0.5748040502671906
Ni 8.947097933973561 4.915302799216553 1.1584328741602279 0.6341098871163595 -0.27198363369599604 1.6194874876720238
Ni 6.309795179466631 2.1394573373501014 7.024480393534601 -0.6023755321275562 -0.3743194530524457 -0.09149167755309404
Ni 3.3887789040852585 4.118095415173884 0.1317886941672449 -0.20100884514933126 0.5502723836744137 1.0162058987904306
Ni 5.992338572710143 5.610327629476756 4.787849803797638 0.07867421407345161 0.5891358935088304 -0.011309254365232134
Ni 5.183044113127638 2.863090045059875 9.33470454565999 0.979738657102332 -0.9932672877163861 -0.28514176834450894
P 0.17411324394818442 5.468493352438976 12.277553101235194 0.9306149029924875 0.20353752510845594 0.11684224050274071
P 4.039232643292311 6.0707606699626595 12.604132572149132 -0.20205091326060043 -0.09849561967475295 0.19009939732567904
P 2.4259587997553096 8.297165809633555 1.4768148976377347 0.86849242263013 1.1771248178974116 0.06870501867588168
P 6.316854966891313 7.683800686145468 5.6655378651457005 -0.18751595286921896 0.53323779678963 1.0032704216756851
P 4.699138403624639 1.0617200817939307 12.671551293714899 0.49952240681505583 -1.233880891741533 -0.8779574246977719
P 3.937140023107613 6.153877301018595 8.178098222870403 0.167137389212867 0.2921721928287291 -0.2673697890730686
P 4.647831286098767 1.1294580676317696 3.9168617954831895 0.6830194683328688 0.03480888014906908 -0.49338878311349216
P 0.2139466330709878 5.556691231768728 3.3721762626015575 -0.053412868403501554 -1.1966649448128681 1.5983342506331764
Ni 1.4424359812194787 0.9286273504590695 2.719583003103636 0.6483599692774704 0.11272847544468327 -1.3126481797494232
Ni 1.7608728641916231 6.5685970937597125 4.758905574692419 -0.024734526632202564 -0.8536227046071492 -1.243437939302349
Ni 5.879471907513001 5.487397394689525 9.139409241429828 0.06410402956876056 0.6608794419007199 -0.28032686345436886
Ni 8.567677078355855 2.2792321349990248 10.184105792502509 -0.14571752877619418 0.31551086755466956 0.18058271608449544
Ni 2.3605950608985102 5.305938374475761 6.840821597519464 -1.2234509546574608 -0.13986261265731398 0.7110918010890527
Ni 0.556178147340232 0.07684376261171175 9.178686840918434 0.36029408530763113 0.37490772145574786 -0.17737706466300418
Ni 1.4350704195623902 1.1069207080314476 11.361627072788707 0.20910961987959467 0.054700476866673536 0.2361062030730966
Ni 4.299734302583182 6.798044681741759 1.6906814898067104 -0.33634220247772395 0.6053222734607059 -1.0932968275371624
Ni 5.511598525848529 7.825437109268161 7.934891693766037 -0.2632876485838949 -0.24458672974028198 -0.2820348472844111
Ni 5.20107579947985 3.1270631412245384 4.811121920891713 0.17708293046135307 -0.6294667319173933 -0.10038923715304
Ni 0.660573067627756 7.386408265050719 6.698045715713069 -0.7447408566020658 -0.4734138826534621 1.7014429435999086
Ni 4.850199867793276 4.595624832595227 6.855735286037108 0.34206264990126894 -0.10745077198551173 0.3593690023902004
Ni 8.24233329507523 7.191666052446822 9.091062737942433 -0.9016321426068924 -0.3587730206774144 0.1477255603451585
Ni 4.593214612175082 0.28062160378322476 10.56141410790868 -0.06655891886715634 0.20496782979707925 -0.7698466505307581
Ni 8.208536249034525 7.340686023946155 4.59874193109382 -0.6711584552292248 -0.955579029136993 -0.47455982333244723
Ni 7.314479373556955 6.1468444936732425 6.996141417542353 -0.8957700273991606 -0.11642237935650272 -0.12948435474678344
Ni 2.4621121060575017 5.149813648752862 2.3282171670305623 -0.7638675501291876 -0.2468274461453427 0.7857730919530274
Ni 2.4336840958034647 5.228568500317115 11.197264429510383 -0.8941242642656214 -0.26701703371934016 1.479932636063116
Ni 1.0045223136143433 3.1760409785682544 3.6444196524168415 0.1108382004005059 0.9940998109200103 0.22651727383308085
Ni 3.668922061128365 2.612355174486463 2.58885102871015 -0.4292359025846672 0.013992200514033968 0.10221317773565623
Ni 1.2631713407912206 3.447568496945316 8.263655651769724 -0.7431673414673589 0.22048315182385897 -0.5320237218768709
Ni 3.4765540955055063 2.612157320571376 7.005882125516459 1.2817507188396184 0.05859081306001522 0.8653826733565547
Ni 4.030536064388277 6.818621488910768 5.942770770965078 0.4089966927196569 0.8529470186963632 0.11063585458171268
Ni 0.6519322475543365 7.281069041986645 11.187484150753262 0.1720667081936843 0.21316142135146512 0.4032965570110861
P 0.20858119462822963 5.591846275135709 7.942052206820217 0.985781263751986 -0.43011367720393023 0.06590431600229295
P 8.371837675859203 1.6133637771347684 7.961611864998485 1.0955750820483776 0.017137688121551132 0.2873058658753633
P 1.752158298568035 3.313198708522168 10.40131611583645 0.44856211371710486 -1.1042746667049046 0.1618200907650116
P 4.084352329291838 6.165541688648929 3.81104682368693 -0.824434255968651 -0.6324129590299108 -0.6778199264098004
P 6.974017752491758 3.9641290957973845 10.25277549041321 -0.47915695578482637 -0.8372823155759128 0.7054137768676689
P 6.277949692497462 7.6495179986768225 10.079159579260676 0.40329090058413125 -0.4472341389343007 0.007782986379528531
P 2.2899342331332555 8.394554902655058 5.875745958557529 1.3940768166395603 1.3085554977372884 -0.5460951123682725
P 6.980412031292967 3.861901575216036 1.5586733576609149 -0.7775111090545512 0.3306292112533467 1.1678665325239372
Ni 5.278418693559167 2.7865205799213517 0.5795231106484982 0.05880292907082131 0.7712188482879363 0.05869957072373761
Ni 1.4630577551873707 1.2168735246609508 7.044514001773099 -0.5151380018651257 -0.4827706412780137 -0.05413869082593257
Ni 6.836761095580301 0.5383676976385251 9.071003048960582 -0.446201069684096 0.4474935632432745 0.6361014636250916
Ni 2.703655762939163 1.5998197773111111 9.326293056260877 0.521718740406437 -0.5628193671014887 -0.9106775406386123
Ni 6.304543057357059 2.029216733207745 2.6463986385850493 0.3504318478015707 -0.15306291339767186 0.06859394701931414
Ni 4.0956300024517756 6.775399401824117 10.476528482984675 0.6259342932841027 0.39325254251152275 -0.7485954544614656
Ni 7.965634594826587 7.089420545145919 0.2518032817148803 0.7395950507350681 0.38245108102064457 -0.1357861285950952
Ni 7.763985481914211 3.6713592616278405 8.20044852058737 -0.21391758279119935 1.240692772457044 -0.4779716772274736
Ni 3.162703826019461 8.206899457555172 12.41956544679655 0.5067166105706499 0.3984597977440751 0.2829866696747191
Ni 9.117108407191632 4.835837472229943 10.141735376586709 0.12688496945072342 -0.26754745230151344 -0.4042758902052199
Ni 8.61406482808389 2.3458999110234404 5.763850576216266 0.06885388554892012 0.6232616315479459 0.398125811443424
Ni 3.645413418672163 2.6164381598250688 11.359929126462875 -0.2375611903520683 -0.07187158932932139 0.09497629366758481
Ni 1.1639386090155022 3.310401773631625 12.69904849123205 -0.5053336141801943 0.13231745332020436 -1.1768926472819474
Ni 2.9106739116382085 8.330944868954708 8.043720340423457 0.9560605967591017 0.5309716264632727 -0.3398769551038598
Ni 5.636489313067074 7.871069416774958 3.566154938960417 0.7024798910503256 0.20021745959628742 0.36750422990282516
Ni 3.245937370752493 8.226379074831428 3.7332416709150933 -0.6960613891184916 0.7978243666906067 -0.05624056766028378
Ni 3.4430538303374303 4.253202659098719 9.13727691582678 -0.3932366016719227 0.4251948997460741 -0.057374681264726994
Ni 7.261265663758429 5.921893585579529 11.298261658474283 -0.17417321301372582 0.06991009472757638 -0.350188621442513
Ni 0.6221246559105591 -0.014651082412164505 0.2865653152596225 0.11525612696254343 -0.4172949281727071 0.20380543405786192
Ni 4.572287063974784 0.33714307130760723 1.800748522105377 -0.21905850356219045 -0.1598385415586086 -0.8369856102711005
Ni 6.047054173591371 5.479114510335218 0.4063325854133996 -0.3668043756223231 0.36259573685761426 -0.08396554437937798
Ni 7.798277162742633 8.784848730242754 11.487488243527155 0.10020720304922097 -0.06308278739309782 -1.0314515120955912
Ni -0.04774394838235769 4.837294396513762 5.705697713228397 0.8440810836653012 0.2240140477952529 -0.051518479594266114
Ni 8.057618678622314 8.822665808103629 2.2962448736885417 -0.7491127604175164 0.5670498602430686 0.6095910760393889
P 8.391056485701935 1.579656664691829 3.568497709182238 -0.08739385333463659 0.7928294845791766 -0.1281034152388568
P 1.802674000433561 3.1355798529330396 1.5820372070247122 0.3356040387601188 -0.19222055743373992 0.25684137873791896
P 4.672994706753874 1.0110245127328719 8.14939051912731 -0.09473023909504975 0.06795451366310232 0.3879799812586738
P 8.54247768426164 1.6209002126276135 12.409482091814954 -0.4088604242521087 0.26387925942130686 -0.32902535710133657
P 6.348601526902939 7.823593470513944 1.422794483467243 -0.7761695074249924 -0.5835591707520014 0.08950035815467812
P 1.737274288137655 3.326454920832972 6.0138758707033 -0.95817661466084 -0.28414135210445257 -0.8063396032504694
P 6.83997172502057 4.073560297559841 6.081952906204719 0.3752543061618892 -0.4551659921868677 -0.12312858773208472
P 2.372547236041698 8.347681511499081 10.33542446676076 0.32282539893821177 0.6997768902968657 -0.5243055272970067
