# total energy = -340858.9493395484 ev
CRYSTAL
PRIMVEC
9.36054949383240 0.00000000000000 0.00000000000000

0.00000000000000 9.36054949383240 0.00000000000000

0.00000000000000 0.00000000000000 13.70011036306885

PRIMCOORD
 96 1
Ni 6.490380364159192 2.466149090107112 3.860732428195437 1.148463702517293 0.6283840403761758 -0.3240590142349967
Ni 3.5003213190175964 7.360537044881108 10.002313444820889 1.7614429783026246 0.8972070169560031 1.2253867382275927
Ni 3.463787094352605 8.401458229974901 3.249022391041381 -0.0495155902316244 0.19520046599767027 -0.06214510607017685
Ni 4.20717385331229 1.0426622472991973 9.699157072662237 2.250379124961402 -1.5623807153567029 1.4484204243874474
Ni 6.993416293827821 6.0651399613137125 13.247801292374312 -0.11721865000555297 0.7301956117980392 1.2178454355452253
Ni 3.977035383516367 3.2979649601121923 0.9761630316022887 1.3661394667993438 1.2342758131871063 3.555229920153593
Ni 6.391617206475275 4.253639620987673 2.234611218162223 -1.9861052012048377 1.1368983662771968 -0.7682453674819091
Ni 5.257062444818859 6.68918907480735 3.7423355179532773 -2.5869275299126606 -0.5658566112659158 0.8541263837164452
Ni 0.42560078400090007 3.3729148798899504 9.825198743674035 -0.8120438527240982 -0.5623362568174831 -0.4739365879261515
Ni 1.9038234399598628 4.148183670417394 12.259009007398207 0.5358533800356061 0.375337867014631 -0.6199850176792032
Ni 0.5908144825243704 2.258223204254316 12.709893571630365 -0.8511845274793018 1.1545219928962311 0.1780607209935901
Ni 5.798542151248728 2.7802984915884825 8.674676756695163 -1.7900153906236786 -1.9746319104579155 -0.38401662573555156
Ni 2.1017990617032845 6.931000149819067 5.396816384780631 0.9150594717563919 3.3572261803791728 -1.5143275686032178
Ni 8.330495904280486 4.4612940509052175 3.3439776771921905 4.14708166993169 -3.303390622615956 -0.06680291655716238
Ni 8.003550631644352 0.9845706771554774 0.3414625488423695 -0.36129630131990037 -0.8418452523562469 -0.47292691571471457
Ni 7.349978345054791 4.281917841001237 9.058814050668891 1.9098606796188013 -0.3263840628237476 -0.936916162620167
Ni 6.622804057814236 3.721876164929892 13.439328431573097 0.53684865406934 -0.0005705277914893399 0.8104094024444688
Ni 3.4000698339645443 3.368421816134071 3.38713261851246 2.4915961668985025 -0.5973037740316035 0.2593790575581081
Ni 1.530037977668689 2.9752506558461778 1.4919424133485293 -0.156294275850776 0.056157006807541994 0.8294152541230103
Ni 0.09062790412092844 0.4577177653608932 9.553005197123083 0.3164884009765904 0.3561438105846834 2.0876578625383595
Ni 1.6421867211253292 7.451053558463087 1.9404428456252263 -1.1753451002891695 1.1363584346133269 0.8501038928206134
Ni 8.382362709012416 2.869616854835562 1.675386718061479 0.21492391256852664 -0.09888822712748131 -0.2274349005513438
Ni 4.389414391360643 0.42966139037027573 1.1859750681776045 -0.46807318716683904 -1.2918520689396784 -0.0872868954431271
Ni 0.4387224022779653 1.1821905980182255 5.784556554253606 -0.031573403930906914 -0.4778330947670803 0.10373398525555683
P 8.087655168824712 7.907923258040058 0.25566749642385844 -0.5931563275221333 0.7133985948453585 -0.302903206092988
P 0.7989388120263842 0.8342795666312205 0.616635558296438 0.35504877774829174 0.5337826135495065 -1.509561514673142
P 2.711788629860818 1.3371264132001226 3.933863593207013 -0.432656498230442 -0.19423604520187193 0.3965132155406655
P 2.1645521854937293 9.41268775208193 9.359984114225467 1.314950859740671 -0.9473036765020781 0.5667323290026498
P 4.793153612024344 5.330589561073922 0.9209722957459582 0.8144838296241586 1.5950578938747497 0.428951538575029
P 5.476118024016947 4.574350767662525 4.60441498051905 -3.129005807812056 0.7570327865955414 -2.7282834392860495
P 3.1925183700914053 7.8310169834185945 0.6010006324809279 2.1735211381610826 1.1026990946876687 0.1783330008183703
P 0.5302339422708832 4.442732081263742 0.24172027768165047 -1.0990818096500554 -0.4013525459108378 0.29919464689314923
Ni 4.788866480357276 1.1173126294932298 3.4544967489823755 -0.6474983926081236 -0.5946290554129179 0.39034385350516
Ni 0.16897008703437502 3.698530954498304 5.871963493294538 -0.392619279802898 -1.9860923456890314 2.4484931650614414
Ni 3.6403644999586526 4.072915491956928 8.055404331606994 3.7696393549795464 1.2368602860848312 -0.8528292621715765
Ni 9.443109537929026 0.11655943437699472 11.943140072975265 -0.5490498241212223 -0.3375243957112832 0.93149936247997
Ni 5.399333436538872 5.477203847757951 6.645143009175498 0.07580589138672106 0.24490477520133308 0.4722098350430319
Ni 7.356034620575737 6.069015228803157 3.979498144087558 -0.8454201141916988 3.276916487584827 2.5576524350976273
Ni 6.684696011051471 9.454529408308552 2.2582306926939095 -0.19582678672775952 0.6949514438837645 -0.061149060705494696
Ni 8.725632779961577 8.129955491976418 2.5216009852942536 -0.01557728561296672 0.6797654801719455 -0.38574055040519367
Ni 2.6319712243475246 0.11348823808886155 5.7699934113548625 0.47346016251036527 -0.25716122397118296 0.03353566986360031
Ni 9.51340726460955 5.741302391108727 5.327904019424834 -1.2416391955307133 0.7778566653194281 0.12856158582219795
Ni 6.536050485127804 8.686758417923732 9.307375017918869 -1.015001079849052 1.9723042907660033 -0.773535669346571
Ni 2.4366071959122073 5.15901068889629 6.45475224068497 0.49480700361725755 -0.7625912545199254 -0.28585987745745606
Ni 0.3217464234486026 5.708091161513187 7.6050411499815045 0.9558374250047023 -0.8911379279437879 1.6688603816781966
Ni 8.474264583919126 0.5620504499922019 3.8656776064917513 -1.6749369268895797 0.22108710395644504 0.5140347414986179
Ni 1.4497057419333677 5.368209609479918 9.915920253289876 -2.206624862693587 -0.2938125566456295 -3.23662781526811
Ni 2.6701529057230053 2.5859266813992554 9.292510465326501 -1.8926628276832755 -1.4911796697318447 1.385729987336762
Ni 2.9273620846480997 5.770497944972449 3.306411919973245 -0.20428494479744172 0.33242795502498235 -0.12846722633617874
Ni 2.0952092348613287 7.343669334697577 8.244781352587601 -0.5205375756141423 0.4570094731535097 -1.6430321077611831
Ni 5.5972622555348375 2.94172116756793 11.072895403088129 0.6699294679181301 -0.4361313441529198 -0.24639061571824017
Ni 7.111537067859984 4.014430778734568 5.579643829282095 2.5494824976923254 0.829916619239461 -0.019476877777689038
Ni 6.771889529564 0.8892858996625701 10.925851467182444 0.23032842004905493 0.7897462176681624 1.0113352009616903
Ni 5.560428493286119 7.497332115148643 1.6266276157606996 -0.7974037342134204 -0.9343242335232748 -1.4801997736815733
Ni 8.471690432808986 7.4095769636666295 8.916593605916132 4.082661394674091 1.7715808380675748 -0.31490228743639315
Ni 5.387782518466466 8.882553031635654 5.512033516360557 -2.0917616002940878 -1.031027022963663 0.05203938509474264
P 1.6473163022466244 3.69804420592475 7.764250056006232 -3.526884279131365 -0.11957943692824569 0.20824572921740264
P 6.805344133446316 8.168801772365788 4.1632990857361305 1.203541103107411 1.0828054410875352 -0.537140731388462
P 0.4355594726048162 6.501379009811605 3.4817874310245953 0.6384290833170037 -0.25663337649217094 -1.202750745995632
P 0.6633306594343603 8.857925425923742 7.445900575968063 -0.19262499196101018 -0.5764343867817621 -1.701756361075269
P 7.260865913896524 2.734413077981568 7.1293314724431625 0.9392666651302146 -0.5956343567489807 2.780677379506734
P 8.439883285637158 5.608635323166905 10.238544696280773 0.9617789873001179 1.033814355900813 0.9948747414128222
P 3.9749105387818155 7.150729688580537 6.619496039623971 -0.7376934628369811 -0.4104982169658478 -0.7149109177248268
P 8.706481095702141 2.541585758458424 4.305574757730889 0.3288075846635757 0.6641773959257012 -0.7603140284499744
Ni 1.0376824349697646 0.6269480756711295 2.632900726912022 0.9522828748842245 -0.13470395127450996 0.8591166378421848
Ni 0.3066047985912901 7.103196818263132 12.690877615338557 0.2840958435784978 -0.7725601928071792 0.7211011056959388
Ni 2.1563242624907755 5.888674882301561 0.4260285611126577 1.1339991903525308 -1.1840817088312188 -1.2271289177296802
Ni 7.4538149205630555 7.76647599467529 11.533232250196718 0.727187935319967 -0.7191043869808841 -0.826611723235944
Ni 7.391904246226838 8.518081316088438 7.0063731664338365 -0.7302064104313166 -3.127651093556375 -0.5762310125217044
Ni 0.8673606845888294 7.754400885831365 10.47348793613064 0.4723396757526769 0.22220321983875926 -0.10881808464668356
Ni 3.5377260747852897 4.775742989970312 10.54146799075709 0.8702356305734819 -0.5305329962639572 0.7238218470612114
Ni 6.1557781620390815 8.919714413116571 13.19317874187211 0.013400075455989825 -0.6047250061963391 0.6322918600710143
Ni 5.426319900722621 1.7822673442643506 13.243047069287622 -0.8353835558913032 -0.22515021828222512 -1.2511059973705678
Ni 2.849210856944278 1.9635811879130542 13.574151234062793 -1.0665175025607891 -2.374665223336698 -2.594379872425648
Ni 7.987881071795724 6.193445013192533 1.7250219677946548 0.21205918942622187 -1.3898591790137869 -1.1707004024283063
Ni 6.876662160021405 1.0803290984526503 5.952711337427278 0.35263811142427015 1.081425272910557 -1.6553314939538266
Ni 6.597465050340977 6.579249421030684 8.94160967443194 -3.4810862469606434 -3.4930611599343324 -0.9090430903589829
Ni 4.764285677392821 2.7817587373091435 5.912871902736868 0.6464146726256416 0.10572170510954695 -0.3353638977248547
Ni 6.3250824206903 5.0725566537935824 11.243899537526989 0.7325252883724804 1.4653462536085085 -0.16876309774174805
Ni 2.6426516113172287 0.5539882087152465 11.452922479780177 -0.7269251685768835 -0.08252341261621272 0.3659895930305116
Ni 1.3668836000333298 3.8593826369587747 3.844264413475191 -2.1651275147807487 0.7750839876702975 -0.5011355169384466
Ni 8.490083912559616 4.534465466279606 12.244459905323701 1.1321392543256568 -0.4761135409728123 -0.6687159072260032
Ni 8.44764318116554 0.8652358398542782 7.764880020987004 -1.6670644661200387 2.6347294798872887 -0.9100972426551102
Ni 2.314657957138056 2.8061804109322446 5.779035702163569 1.2694690732587879 -0.9744028467117154 0.39508445351393895
Ni 9.289016172201356 8.136723169258708 5.168695113400107 -0.2840310517788334 0.1844311432963082 0.3616182034356933
Ni 4.444959892042698 4.3719944087571205 12.773339376083177 -0.35170145854261364 0.32852836286026 -1.585099240000141
Ni 4.917096647840167 6.780950541471689 12.494678625888605 -1.5840998522013492 0.6485954823270443 -0.1726583190310962
Ni 4.229423879453383 8.875570061715058 7.769770908096269 -0.016097676892810987 0.1069640621570803 0.7033527805735823
P 2.2356268377820414 6.381217635990314 11.395971024564513 1.061410777461843 0.7901182562956006 3.9013004056626746
P 5.927670931482794 2.2309372024868424 1.5728821487458433 0.7326839254375318 -1.0014071432147011 0.5567649333772927
P 7.74179222566643 5.799955594221932 6.880099353794652 -1.2258909315575208 0.8840828208692194 0.08708712072749517
P 8.596326149287174 2.013416753405347 10.939208971306691 0.0652751670587263 -0.31247773715530053 0.7934100396729948
P 5.247664453129478 4.806754490435369 9.384603295442837 0.562040322843619 0.622599829594231 -1.2884834095777615
P 3.6011906003370817 2.5691338556116574 11.421467289269229 -1.527174342658899 -0.34526290200612153 1.2192112055445004
P 5.342252805740225 8.521423032256873 11.134024471541812 -0.6003181353778951 -0.28741128110497605 -0.17552407061466546
P 4.107952028703294 1.7113237396689185 7.688542867774618 -0.19694855903702854 0.2804183947269106 -1.2386307477216927
