# total energy = -340895.2307493657 ev
CRYSTAL
PRIMVEC
9.02361243114381 0.00000000000000 0.00000000000000
0.00000000000000 9.02361243114381 0.00000000000000
0.00000000000000 0.00000000000000 13.20696891370470
PRIMCOORD
 96 1
Ni 6.346450914357313 1.9691687724077231 11.428478982322364 0.7222665867589497 0.26055456592344806 -0.6833794227754488
Ni 4.717860341308894 0.2661893442105814 5.908626147510653 -1.073247107975139 -1.2997366138940776 0.33080636026115934
Ni 2.6943062575179066 1.5936421225776412 4.963891837983541 0.9004183248044493 -0.21957246708413156 -0.8231497328292726
Ni 3.3301009571617395 4.2580170580682895 4.712312624461634 -0.3565204771978118 0.7927608361247702 0.2908267345444282
Ni 5.054937379092503 4.818031461545431 2.5346018550761125 -0.39519783916335166 -0.28283420325725483 0.33272131789568504
Ni 7.253278833298925 6.021411375393227 2.772288315087869 0.20554170002267824 0.24353334877510316 -0.5096978046861609
Ni 5.084507756627422 4.458774384707555 11.526223653209147 -0.0648355084181464 0.04317139318115146 -0.20124718641238246
Ni 5.464907157104088 7.623174749048508 12.252461116659735 0.12604293316540227 1.192581518772114 0.15172671108475158
Ni 1.7038474997012185 6.384304967991425 0.2893845396495526 0.6007022581901913 0.05375328246205582 0.30132814829638427
Ni 2.779335756300799 1.8391746134916294 0.4076371742298404 1.0714396224527547 -1.4871638637042324 0.34495385540613493
Ni 0.7701292160803099 0.06723222822685966 4.396322866281733 -0.35275329684589574 -0.9663835759516648 1.468859666078406
Ni 8.559284289931167 2.4781726955049757 1.2630025298149072 -0.039404727049867624 -0.2652339736769884 0.6102819314588264
Ni 6.9303147251657915 0.6256332098232432 4.71054309408794 -0.9061053478868976 0.10083763754436828 0.6271473397555974
Ni 0.7269413052106503 7.21740997437268 2.302938656280272 -0.22562587236706305 0.6387031629139968 0.720509751968843
Ni 7.665351112978387 3.738392343283945 3.772147872207541 0.401230932731309 0.10593022157592724 0.024336519862835505
Ni 7.3542891494801506 3.989546544666122 12.553949929859893 1.1591602629991906 -0.7532437518667544 0.24099464151364944
Ni 8.112913259867137 8.700973050399062 6.819973091496355 0.01312393897646772 1.15979455414908 -0.13155897788762505
Ni 6.968674101089179 0.6438545901577754 0.34094997218641343 -1.1186142232560283 -0.7654045555990044 0.5515296531202823
Ni 1.802836526725344 6.489646618080726 9.23703337264209 0.4274993795095347 0.07353432174372497 -0.15265359377439514
Ni -0.08017479536092557 4.898476965275611 1.34638431699027 0.35249387253692194 0.08889820579430496 -0.08020376334410058
Ni 6.227591893029895 1.9491363530828774 6.629304163417981 0.9043883651957909 1.4044591883151492 0.9571697706628806
Ni 3.5550596120123723 4.274015922691241 0.5796461744154904 -0.3788407379615669 -0.6945351822819523 -0.25194188455377253
Ni 5.801884935152304 5.547590516686775 4.819513138686485 0.6076822890524501 0.8453560937229827 -0.4114112156984205
Ni 5.299143398997144 2.972558366662476 9.256843811104147 0.1480646888521321 -0.39790289679934054 -0.39432392119883053
P 0.09291252649558876 5.535155978925675 12.314415434047358 0.4263017596570078 -0.37079395639769047 0.5699521214915281
P 3.9257135111958705 5.986300499900897 12.71504848040335 -0.6088847940009837 1.4541136181174827 -1.2625834018825481
P 2.42338132156783 8.618082147733283 1.4158923002413306 -0.7341353131720777 0.17284832355471522 0.4239363447486247
P 6.424035932985703 7.788288807069242 5.845166691589974 -0.5026907772407084 -0.5210319987520575 -0.4610864714363608
P 4.874582439882732 0.7853962657450426 12.623986696792233 -0.5072691406400103 0.43190547899703036 0.124824744487585
P 3.807901228896237 5.963209076003473 8.193273039280387 0.45717710907962555 1.204020870957307 0.6430629825445893
P 4.697701591411729 1.1918657845421645 3.953480068630322 0.460521085851194 0.05427007419747428 -1.073539956625209
P 0.2632629867389384 5.514067796960737 3.7723987286297174 -0.13527422195568314 -1.2933762188936888 -1.2862282949949977
Ni 1.4576382378640937 1.2968284429145096 2.530006129327399 1.1273246065458327 -0.7182646646884082 -0.8904635275845826
Ni 1.761842256007878 6.654733605264535 4.875365689431109 1.0920945796989452 -1.1262468001006216 -0.9384361988091193
Ni 6.0820139556570405 5.59509081187866 9.139605430547332 -0.6387265599527645 -0.22089118589555506 -0.3634488288865289
Ni 8.768984016368146 2.3398136479789127 10.303878813372599 -0.42057822690966923 -0.6895966073297543 -0.3805718617200607
Ni 2.212328053284579 5.15099373211637 6.992073230166321 0.7274427316432504 0.04035912054333694 0.032967970285588385
Ni 0.6953703928269395 9.104373638650067 9.295777991131583 0.25355473756684715 0.4116953225977426 -0.18748947050665773
Ni 1.7179784765763124 1.119036209600349 11.622647267253967 -1.1779591408732486 -0.0032694147798911434 -1.1024520116738692
Ni 3.9397181574986453 7.013413170914666 1.6979541785025443 -0.05414691835604868 -0.4280755637279789 -0.504149364064106
Ni 5.5941613798108865 7.855234986785923 8.034829235478089 -0.5034014301544879 -0.04418749315049164 -0.7153513476963551
Ni 5.315584420623211 3.15767777317113 4.500551904973397 0.8360890665987601 -0.6176106039097558 0.4418533342383616
Ni 0.9887532950903836 7.332930259145957 7.062056757786039 -0.8095799645646379 0.15041236314870227 0.45494204910151975
Ni 5.135148268902663 4.680448444677897 7.03482439820025 -0.6121161564540877 -0.9495778172482356 0.3071722657819871
Ni 8.07187387108813 7.512545262146433 8.890680061405353 -0.14651328520461218 -0.9393288858267176 1.020369800360133
Ni 4.714873525634784 0.2756939150551129 10.228533455319177 -0.06974451568398957 -1.153204559636388 0.6717523800594818
Ni 8.408147807376283 7.153883743720916 4.725386936335404 -1.4618521244123208 0.7243041860142687 1.0809030818584997
Ni 7.2411420747440065 6.109689374607176 6.993327512277201 0.18257634947575652 0.17267246009848328 -0.8016475970914387
Ni 2.2977545910090447 5.266902032218912 2.461184842973014 -0.5089668400574073 -0.11420583132115816 1.2420320600937578
Ni 2.2537735046174694 5.229634513384853 11.383403331757767 0.18116172851641701 -0.5917936428466518 0.22410943572253664
Ni 1.1023876448911867 3.2351274376148917 3.7734418582125784 -0.45699456075517425 1.3841436166862484 0.8397261491307151
Ni 3.626526621495606 2.872233845016694 2.629837961741137 0.517297985630922 -0.9056479486345048 0.5007010005041893
Ni 1.05034847270813 3.424596225256237 8.31720784253133 0.2804096529761622 -1.023878327734024 -0.5971533644966683
Ni 3.645052097564934 2.7384407453187265 7.2909470005194805 0.013835106110879397 0.43984915932413926 -1.0796033892104697
Ni 4.059966815121571 6.681371308799194 6.062738617404877 -0.17048779374233863 1.1789505582522404 0.3103077260871753
Ni 0.8098971778850522 7.342423099294488 11.31925717894041 -0.5320106092507482 0.8227596964797057 -0.061985183453544854
P 0.0826274131863729 5.582484825483701 8.04502501502545 0.6245947485370728 0.2518781211953727 0.5865079689676803
P 8.591688081730952 1.6549756154384416 7.80033984130723 -1.1059412557740502 -0.2999466945678254 1.8536206261791497
P 1.9258644569392842 3.1227473699249684 10.502300829146426 -1.568078022851796 -0.7304807471386259 1.3291886006066076
P 3.870633381664853 6.242318428317349 3.8707245201491682 -1.0945139877737151 -0.38111205049424685 -0.4940649832449104
P 6.935954482858597 3.9861807372750553 10.292415216295895 0.32895722286756246 -0.6715163527892758 0.21973367525234416
P 6.199429199015101 7.550507599128246 10.123735929052076 0.7011323758834958 1.2407992161279213 0.24773118890653464
P 2.4105768157020844 8.434938912320188 5.882304270406791 0.38379499664304867 1.5575956352632336 -0.30230311061514387
P 6.830116534092329 3.9976317012945284 1.5635998101189885 0.46977988544530064 -0.02454786454269321 0.6923096353855431
Ni 5.380419075059705 2.687376123264987 0.5673280412531718 -0.5874896161546591 -0.08876630820213101 -0.5680541331378668
Ni 1.538931961151272 1.262078511914518 7.068897558277105 0.2971609042925721 -0.8024263842389923 0.20774153588747446
Ni 6.748281394066641 0.8745260939609127 9.016358226554296 1.4609054442283356 0.12977514651432487 -0.16702040401902846
Ni 2.9069927996289944 1.5560497537004758 9.242606355603813 -0.7053466710751594 -0.1685142149557356 0.3760348930816556
Ni 6.462945749259908 1.8488208550494043 2.5869938505004306 0.03972662916566062 0.3926460192757754 0.09366245995216772
Ni 4.125288744622724 6.561528713730151 10.372739803621142 -0.3678122480615472 0.7701667528743381 -0.09376530407861916
Ni 7.921594631702552 7.279573639565862 0.09045720158644889 0.14974670454024533 -0.06387957226278031 0.6895526414656963
Ni 7.653683582263511 3.8035247769266194 7.995433046500456 -0.5683264129626471 -0.8328379066513142 0.5950854262240461
Ni 2.936057854874638 8.22243284245527 12.512678634244558 1.2966749442496184 -0.1059261078108692 0.2094760020800779
Ni 0.11509797971724003 4.689679600069482 10.058097270758896 -0.42971052822824063 0.9808565727568592 1.1732133986581474
Ni 8.696957542921785 2.088442879901332 5.6689066676457935 -0.06261330395584701 0.7706575764678276 -0.45894911337838373
Ni 3.911356944013064 2.4013095658612658 11.379361655804795 -0.5524215688069325 0.056681254742128186 0.3381468597866305
Ni 1.064939653810957 3.3416150864673715 12.677052756055996 -0.5286954288345863 0.6764179038559512 -0.6524930176092376
Ni 3.055873379106756 8.47404724806518 7.982938952898122 0.6589472578750135 -0.6706378068390644 0.2873783709845115
Ni 5.522874842573822 7.658132223131596 3.732619938490205 0.03913861787267453 1.1487128424136217 0.15396794171044448
Ni 3.0648789441906277 8.61229801224354 3.6831461792864517 0.620536519307299 -0.9428055315214086 -0.3829228784507405
Ni 3.202534149956629 4.13916706035318 9.301840053880428 1.470521884272177 1.2137892631979805 -0.7565699880265099
Ni 7.311769888282551 6.069110190055901 11.23885318382685 -0.09798911235197963 0.12564749749919651 -0.06450100789686311
Ni 0.4088616784201024 9.151296422654212 0.6068523655255849 0.3837451172417198 -0.20829817972189288 -0.769832766573687
Ni 4.62363578158365 0.3702911499686966 1.868614148648075 -0.15197302276760277 0.2118984954786415 -0.9768520795831565
Ni 5.91640359895934 5.72189061203755 0.3830830227772108 0.23332298390100464 -0.3696341317616344 0.42402067693231493
Ni 7.926873444903018 8.930723243385504 11.219491218896524 -0.16353013147758286 -0.47154520487583945 -0.40530330302846973
Ni 0.09931838887338518 4.59001380212222 6.083869210347666 -0.8626331356358756 0.12541918353847434 -1.6432827903194085
Ni 7.770313771350732 8.667856393226907 2.799600082461973 0.023754936327752635 -1.2414113957906232 -2.006768128870828
P 8.548311577364045 1.5196033835864882 3.4402964083117773 -1.0022440372936998 1.3947810417954365 0.09562883964991918
P 1.7483068375451443 3.281608064615919 1.6574480852109676 -0.43980365079818445 0.7468959552718556 -1.1660690743038822
P 4.77694695470488 1.0080367545936249 8.050703574251182 0.03556607003006778 0.3549762726391435 0.1864998528998788
P 8.445288995638025 1.7069516223353387 12.362871329782715 0.5873865149178916 -0.280877079530884 0.5508436827968514
P 6.106531110299205 7.592160593544231 1.5448325012397928 1.46782068329093 0.635410351095338 -0.23110026521807298
P 1.8584761202194875 3.2347303986733182 5.961480151885166 -0.5271386258704276 0.19238330826384933 0.9168625864034017
P 6.8660305110801145 4.1123127901231165 5.909326379825792 1.0365780346888793 -1.7112303620039755 -0.07768793890078234
P 2.575275787556627 8.43043612977825 10.315368578924998 -0.7268953437802126 0.2858246533441464 -0.5057146516686968
