# total energy = -381170.03202707134 ev
CRYSTAL
PRIMVEC
9.24033489191650 0.00000000000000 0.00000000000000
0.00000000000000 9.24033489191650 0.00000000000000
0.00000000000000 0.00000000000000 13.52416414168267
PRIMCOORD
 96 1
Ni 5.396771290059773 4.394666230285796 4.378705400128324 -0.6426570053554223 -0.18445608299697266 0.09658477580528527
Ni 5.996191803181497 4.811913544452767 11.467003123231871 -0.7635487333371882 -2.211452365989217 -1.416647759961541
Ni 7.551192290774779 1.113968551863565 10.447213910875618 0.47246051760125723 -0.4747979074851823 0.4362547571046616
Ni 3.1950397755913627 0.2942556869771446 2.1774848761697907 1.9522414585778571 -2.2388754951971763 0.7628380804234087
Ni 7.586157717345653 4.81066609926591 13.38816481047317 1.3163693373547525 -1.4751632396989305 0.8648363139347814
Ni 1.3065186467060266 4.566573417369448 10.68464431144079 0.9510086361574913 0.560460379951009 1.1497047740132458
Ni 3.779952963206673 8.028603424287143 11.182630898268524 0.445285242738046 0.47356429218839735 0.4331277814399057
Ni 6.85922058512296 0.7640213675442803 2.628056533461815 -1.07159003198769 -0.4171380908798687 1.4185218370558021
Ni 5.717780518144383 8.13348122333033 7.346176984398462 0.09744326715083863 0.3053583525016999 0.398799697581997
Ni 1.6563299981049646 7.352922428742208 12.769258279499262 0.5700909610622376 -0.8028331327591077 0.23286301354545055
Ni 3.928223374083059 8.18924664335021 0.019469385249691273 -0.29421467718005456 0.25118032379739963 0.42647582334102685
Ni 1.8254928057775317 0.2687301863536291 11.836943619779328 0.2953007111553817 0.6374248104222053 1.5048008600597051
Ni 6.72883946225958 6.897623416208731 10.002580092673032 -2.3755751367454767 0.2376992585918293 -1.976418570044693
Ni 3.5492957279893997 7.655478708396049 6.500565309365941 0.2585779018130514 -0.2235921297664859 -1.2424812318160343
Ni 3.9327603784293323 3.211570734400901 7.542899090365857 -1.8549316316810893 -0.4261876026766467 1.2095484856437555
Ni 4.996230501061971 3.44865000224681 2.4110066151494762 0.442831896101547 -0.4251177666512356 -0.5832951184573374
Ni 8.381916862544 6.767658108407636 11.341688475894076 2.989082774230452 -0.8027133193517918 0.21368541217573522
Ni 3.8511959438783006 6.030436483644409 1.7435624539716879 -0.47459736143860204 0.18935866250491257 -0.08642249056030277
Ni 5.193077351548052 1.1056060489442625 0.8711371756560369 -0.9497693644337514 -0.14683287332756 0.9826679149339851
Ni 0.44124538746169084 3.263242686140946 1.1798170251271387 0.03249540152454404 -0.3227246116942894 0.1747475974599571
Ni 7.547246667850423 2.776480333894512 12.302620452233986 0.4664366800046806 -1.2722957440743057 -0.7528125778666067
Ni 2.7198925240847776 4.601123028878037 13.54269185198675 -0.9278134289879505 0.8389476190934777 -0.11716697083201112
Ni 5.85254155966384 1.416340024823056 8.076225337320523 -0.852666511341467 -0.25325957492393153 1.3653763633810745
Ni 7.353125716105993 4.332534219645584 2.7474342657436432 0.05106442277598302 0.9433066395275431 -0.04011795106680832
P 1.0417738167160386 3.872097581009198 4.6436026956411505 -0.743321607657036 0.5716266809804736 -0.18435195331894055
Ni 1.2573508256744144 2.806502181391544 12.467237015225564 -0.5972091574352683 -0.18820115186170167 0.7728270733153205
P 3.459793845916068 8.418286819991927 4.21472457216531 0.2263429530387457 0.684163609239641 0.3152761258360441
Ni 0.8397043290476482 1.932616006157062 10.249463355654168 -0.10145675918560591 0.14435792942450623 0.964180397652759
P 7.015345280509189 3.067513916155677 8.805840318544336 -0.9550318983842713 2.1271551493020335 0.5122989897544338
P 6.61377881435775 6.127127346127925 1.2976858107496054 -0.20175395084547187 1.0074158113026264 1.6695476375532083
P 3.476555813093543 6.081507813627818 11.980178048234697 0.3443643014512521 -1.039614507522358 0.2654941693169105
Ni 7.358947126977994 0.7287029601871992 6.4747200931612 -0.42771972305045686 1.0891588941093888 -1.3802856763927391
Ni 1.4266429980330255 8.245464839771245 5.346588880276182 -0.21733277912033536 -0.4206106228095014 1.6641231241035277
Ni 0.05096783823457386 3.839137307072013 8.970808014255175 -0.27793496618342456 1.2696961016679296 -1.7187729502379236
Ni 8.869039587844412 7.806715266716741 2.4533107155529583 -2.316093436440076 -0.8576439099514003 -0.7201888782943145
Ni 5.084226208576355 7.971442713724925 2.175429825728627 1.3996319421298349 0.6543948626176407 0.15289759146440118
Ni 3.3618832592498467 3.309157909352012 11.534529641280136 0.36013930489732165 -0.12121877230388155 -0.29560204444588445
Ni 1.7007020854182147 2.0060951478303153 3.4984304574701897 -0.2488465334579005 1.106055155644095 -1.1064634468261074
Ni 5.987358043191603 5.972841477350471 5.931332969766162 0.34404754154178163 1.294694680594796 0.30232265099916966
Ni 3.208576865952444 1.1659731556534378 10.27779699399832 1.0456105772047928 0.34921751577849536 -1.1498502984521746
Ni 5.354321192367754 2.767803659594815 12.82666847909885 -0.41537508544217494 0.23363794403826213 0.1706855115754415
Ni 0.3126162320607405 6.175944034440273 7.010602216698716 -1.8080629921540088 0.24043079859037947 1.4066690514822742
Ni 1.805820133164056 6.854655859772535 10.49675319336287 0.06893976039450707 0.18638878124331124 -1.1983029946369235
Ni 2.4588715489859267 4.549099944418728 3.051754525295047 0.7303645332757357 -2.113418259331915 0.2534241255262539
Ni 4.164230763101742 4.971651210713524 9.97687070938864 -1.5231161134291251 -0.19177781346936648 1.3040506678883994
Ni 0.29904218036078967 8.757139134415954 10.296216677224109 -0.9611290124209446 0.2756749665046543 -0.21187921220493186
Ni 5.923784540335468 8.839655323442885 4.943514391498853 -0.2605738491971577 -0.8808362889074636 -1.0835153226703662
Ni 4.659910038350526 6.547192962383722 4.063132260957996 -2.2500011727966927 0.8291638002338366 0.11461335117222196
Ni 7.0076665623589784 8.937926283163089 0.6291753149454218 0.5441241046848307 -1.3729186945047065 -1.1020961709963473
Ni 8.254649732480402 4.4204929658211 10.918125392947717 -0.6920280995893824 0.15930915141769983 -0.1492507387404333
Ni 3.0916589107724044 3.030709662976028 5.043931880973922 2.0609512997814505 4.240833090053238 -0.30255919249000796
Ni 8.122891799744119 4.293031788728436 5.474852118422321 0.12833944250906282 0.43461593594965797 -0.5773008485471154
Ni 7.336345268259082 5.432743913114849 7.6843492101872855 0.6153547179960435 -0.6126347479617191 1.4216848081648161
Ni 8.867394808264706 0.9053892483867229 12.930439286042885 -0.2324089567271675 -0.43157072136543095 -0.17519754051318215
Ni 7.704655769762378 8.8169610613768 8.504129529517144 0.09443276245928899 -0.5942284775403895 0.26661851272934084
Ni 6.300956522832809 6.488904930985976 12.710009253290897 -1.0767705477473648 4.340350466124287 0.3321263646241635
P 8.782060317148948 7.02003937054566 9.021807269627788 0.3267663858638308 -1.0111128005382393 -0.00023242772578024485
Ni 4.785772637537069 1.3806538521442198 5.873044014334944 0.43188928104711427 -0.1439558088900811 0.9236011906788159
P 1.6984197227430016 7.744925148461076 1.3535122169786202 0.14009195505930067 -0.1742752858092289 -0.017183967978454277
Ni 8.585906491766677 1.8314620620050115 8.362666473227112 0.25097977775081937 -1.8423368257352142 -1.163509541106822
P 0.1711864409756908 0.1568953393016649 6.999214428192916 -0.2564006916560745 0.4312722162884056 -1.2036637447282046
P 7.51023912730699 8.555598193893402 11.948382056471912 0.2936978854446361 0.9793342225750616 0.5657046590690838
P 0.31826392464005293 5.159553417193102 12.611039724266057 1.1053838406086833 -0.44134734113622054 0.3859264411637547
Ni 2.0471499549799965 6.739585971535987 3.2882516520537552 1.1743904496853839 1.7309057289457157 0.872475318537278
Ni 4.972030064436939 5.889530619537839 8.198320652042757 0.6461513916619259 -0.27797867493716644 -2.216314836287841
Ni 1.5719565017998243 8.275625292289039 8.114173543938193 -0.4465360844260116 -0.2778750594797666 0.013874186878930944
Ni 1.3349603969663728 3.836439129334514 6.871330043770194 0.7268470070407804 0.840477939695075 0.23766146337535846
Ni 3.5881513354763253 0.42749207326822125 7.818021740277026 1.0247010807456352 1.0238037657423467 -0.1176793916920554
Ni 5.666727668830409 0.4926493694949289 11.918534851301041 -0.6463426817371255 -0.7327744282688089 0.0983333830652758
Ni 7.247924505347695 2.7663067253705864 1.0845214531859588 -0.45572906377918937 -1.5300969156223327 0.35230335379267064
Ni 6.826232590181624 6.443691973213436 3.5342025652618987 1.2492823138982678 0.9732970152420464 -0.15886769300490702
Ni 8.364230861894777 2.385595694676457 3.4906815127761264 3.328493588331171 0.8713211503281769 -0.47938681240744535
Ni 6.528961781986171 2.4373508094289584 4.470655970901784 -1.7861150271280077 -1.0530732041304252 1.0437048755416476
Ni 1.1764978968966266 9.047313365548396 3.275444548135354 2.861993916299039 0.5538431317448075 -1.25474925055011
Ni 5.930391379658453 3.4320820820984013 6.526368944064451 1.6600546104611087 0.45300035199411665 0.7363243504035965
Ni 2.111592049299573 5.919201334315607 5.8190009927064 1.408536443708316 -0.8786233404165448 -2.343977307334537
Ni 0.10118166515620286 2.174195317010374 5.861007554331978 -0.4407760420137828 -1.0844090381292293 -0.4145672448288989
Ni 3.6930660958583825 7.664007537340266 8.852728549001151 0.7890103679434024 -0.138826972303948 1.3861233661204386
Ni 8.761241843030508 6.951919623008535 0.1329628723834398 -0.6632348295067738 0.47207176680327084 1.2144862892650052
Ni 1.6679635795142487 1.702550152361707 7.981650511487306 0.1927563753325519 0.012572694458688024 0.21285186053084632
Ni 8.665493494688173 0.1760939827441346 4.43618305417135 -2.0662230897033513 -0.05468505024770582 1.247910887472038
Ni 0.6065900888290024 5.535071379776017 2.133937026713338 -1.8506808268245354 -0.3333206420425808 -1.2819708052702246
Ni 5.145461906748973 4.674223316827875 0.4220513641865799 0.09514778624844258 0.7042048441612324 0.01298715628828731
Ni 5.583130360641535 2.4660420487266768 10.532726740451421 0.15437443312024382 1.0051208446208624 -1.4612414874115158
Ni 1.5309478963237304 0.850963676900875 1.0104795751284121 -2.0517485502362596 0.399967235527537 -2.1333504794794673
Ni 2.3946512226995695 5.962002564726888 8.16970425945625 -0.011381245253748142 -1.912439753199887 0.25860258440339984
Ni 2.4580029575224853 1.2275784672147534 5.723385705183995 -1.222017564645044 -3.575703357516597 0.9278188283045892
Ni 4.3605231935047755 1.5212455448703959 3.5789128488258073 0.6188779006579536 0.03498834314972684 0.2679349175479192
P 2.4384873705992067 3.4230542750794415 9.311359626233745 0.664576688246649 -0.6692098161432861 -0.4763112588059151
Ni 3.1224292253815507 2.5672237138828797 1.2897141739888511 0.030397638455250876 0.5312529051491173 -0.28004275655504673
P 3.569282571983269 1.441048679857548 12.848280697969521 -0.6854764145137936 -0.43046026191007153 -0.21566876115435116
Ni 7.898268503097348 7.706781046747395 6.0956519939798355 -0.021540959395569353 -0.5047941967369565 -0.03306721486761402
P 8.852083573637872 1.0099316232796667 1.9238931301837785 -0.3222271032325805 -0.07507235565480619 -1.0325262332170089
P 5.024829337012513 -0.13060011879618488 9.723996013376702 0.8921982508875022 1.1935924765351313 -0.573898764844102
P 4.044032489097003 4.8901791795096665 6.1762147762474955 0.35359944689627487 0.4588118164695711 0.023367213971030726
Ni 9.208862137413774 6.391576485406954 4.465800175007757 -0.28357031009233097 -0.7009958503056315 0.08752497959586217
