# total energy = -340864.7502273943 ev
CRYSTAL
PRIMVEC
9.30633296472181 0.00000000000000 0.00000000000000
0.00000000000000 9.30633296472181 0.00000000000000
0.00000000000000 0.00000000000000 13.62075899242472
PRIMCOORD
 96 1
Ni 2.1005324597352657 5.730551469579216 10.765575517053808 -0.3265864086425408 0.2663459757942445 -0.32462182871700224
Ni 7.101104461815591 7.907730889300214 2.5396173569153087 2.5422900937089445 0.5254833496551917 -1.0479266269324792
Ni 2.6965193422566696 3.9835107689622182 8.396748917102336 -1.340682203068504 0.2801527997703498 -1.0241979158569716
Ni 0.17467801232882454 8.523437891808234 2.2967053097861694 0.34414704323412343 0.2369695795146564 -2.265668961240937
Ni 8.858102938924178 2.4909889742036224 0.7864568116059099 0.3442594004422716 -1.1841896951639928 0.40735092958611774
Ni 3.2769367293851492 6.560080782994495 12.989259614257163 -0.19735453622619556 1.2441604192906701 -0.5472515945702189
Ni 2.422215172079465 1.2698305483406032 7.388145279568862 -0.3373634446533867 0.4976727552008268 -0.7005752178284451
Ni 0.6659370051582131 6.046724832686946 5.4727120640458615 -0.6606799242954041 0.6617032233535959 -0.5717410950711508
Ni 8.453845132365142 8.44396180653891 4.259183900748687 0.12209886091598973 -1.5958976161672256 1.751360911476274
Ni 7.3872369814514975 6.534274321114888 6.4050261047873205 0.1862859371168598 1.8682023806480665 0.3801010927312292
Ni 1.8297460834962112 6.688685001066719 8.549559838382294 1.868697060896298 0.6579131601835444 -1.508707137092647
Ni 4.4849732254788774 8.8015948839177 0.8194151905264381 -1.4364776502032746 -2.7436293256145006 -0.04853008638990352
Ni 6.237113796672876 8.855543697302508 7.407404736063576 0.03181405918680327 0.8933845578861195 -0.10316808544975781
Ni 2.0860238863236873 1.6394687955083183 11.521963566188385 -0.9028827271845419 0.5210474253710251 0.8015545231570002
Ni 8.901972993486192 7.232091101179261 8.394433501409711 -0.23544645800191064 1.4187969450940598 -0.4552773209537514
Ni 4.358667671699572 0.9837724793700542 4.637119674570516 -0.042281020156398154 0.8220511004484552 0.957664193800796
Ni 8.963236584742393 1.5049271368738195 3.21757721389547 -0.163422402255125 -0.11946759394072974 -0.019445767429437478
Ni 6.40775472167268 2.0766244898222803 2.0369441464532705 0.5044990340940408 0.25051260830641375 -0.26631743654915424
Ni 5.703842293382148 4.839581744577511 10.539144055334909 0.003125690113175262 0.021919940001542893 1.2005282844230163
Ni 0.341239040867028 2.4649219349952647 7.90341833450937 0.9276187964786411 3.550292630752976 -2.944444823806103
Ni 8.662139481369593 0.5259092631201703 8.317816321690124 0.060787563601017884 -2.506689056675883 0.6926824453439296
Ni 0.7086791321400577 5.240061179869645 12.439798813784408 -1.7431053563357013 1.5530231854012027 2.677118229266144
Ni 3.995711371747708 5.653755608262768 1.528344663028761 0.2972982012013847 -0.48448608130722365 -0.21422431539834078
Ni 6.350548691678473 1.4535189524443408 9.07822284548738 -1.041645679019774 1.6241620103295575 -1.7361654346827582
P 1.3391906494544525 2.9897805131005746 13.303790409560442 -0.8781942232989262 -0.6542683643421054 0.40786694999058787
P 6.010616259988471 7.12330006642535 0.049835414123797564 -0.06212556568615108 -0.2124026888085697 0.7957970518479327
P 5.890657625430908 7.861376043781887 5.490092571873612 0.3087491233508038 0.692809200729781 -0.8773169629002955
P 7.314098509070747 3.6354259894155514 11.229866617624012 0.8182132147596037 -0.62785645000748 -0.6867072015971012
P 3.865385482039088 1.1988046135893757 12.770387686972022 0.3489778889638635 0.09829481651785651 1.1990972084034446
P 8.812809015387199 6.184151454604056 3.320182328991475 0.13020683473510478 3.4664085903438107 0.0007024253836633063
P -0.11683729041244237 8.075142516690129 6.376258367693113 0.0593109790554914 -0.11584722357932307 0.41542290796097486
P 7.786729945427643 4.261825968735568 1.1297385926036891 -0.7969548196014598 0.9584149559238915 -0.48358413831824465
Ni 7.436579159917301 6.05367666356472 9.708332329208844 1.4492177234777621 0.12623859411597613 1.0863823598055162
Ni 8.861685877194516 8.890898457014236 10.655765438817813 -0.47097519130498244 -1.0413775129600518 -1.7849222923714871
Ni 1.6279196360447081 8.853347402674457 9.522545346975335 0.03985749831657006 0.6031638323568064 -0.005497275669145371
Ni 1.8805772752691676 5.597275472255797 0.867922590906918 -2.0689255762361785 -0.6200482668169709 0.6546596862432531
Ni 0.654290129196321 3.015251946986071 4.854778986643647 0.33576216160453787 -0.08663100702668307 1.5328058299130634
Ni 4.492827770674112 9.695710149530766 10.978236397581489 -0.7146846606466337 -3.4653017304328775 -1.376040785073456
Ni 3.832385224619296 7.397920651930325 4.714308263146727 0.3371107052126323 -0.9502735577636795 0.5633107049156105
Ni 5.085873851913888 3.5322559798961457 8.676110148723962 0.8174886778887533 -0.029068892341498325 -1.0135311801717446
Ni 6.725240277757339 0.6156260374094434 5.0496517419507425 -0.682362037254528 -0.0584817982859767 -0.5205023515008327
Ni 2.170050768513 4.673500922830864 3.92641548433273 0.35515059343347866 0.4096561806805267 0.07219117745226923
Ni 3.277001873717337 9.106461052224232 3.0370203909033395 -1.2444692087803406 -0.5382154525098796 -1.7097895157923906
Ni 1.9028845558769625 8.697289501751587 4.920703189551239 -1.8108600952831715 0.6361891382428914 0.36906154708761596
Ni 5.268212837708018 2.3651115117501234 11.314887416195848 -0.6149232868855797 3.027546477523289 0.1457293558507361
Ni 7.318286358997115 5.303120893427601 12.472992642934132 0.013043206337203343 0.21079600644308213 1.0145562790021496
Ni 5.74903384725426 3.2535592204628374 4.01689816984187 0.6707172539267481 -1.1240467071255091 0.24212464135303463
Ni 7.464144518765982 1.5136099457211591 11.206547738600667 1.7017807865553014 0.05724509766539818 0.8555230069536557
Ni 2.223822761567585 8.91682590122505 12.628909087592818 1.3548219849039957 -0.02721409852094668 0.5516019011191146
Ni 6.262129220233056 0.13908966365453618 13.324112649303139 1.6907088450118557 1.0532279845407346 -1.299079439926053
Ni 7.540084197430816 1.9443908018138696 6.998714323015807 -1.9810696956634593 1.0581866140975904 -0.5690414367518005
Ni 7.744888671496626 7.69338742373545 12.400993265733351 -1.5613838986610722 0.3847758724990793 -1.4551963096587004
Ni 2.8480171399263807 4.197779783861623 12.526045256434697 1.7544410930634946 -0.30687581758749083 -0.5141802659375467
Ni 8.119868753903756 4.3733065337755255 6.69770842170807 0.8995762885191281 -0.9092567490316857 -0.37118887784326393
Ni 3.357194546640729 1.981523071161013 9.635801560384074 -0.045178396308851225 -0.7122585677036443 -1.5195746759347701
Ni 4.160563757515953 1.6324518202983571 1.2098772887946967 0.7861474445733105 1.6877983562332803 -0.19695113014018983
P 4.364968059255466 4.792594068403645 4.378379415986334 -0.7206254516111009 1.1422465179629875 0.569078203527007
P 2.4065991450206914 7.905078584346846 1.1974216924803567 -0.7537718564560825 0.044435861715871855 -0.7134513024601649
P 7.784440587467894 0.4893511945295981 1.3919873387928516 1.1199817930275162 0.062494004769163336 -0.47810383192996364
P 0.9035007026147198 1.6333080029499703 9.578703483854635 0.9833346019837067 -1.0570195903726827 2.5704907245128763
P 6.326808235762541 5.347521408980287 7.979653954569001 -0.242429317077647 -0.7065203796682864 -0.03646261370240817
P 3.718745590283966 3.9234756136844187 10.291600246187205 -0.5247336159733608 0.8945482391769175 2.532584436385406
P 1.1930439933573251 4.39436676573858 6.795192261660782 -0.3698148803138728 -0.8097398871812699 0.13580644031006936
P 5.4465780192386815 0.2230141761789818 2.7831975987660327 -0.05577545509840717 0.8660755856585215 0.5909894017778016
Ni 6.045375414377339 5.0632687686446625 2.3158419226830445 0.9404396023923932 -0.4928074566887255 -0.24887790091646816
Ni 5.100112541663544 7.461259555483372 11.741325937231572 0.8093259395723029 -0.16257625220474584 -0.9491661836321138
Ni 0.2908992234854321 5.081295135994392 9.06250444876374 0.9609444072139643 -0.3878506547696611 -0.18719816451848406
Ni 4.822811732205693 6.639975653256456 6.882242771496934 0.6364472770002845 0.646871300547086 1.2247398486722132
Ni 1.5589597072571564 3.174269261856907 2.1167478146501684 -1.4343282079604396 3.6760386015032496 -0.8065383495248367
Ni 5.132275229098063 7.35602354000029 2.751665880720421 -2.959910009321238 -1.365069887884249 0.13873492681077398
Ni 0.46747107461429266 7.663951491919658 13.18548085724055 1.7847538851144231 -1.1171144987820505 0.8437681804105726
Ni 3.813605044282821 3.242373007992846 2.750644045338387 0.1428857157543539 0.9367469840321544 0.34620109754967476
Ni 9.064657003625893 0.774699190279298 5.700124413280848 1.3081731746972052 0.9093379958915824 0.6826206902325535
Ni 3.231847545177904 3.075240570598022 5.6771601055512715 -0.2695557409807938 -0.7940114207024197 -0.30203751565858306
Ni 7.89629340583464 3.6960846690157223 9.014163631746998 -2.23897088312446 -1.392510243483389 0.902303457642304
Ni 8.161347080841153 6.552663635458235 0.7828710814356206 -0.5334272870926169 -1.593804995304255 1.4558437134347122
Ni 6.704245190126474 2.7313250283113857 13.23830174304519 0.06086932468154679 0.9120417679759907 0.2654535458869622
Ni 1.8106867131646445 1.202610903855787 1.4070515002946613 -0.5119781160799054 -3.1758993870398013 -1.5906713347712798
Ni 1.6870613833382158 6.831034673230604 2.969407088525445 0.37209956258299137 -0.2898155196710944 0.7735045589983195
Ni 8.84100720489142 4.195397362570178 3.140538457283293 0.06659568564236273 -2.094731224445373 -1.2855595510627473
Ni 5.656910455207299 7.320929357617314 9.148601059449996 0.42355427881885765 1.6735410749833177 0.2945987999923507
Ni 3.74847001842802 9.077006507742098 8.474986329426772 1.4501798302807154 -1.3706298984705299 -0.3048374470012234
Ni 3.0992136848431953 5.374900641165574 6.278094234785694 -0.9524394550667468 0.22608815671546223 -0.3910601628458943
Ni -0.16975961524863276 0.5023986736335316 12.610861315676802 0.044843381566935674 1.5918116190233103 2.4131752064864376
Ni 3.965549545944678 5.9497900663912455 9.525119478730078 -0.5492992211278669 0.50027856825479 -1.3021894463099446
Ni 5.634016875609813 3.6375106080455666 6.378070310761255 0.007042508669078193 0.43397187460775577 -0.10989691953315912
Ni 0.5916426861977835 3.5436283190295312 11.137477064448396 -0.8480189852671266 -2.4771283122996306 -1.6759481417629138
Ni 7.173712473205669 5.196563378634421 4.466396853838819 -0.08293016113632813 0.05385972613293304 0.09480068732166899
P 2.6652593691396134 7.864931063052716 6.719528981091089 0.9366803924602772 -0.45668757103771673 1.0802194255279138
P 2.1703578775076005 1.8683766724836774 3.5973240001521245 0.8219266590554489 -1.3160898584411205 1.5530262707249962
P 2.9828472948891407 7.819804653512793 10.872662562204345 1.1295871773277644 -0.9173161290010525 -0.23505976408645327
P 4.88936132070229 3.9081666956202454 0.24782392977611195 -1.08223465618573 -0.3525722911833412 1.105758964559915
P 4.767532113177615 1.6749724565507624 7.368381419816347 -0.5673769045651842 -0.2627580013326701 -0.21985683109376972
P 6.551779533807113 9.186904996143205 10.267478230611317 0.19264864611009402 -3.930431518700676 0.7544501134700297
P -0.008787039778840272 6.642758246874199 10.948597587702594 -0.4498556357175479 0.3657952176315184 -0.428147811726811
P 7.623245590635346 2.741105984472751 4.914614986391616 1.2109919029585015 0.3361401137692469 0.3230884227916113
