# total energy = -340894.68043232494 ev
CRYSTAL
PRIMVEC
8.98128641449122 0.00000000000000 0.00000000000000

0.00000000000000 8.98128641449122 0.00000000000000

0.00000000000000 0.00000000000000 13.14502050995810

PRIMCOORD
 96 1
Ni 6.358274903658819 1.8053374004824694 11.202015689355735 0.1999616348317395 0.8195890120612078 -0.5177451004706697
Ni 4.498430074809105 0.2906973033387033 6.036745741555588 0.006019466721202536 -1.2596351178875016 -0.5188804996266935
Ni 2.8903756157527165 1.6798778079858419 4.721954539419139 -0.6728168167682541 -1.0998780802991057 1.278626828498656
Ni 3.276382332476359 4.4410755785900875 4.9342461088802345 0.5356806019031678 -0.6154485632614304 -0.15014651108182528
Ni 5.234078278818431 4.714106691189234 2.5553260248038696 -0.6511570724066335 -1.0639497418336128 -1.5366563140074052
Ni 7.290514490026129 6.328906096481213 2.3367242033785587 -0.28658312877672576 -1.231451456364434 0.7436579079505321
Ni 5.187815671548754 4.297132498273425 11.263166575420007 -0.15722347253326469 0.06042863759970238 -0.5507403244497676
Ni 5.6518428249549215 7.832265697657067 12.18634134922329 -0.6127895283720285 0.09723655045667125 0.9145833034509216
Ni 1.6275169071156765 6.577732641696981 0.5999400653749716 0.17710375639695952 -1.0906581043627346 -0.42105130989134587
Ni 2.5973611404715595 1.4727244325878381 0.49293162806662316 0.2978959826863838 -0.6616278900309702 0.5455209850323572
Ni 0.6448635628127898 9.105228353717596 4.8602007896462736 -0.2562104300221394 0.016658691602603568 -0.4827613853066331
Ni 8.812429429314808 2.2724002287589835 1.449593128952999 -0.6954366110502992 0.006976945538465404 -0.5338905998822805
Ni 6.7865026486827436 0.743940625925865 4.767213038847087 -0.2091816107681107 -0.07854077381938086 0.32046821155994487
Ni 0.6031670416498688 7.448396527143904 2.6887223802677296 0.17330340881426282 0.2249805254735803 -0.05400627901312634
Ni 7.572248469339374 3.8403442618657735 3.734487225499373 0.21936472194869963 0.3057432466449444 -0.22918530758354724
Ni 7.581526138395785 3.6665743287549746 12.363207131824646 0.9320128117812788 -0.1642037605058398 0.15334856295889074
Ni 7.825188443817326 8.55309477877861 6.9519810580056625 -0.2599321018481007 0.8676899813334928 -0.5495722722835954
Ni 6.736764283499386 0.9126514002956411 0.339045365356589 0.0795815563790694 -0.35459112138558285 0.2896481408552947
Ni 1.8695446183762623 6.5161210156302 9.032666743029733 -0.6172979577653434 -0.8228319444785378 0.7745643677214015
Ni 9.068674517261066 4.7283150865883075 1.480089985727396 0.037646349597864205 0.2604419516049837 0.1904074154844011
Ni 6.341452953859536 1.832721343321772 7.0177321590657655 0.6052055453771835 0.04707509911093182 -1.8358427333704381
Ni 3.4192386771145835 4.594107720944589 0.7868253713057882 0.09068589382234704 -0.01627739700378487 -1.0868945235552443
Ni 5.977755753046956 5.600685416488976 4.41706859951188 0.498435087288148 0.607397925042812 2.8824578405803454
Ni 5.489874302434757 3.029217325281342 8.849937976536774 -0.878121461079462 -0.6933846136172768 1.5692373332672198
P 0.38282015623843907 5.333483158892357 12.36840011173599 -1.0203458891007329 1.105618839437625 0.0009613354720047959
P 4.036603336619608 6.097467322120442 12.309957083581216 0.1171659423907466 -0.614426035534187 1.439985920466849
P 2.244701940888728 8.394278687854575 1.5374678332915706 0.44439127016886687 1.2842500882227044 -0.7037394744890397
P 6.146181820631554 7.70680610516044 5.737643750217863 0.017849369476595066 -0.25722267333673765 0.8726262422928456
P 4.750310257468417 1.2097972674121793 12.562170471973339 -1.0654055004435328 -0.40061438219323264 -0.03840405369949516
P 3.949179492868289 6.006181525131702 8.273975251994234 -0.4350548232592894 0.4866288386818393 -0.4002066052318527
P 4.72710261289749 1.025483303834558 3.7565443672570127 0.8284276933987604 -0.19372388145214378 0.40877866317157985
P 0.015533135172375794 5.572340475983617 3.6776877727921518 0.3260325930215998 -0.5934111238454167 -0.3676402412600571
Ni 1.7028968455381974 1.2937453532498184 2.765304912965811 -1.2570272479510094 -1.2717694392571903 -0.4085863446551157
Ni 1.655969623060219 6.541214730386845 4.759010429796534 0.7702055765320736 0.22511293728638648 0.15415897467532805
Ni 5.96596332374292 5.50040935161498 9.014881101178414 0.4709867612692082 0.5909436361415306 1.2592108858658895
Ni 8.732307371568195 2.140060970727785 9.855216079910337 -0.14397869170821656 0.8786477658965772 1.4983054821433486
Ni 2.266292953871897 5.118022093390596 6.961287467179191 0.38140078537925926 0.4899548177312788 0.743747639450861
Ni 0.5275634691910414 0.01727011600055589 9.049807528503269 0.6625581151547234 -0.13732416250617638 0.055856701958303806
Ni 1.7049445788826911 1.2083063738368025 11.414609928175206 -1.4782148820410608 -0.7451740874847425 -0.016529365113590887
Ni 3.9522959993180224 6.863104042082681 1.4763304191571984 0.8738847972902949 0.4159993492897352 0.06088912217588868
Ni 5.413874655236928 7.7742914926627416 8.026309987135672 0.5401694909124568 0.08053517854159034 0.08642788987694147
Ni 5.129598971816264 3.0485809791880443 4.604306870006023 1.2135807467316002 -0.39599539536398254 0.8761581667055038
Ni 0.7338106327712407 7.20302777726862 6.891500175921653 0.18698579139736182 0.4994550439122301 0.2312239352801308
Ni 5.023745527964503 4.52372137787092 7.07363797375642 -0.17221248974292921 0.07557372077125693 -1.4143903313859318
Ni 8.252401303455603 7.130467962838076 9.033678934029401 -1.08750181812194 -0.9153160678518881 0.6754424273165592
Ni 4.410431428715472 0.4287244101728305 10.483193925788992 0.2554254722269988 -0.342742449577113 -0.35675033382043075
Ni 7.981139504316391 7.249676579862039 4.673935192490765 0.368083756555379 0.24972739340095704 -0.06180854866636452
Ni 7.214047815925171 6.099245616866977 6.901885237615679 -0.413959693151887 -0.47419986888986715 -0.27417189959656657
Ni 2.2262274343552924 5.191075878584065 2.8916545509643647 -1.129928619827583 -0.3749151776549156 -2.0760429040072506
Ni 2.3593031578875805 5.193393050526519 11.217027011776729 0.804777400969672 -0.062489376783473015 0.9137911465669295
Ni 1.026426338927417 3.3760117447152513 3.95304952926365 -0.10705070833361563 -0.19188374291961147 -0.2587213693694512
Ni 3.6344033601585886 2.7235033107496855 2.827270401724579 0.8129319117560063 1.3255160368510268 -1.7136405141073647
Ni 1.1446559957121265 3.1430551329193084 7.995275151294017 -1.2007884800629385 0.7634451178797884 0.3501927352075711
Ni 3.8312821436877296 2.461195854349334 6.8515397374582525 -0.4454053132556781 1.220980638740097 0.04832388391636839
Ni 4.021891989171009 6.587261786778155 5.950881947286457 0.7272095325865218 0.9931330761313669 0.16952311583622418
Ni 0.6976627504689695 7.4250362007008 11.614480378270358 0.7468051953302622 -0.8057965862628058 -1.3736799981507632
P 0.16505359446680323 5.381613873774556 8.008971613356968 0.3533130260041077 0.4907094365091162 0.17876983124547277
P 8.572063256074971 1.5455716481895379 7.774306760849959 -0.8255390589970557 -0.4629898591066607 -0.6039786149486178
P 1.8695176745164663 3.1656610312881255 10.279130112980926 -0.6385915770367969 -0.03681485483550433 1.2685781860134024
P 3.8890138539438914 6.085746743109197 3.7137180002399806 1.3131667712570545 1.390866537232379 -0.27501779253662956
P 7.0880762900924195 3.6738940773328794 10.147785083376197 -0.42220727787265994 1.3107717886623167 0.2954781172735105
P 6.353029832285203 7.653439300191224 10.176402156865496 -0.087324690659598 -0.2851667080451734 -1.5917817942266392
P 2.48134088019012 8.18927183995365 5.899984996131873 -0.5392148403086713 1.094903767012966 -0.31269422404148084
P 6.972954158470845 3.9985855504474963 1.336428019681272 0.6283920107959757 -0.27300024788596855 1.5904463632446675
Ni 5.2261118776054225 2.9721232863736846 0.7000302176163753 -0.8760823191622461 -0.4951510172202376 -0.9685965244425836
Ni 1.6687320313169096 0.9592283525962717 6.9899961497917955 -0.3943925696532369 0.4862022926673821 -0.8338946300506025
Ni 6.914935047043526 0.5820439536984894 8.983715138552418 -0.6754611963696368 -0.2986837686950017 1.359195431381343
Ni 2.6728488543332647 1.5285880352314791 9.220456464521034 0.4283532428693978 -0.43953111386308813 -1.0544392312400162
Ni 6.45189583516321 2.039165197078482 2.6128619430121804 -0.504863616522311 -0.04627368625555902 -0.38534511473898797
Ni 3.990143141044759 6.924176790953544 10.344381854506143 0.73071291775409 0.1433235746227209 -0.946701009921073
Ni 7.961766869123091 6.96015582506776 0.15905768753354038 0.25642280314326155 0.4868697510480518 0.16277731247195837
Ni 7.586870003921986 3.7813551714858002 7.921005299895089 1.0080999818538445 0.0387660650246042 0.08906507038947241
Ni 3.107803583019583 8.229876236666174 12.48510115354161 0.18496593275385562 0.03605329407913146 -0.29380587177741013
Ni 0.3513533205113874 4.7875017652734515 10.164466026975884 -1.8412122252124676 -0.8099928837323405 -0.4639105711487172
Ni 8.482430015820384 2.494112269733409 5.786201974342157 0.42727543642418675 -0.6552109307610329 -0.13938798701374058
Ni 3.3865018874624817 2.8555192424633318 11.901383088021129 1.1654936614163862 0.49483939951708966 -0.5961465204987088
Ni 1.1855388123092092 3.3355330860151082 12.71492868508658 -0.7287005153097514 -0.022967150319134638 -0.5444159248936367
Ni 3.040812166280207 8.314300330693541 8.110858921046761 0.7908443358283477 0.013592908193086268 -0.19507962414908986
Ni 5.557835698126788 7.837420956164697 3.6108319734804155 -0.4440043191430934 0.3401564340174916 -0.6012887268212805
Ni 3.1151143503108893 8.265343337444266 3.4896088538723737 -0.023061509805153833 0.0017025845134035194 1.3216362421806462
Ni 3.2042895449489457 4.003013324740634 8.915702549526774 1.4469728933076436 0.7582550890384167 0.19963947560563036
Ni 7.209153014728903 5.926903708325364 11.245459968890756 0.905066365099422 -0.3944385923998239 -0.8471463528541862
Ni 0.4415999826406639 -0.05823735669166601 0.3901560711322214 -0.1827676395509562 0.44771287834293216 0.20901474617294327
Ni 4.5589010774778576 0.4673062211433375 1.6601243662407574 -0.08283683009157347 -0.5524812184002743 -0.5982309138315633
Ni 5.981554837278186 5.437468495131598 0.10342490395548466 -0.8689832462236196 1.1572126523545168 0.7851493423260995
Ni 7.839818959686537 8.86145827285687 11.342181240529003 0.17930076404827833 -1.022645483768187 -0.7989371401388112
Ni 0.20410692298373972 4.899839698049442 5.858354936489781 -1.1654905760925929 -0.8224169684283061 -0.7960675319005
Ni 7.656708488513136 8.813201819962291 2.385650660253398 0.5981434963240795 0.1784142476782669 0.33300311080216194
P 8.41895926342768 1.5899571665600964 3.506171244488956 1.061302534018753 0.1616956493720054 1.1965456456261845
P 1.9382604421425804 3.2505341896454265 1.6377510831948452 -1.0454676238690253 0.11088088071298323 0.39871793650146814
P 4.654129659283408 1.0804847029647282 8.17668905742893 0.4360187298344555 -1.4677872589498333 1.422402403057131
P 8.51006543468445 1.5795029489592607 12.303976444835172 0.9236438709912932 1.2122615136995445 0.5131523388936646
P 6.110597963127678 7.8084832507438255 1.2584165642853447 -0.07260101129617819 -0.24157365394557107 -0.28672711055375777
P 1.9433977380770115 3.123242414682673 6.008049632744222 -1.2724836917153957 -0.14329529248794676 -0.39829087626637855
P 6.734509980563123 3.9256036155468164 5.848876984742219 0.2799476257380792 0.41142252855233014 -0.21002544682564472
P 2.2259220706109377 8.333969348344597 10.24515031326357 0.42570474950295717 0.6335496437375153 0.8418989884123178
