# total energy = -340888.18583188084 ev
CRYSTAL
PRIMVEC
9.09854668194281 0.00000000000000 0.00000000000000

0.00000000000000 9.09854668194281 0.00000000000000

0.00000000000000 0.00000000000000 13.31664276422158

PRIMCOORD
 96 1
Ni 6.724617397931532 2.0678266510274153 11.477361415666532 -0.2428962294117365 0.3659230014586344 -0.9970604362102311
Ni 4.816688602165065 0.6592570193345089 6.050216757890507 0.6764587843962157 0.1626551850717973 -0.15518047396130694
Ni 2.912917842124913 1.9698626014317264 4.787239336879807 1.6163736246333904 -0.46342951774724056 0.04233424199183677
Ni 3.7590007747851426 4.404051323697184 4.899765610064045 -0.41808605661543485 0.43076442341405163 -0.909105568165802
Ni 3.904431941195237 2.6911953637560697 2.583575026816097 -0.8127041120159164 0.8394003903601802 -0.3207960272130088
Ni 4.824103917519433 4.83155562705959 2.1936504498440565 1.0986843171013208 -0.29263833383187027 0.5424711424624399
Ni 5.398804505302667 3.0453107914763446 0.5820567625856968 0.28721330616155694 0.2802895824585302 -0.6892423093141291
Ni 6.072433588604981 8.196662129057833 12.253601176235057 -1.1501901982900966 0.6681785466652944 0.0960489579064733
Ni 2.3262617643102184 6.319568307200513 0.1384089082622398 0.24520508005057123 0.8284366922598249 0.4294775862818281
Ni 0.9073898484752857 0.5255848143526178 0.24710469339225705 0.11491082780798274 0.18674950701683968 -0.20886459374832417
Ni 8.06492427505059 9.106098240629066 7.043677945900505 -0.40967417840265574 -1.0799517736888242 -0.9630503978133738
Ni 8.72205769364435 2.393409037089654 1.2978703466352424 0.8664972465769722 1.333945912785935 -0.11609790613754843
Ni 7.254134604058576 0.825019797635244 4.752443765702247 -0.528371212725948 0.3802692428779773 -0.4278775887845599
Ni 0.7838534242354396 7.898702930008922 2.2215620607797577 -0.2121669186486798 -2.8459150084593055 1.7629118495386673
Ni 8.030868415699178 4.18195580492401 3.5877961558544103 0.12906526493149384 -0.31457112934921955 0.06030625308922518
Ni 7.916672559241901 4.082699761732837 12.572801841819315 -0.7819501186625114 0.4081893663270132 0.3630333386156651
Ni 8.72710738692248 7.240559572759536 9.096798616305508 -1.3236180484973656 -0.08188500770126543 -0.5510761105226315
Ni 7.209242375888694 0.9182617016248992 0.13203355676677228 -0.35636775367003143 0.028636432789770037 0.30067637364499833
Ni 2.034826223063863 6.863561300724859 8.984259605156245 0.2790078875326292 -1.037481263229439 -0.09714990428013591
Ni 0.25502588792908315 5.001780332537972 1.231967755009767 -0.7793638459925739 0.3695055766035701 0.324955300797021
Ni 6.907925813200811 2.3504275036736577 6.918381862777794 -1.0482739829695689 -0.06540860731279702 0.5769185255070323
Ni 3.26677851054467 4.124052655334806 13.223878358043256 1.3067019894683174 1.2730133389666205 0.7010531859061282
Ni 6.050642569864229 5.379297221720133 4.503755015373554 -0.8376013894782284 0.608017560904682 0.6333562967797866
Ni 5.400869875346155 3.025466861675268 9.49942658382696 0.6962457372151557 0.9933040544915926 0.453145105102097
P 0.39371321171260354 5.945390584564431 12.475283620999534 -0.752505331038833 -1.2369536171295858 -0.47541085847883285
P 4.433057489770468 6.075918331894211 12.57261532161715 -1.1273942834415036 0.6982900213386942 -0.1954904864342633
P 2.4434874367343715 8.316435394487167 1.2774805040473407 3.389841652421349 0.8034669096883646 -0.8152831855970023
P 6.578885979488683 7.867403930230974 5.756891448547092 -0.04368355693087961 0.7763664539271469 -0.17196180718470383
P 4.9702629676452945 1.3703411789408633 12.582136040619371 1.2395038943552654 -2.5098142325684263 0.6490202285692888
P 4.2481750259658435 6.2830285446690475 8.184315401529147 -0.6941456601530174 0.701402598825747 -0.18778411892894112
P 4.9484173576258605 1.2312880935901704 3.643486538947685 1.3175870118119373 -0.547777642277018 1.0920560131515258
P 0.3222268421325565 5.920587946949697 3.287772496616658 0.23514049672571763 1.1049097291857424 0.33769563118182483
Ni 1.068733462766675 0.47515248125110926 4.746717140568456 -1.0079174335293932 -1.2523789505457208 -0.960781656383855
Ni 2.0953224583904846 6.758636863097156 4.640437019520139 0.7240031098340821 1.0513755047130278 -0.6727132013108544
Ni 6.043136269045389 5.801124032099563 9.400537212057602 -0.2843316137383877 -0.13303607665378378 -0.8934670902975966
Ni 8.718472866344204 2.5365655668879787 9.917063513567507 1.2210845113078133 -0.35366578135783605 0.5394878914643999
Ni 2.477261241145925 5.4575629182578975 6.717699773067818 -0.23673072403097292 0.26629609639291557 1.303668601958632
Ni 0.8667884948098449 0.08864713803388087 8.836751240592282 -0.5809692985376381 0.4468165917809079 0.22235620047685575
Ni 1.6542795179148262 1.2477564626593816 11.397594458965 0.08497161704638914 1.035738055286087 -0.6620495509494211
Ni 4.5843026273602465 7.062619299894032 1.6837160452350577 -0.15700004366854897 1.0434827322285125 -0.949968624928751
Ni 5.940777621515762 8.15061438548917 7.86098672542185 -1.1466713865035605 -0.25890828856927667 0.5850172433547667
Ni 5.749407894094372 2.9364011905048213 4.943243924116052 -1.1877046502957866 -0.34861304942527704 -0.8483421729345002
Ni 0.7463919789488853 7.819600167198026 6.466215039415937 1.2503092125008854 -0.89737259599959 0.8975435743598155
Ni 5.584906174331201 4.762561349351397 7.007670448336193 -0.49601336522053285 0.36762584308235396 0.5493527000736217
Ni 1.1119697554831898 7.5166731617890115 11.285055447815736 -0.24179219771428034 0.9754562276768943 -0.7246116899523585
Ni 4.955650702051288 0.566222562203847 10.362504691395685 -0.7334187467210272 0.5232048380336602 0.03226477357097669
Ni 8.387858984096729 7.7710867175422065 4.504966941760305 0.3653732996027514 -0.7236069028369281 -0.34372049721966613
Ni 7.414059754958866 6.299760771585225 7.007363827320927 0.2511366150436578 0.5018888501647033 -0.8913940098186519
Ni 2.4165466407045737 5.533781441845069 2.4386770352278013 -0.007550815764064415 -0.05925570033752375 0.4581592704872368
Ni 2.592685401373556 5.65117088810527 11.03438321436158 0.7740370344630217 -1.4163232867425866 0.8583298802748314
Ni 1.241396578692874 3.2972131484101466 3.6596000647054603 0.5002045204837451 0.7793715593020578 -0.5582777704773934
Ni 1.8989212347838593 1.1966408287196975 2.3958902107057725 -0.517565894580328 0.20154569148940774 0.04954592924892757
Ni 1.2506588989759995 3.5575589564468357 8.258235632283789 -0.45455818339953974 0.48083691459041056 -0.6129574214084604
Ni 3.921409828865485 3.235870748263946 7.014008495791228 -0.7619690475548941 -2.284230012072576 -0.7039626462434392
Ni 4.239303943179943 7.206722078522852 6.126215096653659 0.735825556390307 -0.1525936870707372 -0.672170698543823
Ni 8.565708271497762 7.861389791029455 13.11405617286309 -0.6928485386081487 -1.0731301227813002 0.763492426177956
P 0.3504687303042866 5.825580924949308 7.499573353596373 1.2932695181124954 0.3589152026822335 2.299870032602678
P 8.727516821512598 1.7948520605221812 7.81946550871061 1.4985073137415097 1.2615747581123755 0.9201705677307119
P 2.09801562813882 3.444072786612432 10.301407952003556 -0.6865938159476885 0.12838135149059182 0.6439893510136006
P 4.190945168813723 6.428769061658343 3.956108045596061 -0.6321604766994725 -0.21100220891661722 -1.4897321386520408
P 7.207659228806902 3.9633905221723027 10.425798729754783 0.5654056397714263 1.2986269257696668 -0.92640086491114
P 6.4775554677075755 8.037665029895145 10.087236357331143 1.5305504582199836 0.024210021587300238 -0.44916966539411673
P 2.755785944983876 8.98667071996472 5.886582129603742 -0.20404043288680343 -0.7173112996362033 -1.763163817648473
P 7.081344108482119 4.23408137751932 1.4265583678734242 -0.24552338262193846 0.7816228172300796 0.27359468693685784
Ni 3.097145210585348 1.837751707020154 0.2608316704169636 -0.9649902951485639 -0.7313667492880049 0.42723429877360614
Ni 1.6512497019479493 1.4834270127315956 6.9111112143119335 -0.14059717683049336 0.5835841104526659 0.17518237100453055
Ni 7.017654283352573 0.9259954661049156 9.023037610113692 -0.057279036227127156 -0.07144915707992212 0.7093699333019395
Ni 2.824070536069197 1.5983598514510848 9.021984908289765 0.9788050895444691 1.2406259237748503 0.9188677897588885
Ni 6.640146492716859 2.4259909319166404 2.584813338987544 -0.2095798746477939 -0.9829944450354683 0.6401347531542008
Ni 4.457441594248637 7.316632519603555 10.446080299639965 -1.5514866941520182 -0.6996650473093499 0.07149286583366397
Ni 7.613026768663567 6.441252267383734 11.092177181393419 -0.00973033991388647 0.041639015697025064 1.3012391665815333
Ni 7.818053414302024 4.463246466881873 8.438103887141429 0.3494136909497014 -0.765173927645437 -0.9073302214329342
Ni 3.0056957202457673 8.546464845762193 12.515020612752501 1.0939167205093485 0.21069136254441778 -0.24848683612563655
Ni 0.27810890026532004 5.170039751983786 10.20785851714399 0.8259941442566032 -1.2502346505092081 0.3180503461470716
Ni 8.971303275015606 2.549212546449417 5.495112619444988 -0.8658138473567024 0.5239229471466074 0.5486687866327196
Ni 3.9087719478504934 2.631445209238108 11.42954127524998 -1.060043207690355 1.627955673044035 -1.9099529822222912
Ni 1.0550310518173756 3.7325694973563808 12.570470794219574 1.4927827525529065 -0.477706596491545 -0.80371759224659
Ni 3.143320333804269 8.575225351081405 7.858337228696461 1.419307309071575 0.00017637767686421238 0.8652075812312713
Ni 5.847390140782954 8.075187435442894 3.727754546576587 -0.43510598821219904 0.394526781238256 -0.06846384919935307
Ni 3.4955887565957875 8.710921072793129 3.335606284852881 -0.6239046644485836 -0.4913864079714827 0.4676623248816656
Ni 3.556066794829515 4.3724611704329295 8.935506863728866 -0.16976119998895922 0.894917192480562 0.9617381067598533
Ni 5.678357344889139 4.544096150610608 11.652821424770563 -1.9589921470381295 -0.307711940335541 0.2802528156833238
Ni 8.220946149525084 0.08948784372559088 2.124151202808051 -1.9989578887977897 0.785030814470364 0.5242574476678907
Ni 4.987013391654365 0.6404430449912409 1.383373027017013 0.22604110552761073 -1.0652854299259007 0.3155424921235533
Ni 6.504869304141703 6.051297665208419 -0.0019125144631757937 0.17564208424976846 0.145191223959079 1.7509680469132294
Ni 8.373701645825076 0.04616147539925019 11.065876923033496 -0.3566801427041277 0.1675899033692533 -0.45711051750774817
Ni 0.39428551028412473 5.34193859000843 5.396821932031849 -1.3607594334343533 -1.1671975314813705 -0.11380216812483626
Ni 7.200298504731215 6.342642220990303 2.761378821484895 1.0036108357342393 0.1435871126967527 -2.4198842430754968
P 8.931751893610157 1.623353558541208 3.375542534773041 -1.0462034735937853 0.8029552601592687 0.8209054168797862
P 1.8748919736171263 3.5152689125608174 1.5643194596286318 1.1095886227186504 -0.8577639804690325 -1.1683915517894716
P 4.995975459904737 1.507165120412022 8.194502134131296 -0.4101853137111193 -1.313335692734751 -1.8716882823141379
P 8.805555054389187 1.9730379941417564 12.204955797655753 -0.0835305137244884 -0.8076724631292799 0.6069235565095547
P 6.707430243693001 8.02606438317512 1.1159904031581533 -0.9525515551645789 -0.664858481153126 0.5570374703123891
P 1.804996939810673 3.5590056253319213 5.853609907134176 1.425689558448835 -0.22472778603282587 0.3728968616733062
P 7.313620900729572 4.207267961139781 5.838015908378529 1.0198751201119016 0.27114956783047495 -0.2593991121627662
P 2.6097451759618275 8.785692927495214 10.14361913980904 0.6367234134798068 -0.36644313562816244 0.23660782529986346
