# total energy = -340872.06973481766 ev
CRYSTAL
PRIMVEC
9.27263104036171 0.00000000000000 0.00000000000000
0.00000000000000 9.27263104036171 0.00000000000000
0.00000000000000 0.00000000000000 13.57143281947804
PRIMCOORD
 96 1
Ni 6.170574252416372 1.8184463793777883 0.1759973168722712 -1.5226250327253197 -0.12377470595651587 -0.1340472915271175
Ni 0.6940647706029243 5.925915885284405 2.8515213186316455 0.46595254127941044 0.1976548410754338 0.28179959134515337
Ni 0.7833787517367166 0.5970702692684344 10.189947273630523 -0.02027623375053282 0.7289388565728028 0.2259153785830238
Ni 0.3549053125939919 -0.03543814089463528 0.25462273633113375 2.084791082513526 1.6071706179778837 0.21835710661979169
Ni 3.1613829719488904 2.588964919275379 12.208643536082352 1.084122874347378 0.48986405778968534 -0.9835714005848609
Ni 8.621729330785353 6.576557852497437 7.5384968762959375 1.4884908100457719 -4.980467478666674 -0.8050031438272329
Ni 0.1255393683945258 3.5394837708184412 6.6769683910671525 0.5483602542533652 -0.14801969454680958 1.006868937660221
Ni 5.170205736984681 2.7468407335178986 2.297901670645897 -1.012606097254314 -0.11465731703627996 -0.7577665794377724
Ni 2.9858891589362084 1.409467719505795 6.584261554275464 1.271593061580326 -3.2951607785069963 0.4770242257125398
Ni 7.563991047779456 2.869480550220093 12.078778485358203 -0.22402973152453676 1.2456493451313708 -1.3017397603670355
Ni 4.304763274239641 3.0641316187375933 4.46053605578686 -2.0536797058207017 -0.1450878656119953 0.04337733854437045
Ni 8.674360783953482 7.695412045973937 12.470111328567238 -0.3673437930655609 -0.7049931443904826 -0.9011611165077447
Ni 7.244715819540384 4.530811471091758 7.340286044763771 -0.7437049591383837 0.07296585083476466 0.40001994314234335
Ni 6.124183279865254 4.372713113706879 4.101137226243383 0.7877363863269853 0.18466485657366905 1.065103652932398
Ni 0.43547891181159715 1.2298754036213173 5.950394703680906 1.9094572735327955 0.5284210921272771 1.4488361717686273
Ni 4.5002766974337876 8.46856401305612 7.835765369544889 -0.05176556260806569 0.30470117853367523 0.17702405219895964
Ni 8.676799485888509 8.493210666072484 6.804811080985103 -0.39410460609917286 2.8712187773314164 -0.2609615715538796
Ni 2.4273151442436727 1.375223893475158 2.276105424377927 -0.759761498380614 -0.3176068308517498 -1.0253286870273053
Ni 7.343654791581244 6.389603067653218 3.7796708753151593 1.7912610901053214 0.3797925603518749 -0.1420148831136264
Ni 2.1928473985056045 0.5425611083366448 11.974658894415823 0.3084948412481526 -1.214749827339037 0.7115474005692326
Ni 1.7956542525477568 8.574874726687653 7.938121306084067 0.4779408239895382 0.7461616482089923 0.18073106873690165
Ni 4.052028445566195 8.05201888634389 2.6198297985945174 0.7746620696415304 1.180258992651019 -0.10384454269149211
Ni 7.222544958982775 1.62029952899905 2.4648303544670007 0.14831614274130586 -0.6723578748539646 3.326299408893329
Ni 2.8312865834125667 7.516348270052563 13.441825559893902 -1.0228938523335673 -0.44586631205249666 0.19577510755421768
P 2.2546680289270116 8.530755548714794 5.732518476468865 0.2111752441593718 0.39607921332704044 1.4053220505360764
P 2.6033282245885276 4.679961739627581 3.2530318015512756 1.6436774546546657 0.8631069899485007 -0.5324127297851734
P 2.122913216018991 8.37742332362879 1.6582524074023526 -1.1962234864000754 0.5235830473086853 0.6182724058634707
P 7.001837797547297 3.805422825938578 0.6674801377218423 -0.5078538094988867 0.20490766598310517 -0.3145155935209358
P 2.632444285713954 3.3358197050353624 6.366277764544616 -0.21780020567505717 2.9178655306556776 0.5060424673217607
P 3.27056820116924 2.685752640940093 0.9166051311735921 2.2510977482949817 0.9390699757383764 -0.025882009973084458
P 0.16910589756385816 1.5771447046430835 3.4999230182115877 -0.24031767005128288 0.16899346858499928 -1.0644901877181152
P 1.2564229459786729 6.007153404876717 8.655344472438824 -0.49073103377567096 0.600183923792876 -0.2684360255540538
Ni 6.589901168408102 2.095716589496419 9.841677455731231 -0.3692430669708028 -0.032539367388602025 -0.09340329275351011
Ni 9.028751465530766 4.3659719110195585 13.385422927725864 0.16547388546751504 0.11970259276967125 0.8011032945521944
Ni 2.813288406774206 6.98553651236943 4.337008848304505 0.6114751804359791 -1.2103599258014575 -0.5114667236611256
Ni 5.577978954835559 8.863837724411113 10.332637300196257 -1.1020444918228054 1.47182337669242 -1.2287453702871807
Ni 5.626085364109033 5.076542891943939 1.9294369898405324 1.2113081486473396 1.0408869464768784 -0.5826613415280804
Ni 8.915643913426322 2.6375720506191644 9.257088147696816 -2.459115677772294 0.7487957433977298 0.7333809515045563
Ni 6.233396326978398 7.84768719113373 12.69447376111598 -0.9628945889617997 -0.28040913875553 -0.3115781081591666
Ni 6.573998606360298 7.068610012886213 6.0705828367647685 1.0378553587394062 0.464556175152516 -0.8392697783195869
Ni 9.241270893853583 7.825330877957487 9.307967073618858 -0.2892365072391729 0.4432723260730753 0.9840491115522279
Ni 1.5523682347936762 4.781728864102599 5.0410268609494775 -0.7027997362835897 0.44995385185830894 0.8286058708478375
Ni 6.907460959924816 7.64679564199922 8.499897160237307 -1.253649075507396 0.9701057619982584 0.7460243513001797
Ni 8.643232561915884 8.454478886670922 2.7548383776964593 0.5113965325448225 -0.6800202764952289 -0.6247837246194272
Ni 2.264024113537061 6.565004154356584 6.686943887423437 -0.5811094236599282 0.2979119235259837 -0.24897585994691315
Ni 1.676436036659347 2.7054013458842903 8.494698923337015 2.074998521903136 -0.3737314417594596 -0.9937421704702756
Ni 1.6464576208572754 9.182018782200247 3.8395071627171906 -0.7431493437452299 -0.6016083149442284 -0.38328926065122376
Ni 1.1127898928471902 3.5339387375213054 2.365704075281321 -0.7517041752937764 -1.043121492234352 0.12256680169134374
Ni 4.570702329359778 4.116018871625611 -0.1345124933470975 1.5272298784871827 0.40988449464124893 1.0832543556994956
Ni 1.583023552653759 7.503876581449475 11.17846351220536 -0.08012457336673297 0.2614246272332272 -0.14760317583468127
Ni 4.091362945978315 1.7345105241843612 9.737353866908354 0.18283731644662704 0.5361292594048122 -0.23118254051923415
Ni 0.5390124724790968 6.959489692082386 0.7530720847996643 -0.041691466201515294 -1.0338295254094647 1.0003936143485221
Ni 5.273994295002803 3.0631672651207005 6.643528502138291 -0.19068020952981354 -0.6472783061775175 0.933066964077406
Ni 8.200260437048408 0.24808367699812398 4.732548684167237 -1.961388672294764 -0.35967033568070317 -0.6896855674991348
Ni 3.46816796632301 6.132092834049964 1.7966538421621905 -0.9477903863305096 -1.8743396038940556 -0.47379157770785496
Ni 5.210068777359908 3.8497923649465924 11.15484890301169 0.403058472858351 -1.460024584285279 2.0609764965924313
P 5.3585977796233095 0.4402496804259385 1.8697360828501037 0.5171709731347546 0.24278464353453671 0.42660797804351686
P 7.567217923343675 6.763744453114949 1.6495398433789608 0.8328430488576366 0.3449263446023092 -0.702122764821223
P 6.269550314980959 2.1804128004262426 4.820301154252137 0.6293669731147354 -0.04425254206047218 -0.3282547974838992
P 7.431985873836281 7.978616739888833 10.736129344345985 0.8504296515911483 -3.108338509270692 -2.0728560216388363
P 5.339931973557868 6.627622231038114 4.309689823053635 -2.5746924212990496 -0.19644487992773266 -0.5157787207729182
P 9.38686974474258 0.7942110391910869 8.163270984998906 -0.5336226909328746 0.5881683873892387 -0.4685339288533415
P 3.075722407402174 3.7305741490581825 9.838963356657532 0.09029225792835419 -0.1305503341174526 0.9394497276752982
P 4.6687696740930615 6.2957176794701155 -0.47418565510964417 0.3268149797135791 -0.4427833022517987 0.2750558448634166
Ni 1.9807637838365748 2.3066782158227177 4.545588335744458 0.17751307602023625 0.5728476978717684 -1.0543392153270423
Ni 7.380643316367654 8.996334347793667 0.7870368046392582 -0.8279147583180839 -0.3920466951288797 0.3219949326171164
Ni 7.377509167112752 0.4682038808956274 11.646257542813808 0.9130704663508211 2.7368994630898347 1.8823259645336423
Ni 5.113605597777802 4.2333361981730295 9.020578568627597 1.3738962279266274 0.6641578555416756 -2.5031316783419277
Ni 5.598786738646214 6.133085005559652 10.772392749393537 0.7548478631290806 0.7046321615066381 -0.7804089994276366
Ni 3.156839382792375 4.85721735251728 7.948081966230862 -0.736341576794777 -0.41873037506765304 0.04440500847793643
Ni 8.671755174661683 5.84867486962364 10.699785267409325 -0.15457986426283055 -0.33569762691518956 -0.07937355413332137
Ni 5.915808717568891 0.2569186397498139 5.908703100485956 -0.4781154018941895 0.6876024597178609 1.5411840266744294
Ni 1.3873710399956385 2.605015843418091 0.16882215505734924 -0.8416231090431119 -1.1578605703511606 1.1235638539518198
Ni 6.990117192049673 5.578479676905869 12.672379863395104 -0.34038166265442027 -0.801451936140865 0.7955815934030169
Ni 6.0001247506305155 8.737284857455757 3.8784846668384416 1.5418026340950348 -1.5022708945489998 -1.5525328760283454
Ni 2.2655540976407855 4.761449620255049 0.2046775643439094 -0.22664608610146125 0.5194371434611119 0.16470461140165826
Ni 0.3428481105935485 7.21510830897558 4.853985840637594 -0.5229022191915769 -0.20504162045780816 0.7788365127341942
Ni 3.146324219315867 6.924522600839079 9.38533790611267 0.5727813634102071 -0.6133891096292403 -0.5860168882638745
Ni 8.377210053117361 2.014367798332927 0.6830906118952993 2.3773792798337507 0.7187868557404653 -1.117867317787675
Ni 4.019917324649841 7.722172858842719 11.555274488112316 -0.8401506382626435 0.6602011848867727 -0.5546023785083352
Ni 3.245318827142317 5.2458518601252 11.43656441239896 -0.6588364433287621 0.5227075866822675 0.1672222356171894
Ni 4.369727326546883 0.1853626741132523 13.478563723645156 -0.42832367518304293 0.10049902325802691 -0.2801723401543756
Ni 8.17091256014969 4.420392981957498 2.4478113676550235 -1.1465394889113867 0.3285368475006923 -1.3427640252981972
Ni 4.1502905155490435 5.091805642457459 5.740322322660954 0.5119806871830667 1.0629850639274983 -0.09352516304335505
Ni 8.413104407453835 3.3756271096249977 4.516124550959095 -0.28333531126338946 -1.627075584431927 -0.28242745473713937
Ni 7.454407095429045 1.7494116420915462 6.912486725889778 1.1457007950601752 0.8628365098959333 0.3499335680089135
Ni 1.0289560365940116 3.784995219996121 11.155975527669888 0.7126462900603662 0.625433185277968 -0.47638402102537947
Ni 4.100867392683272 0.7902590438880116 3.8059050027470245 -0.06829801304545012 0.697100114795651 0.7887859106374222
P 0.32712265579653876 2.041165701725437 12.130092297670943 -1.3107033973182267 -2.5804390939748396 -1.6518540769281873
P 5.43414190382358 6.316275102245616 7.606734167322056 -1.7552013682682868 -1.6712098557469799 1.3379056687646314
P 5.738896192023664 1.1318451494117605 8.05482200267453 -0.8164563799694972 -0.4344236174331938 -0.06137531778368785
P 3.244873740857597 9.059582963378551 9.828580791803347 -1.282827496843565 -0.6444966296673222 0.4139658637994742
P 7.206067493817207 4.302732568065608 10.03253230914531 -0.19409977673432377 -0.5385612658850725 -0.0871601400572757
P 0.9548677154500125 5.856092974368972 12.378503298540954 0.0549591298446989 0.34723159569671813 -0.26097314151810536
P 8.430815132533313 5.248513105202589 5.546481682086881 0.31821952473508425 1.3077337731669412 0.43272797489832565
P 5.187703191552733 1.573398561746691 11.801134588213028 0.6094532649099439 -0.05646836740037372 -0.5321805591697093
