# total energy = -340858.58494034223 ev
CRYSTAL
PRIMVEC
9.35967054935545 0.00000000000000 0.00000000000000
0.00000000000000 9.35967054935545 0.00000000000000
0.00000000000000 0.00000000000000 13.69882393898206
PRIMCOORD
 96 1
Ni 4.296285325465988 3.1312777751663785 10.11264947028567 -0.6120130552173202 -0.28495999135100597 -1.8600828368647253
Ni 1.4321606261823592 5.172668715691451 6.8631384650745835 1.4296086909975831 1.2688129277320277 0.20842416377679587
Ni 6.889709633736727 4.0109557694177225 5.127455891238547 -0.616639498245738 0.7197289079387604 0.9532246699722037
Ni 3.122648158939496 7.431512881595212 13.388682973872152 1.6137104759789305 1.088930065928034 -0.7245273577686684
Ni 8.266966432601418 8.405639311145327 12.881360752239083 0.5988873164686395 -0.3458858803021011 -1.504870536955376
Ni 7.49369853258372 0.09080471556219295 9.30121376982155 -3.168612623570401 1.1663493245484622 -1.4233902208916969
Ni 5.859453260029766 6.6838249611307345 1.9955903287630063 -0.42079342824426885 -2.500988920967312 0.7246605409124229
Ni 3.432986754638769 1.9146235628928694 1.9639733617191804 1.453389852577581 0.17890918503681444 -0.339575364703041
Ni 8.873716434254192 5.211211838926049 11.267406309422935 1.4948360355375097 -0.0306182391064892 -0.5385682078636079
Ni 3.4007333299990337 6.90940238052779 11.230569454125602 -0.4284979959773782 0.3433474301509636 -1.2579034799083755
Ni 1.7676954549432005 0.6714440443428057 6.490544020857843 0.10640073345444256 0.10726488122695074 -1.0140189184414408
Ni 1.5358938546449772 2.8222120946589233 0.9202708853315911 -0.16184888712041803 1.0137070436279767 0.7295512933458209
Ni 8.71020299012878 3.5164375770670557 9.343351006538928 0.07135505470421905 0.3565078787923215 0.6977619167493659
Ni 6.914222610849746 4.756107219169092 8.641464633803569 0.0630143960490076 -1.3368144925829817 -0.1904233563240011
Ni 9.147065612026525 2.765604807305146 4.4812960608602745 -0.16611126194119777 0.26627244224383173 0.6381488330724236
Ni 6.728610984607558 1.6439044525389244 5.235854915459409 0.8137240686399987 -0.7491564691712582 -1.708486223599935
Ni 2.6242269839786236 2.1094919032873216 12.681521490827171 2.1621427211208117 -1.2749730337961527 -0.3099423723279565
Ni 1.4358670557114752 7.362681864531773 0.988505691382392 -3.201510916960318 0.10133334623386421 1.4436636264287523
Ni 3.436543429439436 8.501042432837963 2.3195940434332636 -0.20049308185517728 -0.17972628162147114 -2.1675708341149185
Ni 4.977613181886437 0.36236058046134767 3.7616281860556855 -0.6609771438208487 2.6954085429348997 3.4455808549651823
Ni 3.9880058572828907 7.844162035836836 8.989908320156726 0.2990365240487301 -0.05249061369954831 -0.06208957024189308
Ni 6.192788566216509 2.4436415008100085 8.744918008117397 -0.7192843642021741 0.6411827348027409 2.1472722317668826
Ni 3.5973519287822353 1.6344792643171564 7.810603873125488 0.010436107731659447 0.4597181303339244 0.3491393542423923
Ni 5.235219393830554 5.434074953869964 10.527970810463058 -0.3004148924534955 0.6752051144947726 0.5876695933759492
P 1.1710632571312716 4.763229928440955 9.911702023883233 0.253030489632261 0.7655220550134751 -0.9042600671480426
P 5.669451948309911 8.673812591115638 2.3362383455333333 1.9660832495569558 -1.1965677571133713 -0.2980289087198222
P 5.350624131441677 7.117776725494249 12.426545346301443 -0.8531097695264727 -1.5121457304605506 -0.9460438359530482
P 3.4013978666065268 1.9192098014516248 4.43896695089707 -0.601121605115797 -0.5404664533275853 -0.7562586274336782
P 3.2802088526090545 0.34328276402397917 0.28541753695122885 -0.5250907422024634 -0.08772629697339085 0.16294906216313226
P 6.655989300980249 2.001949288919778 2.142180552606612 0.40040303751337497 0.06648769930958871 0.7224365366779107
P 3.453933697280593 3.755736273458264 7.489516631791777 -1.546793145331091 -0.005337353052513389 -0.05838872435153815
P 3.3104967464378947 6.348046780936163 1.4485409855735372 0.23809957935404155 -1.2613646989840985 1.8033481031768428
Ni 3.194109243421323 0.9620992529215434 10.460093543826428 1.4471706111407463 -2.0970336473263043 0.13620496130006865
Ni 8.073427165421952 0.22498401628557563 1.0909828520601432 -2.5066039531612447 1.165508573814722 0.16905903171561204
Ni 5.240217457892544 1.3803735691505383 13.638535634750813 0.040594376482594605 1.2764622167471693 -0.1199483902318902
Ni 7.991923154463503 7.190576242861591 4.027330513006584 -0.8652034674662132 -0.7282346314169265 -0.46904146461737933
Ni 8.569957686936155 4.478040767450611 6.716669916947843 -0.27786271818459246 -0.3275060922433327 1.102329884273708
Ni 0.9641864594493034 2.953341078757208 7.666464946993184 0.2711035450838879 -1.1239788300020512 1.7677455234818844
Ni 2.7553934067590196 8.784500054780613 4.449282243786058 -2.186111059010951 1.6796734131333007 1.5629895525852953
Ni 4.570224162481589 5.5167582833149496 6.883864519491946 -0.5186241606415133 0.4062291572768488 0.9458242637430743
Ni 5.829951578525284 0.9267159544572213 7.213143344471825 -0.4802409328776246 -1.4111525411749244 -0.8222243928015258
Ni 4.469954012114357 8.96254906723612 12.110500159481203 -0.258830898364122 1.7801742361635406 -0.412523989146625
Ni 8.458259378854146 8.68102889709278 7.137717503554306 -0.3812817433028917 -2.520953537014697 -0.7289260010569963
Ni 1.6325979705410139 1.2758260493519777 3.1549764609434554 -1.3102915065917884 -0.27254619106768546 1.229763784249366
Ni 5.9791166477311615 8.428270994482205 0.37997828829633695 0.8922828401815084 0.12236522720349892 -2.1947515082947686
Ni 7.686217595675626 0.06566370455673963 3.4001305672170257 -0.6808576847948596 0.8317832401345546 -0.027895183748371317
Ni 0.8647764628036013 0.5276308347448788 0.9369217392010306 3.0982515573483353 -0.5317313874474326 -0.8448935522642675
Ni 5.4649712262831285 3.636447272577991 1.244790317847945 1.5260975646549524 -1.1706237835541 -0.29127307805322744
Ni 4.697861989472902 3.129396481390236 5.813465454857138 -0.36481896976117817 -0.4516888322715447 1.2469063574669235
Ni 7.21033450734635 6.145456712356052 12.54546557616291 -0.07473014182403905 -1.0708289854519493 2.204706305514635
Ni 4.186898856004414 4.990323614463558 13.625452687286675 0.12327308372974899 0.41118932949560144 -0.9451323798823722
Ni 0.4214771954837011 5.393313588720212 2.1892362961864924 -1.1566850619858209 -0.4435744306945264 0.005529671568977574
Ni 4.04873139966902 8.572971500846192 6.5208871367427985 -0.28722693300831176 -0.38266242570050224 0.378673102035451
Ni 9.33158215681693 0.12191064459518634 5.189306466022151 -0.2468297601381878 0.7384488529457669 -1.797638711496891
Ni 8.953114519343824 2.203200924614375 2.108426772781227 -1.0744177312444723 1.1374182433364088 1.125221958380533
Ni 0.5913486637988323 7.280953221480651 5.204073218214289 1.7526112389436073 -0.3745536805504388 1.1456496301072658
P -0.20372633258221928 1.4226792799374224 9.201637171040447 1.8810252434443475 -0.5106992493674818 -0.04552240991183128
P 7.06452955986005 2.8731474216726895 7.0547028417726265 -0.21877722487634582 2.7631794798322864 -2.82868861727869
P 1.5650305089988643 8.60089139803143 11.31013226941653 1.5387499633116404 -0.1532979122266134 -0.643404425044408
P 2.3743892985728063 7.176059393872552 7.532353035897603 0.09770371990107689 0.5845518736825739 -0.41161870372353626
P 5.118766373120286 0.5023541085167684 9.179390170162273 -0.5170033372086387 -0.2668632817502952 1.4276399973069862
P 6.963379600463179 4.3319363105074125 10.895359405932085 1.2495317109049124 -0.38490956986346614 -0.3243660039524543
P 5.724617846402365 6.370519349874063 8.5652722358698 -0.8267065969425955 2.677005872057996 0.07457716118594253
P 7.27954927090144 1.1066593642276104 12.691248060439943 -0.9437385848586393 -1.4984592341123935 -0.7636474636985816
Ni 8.163242563809327 7.335239310543467 1.4933494722596277 0.3700969303306658 -1.1609831751405424 -0.11625782875418043
Ni 8.169607139768415 6.701889125249912 7.999524142899351 0.4090470863416181 -0.4939644531113041 1.7349619012929605
Ni 8.930033571821598 8.505553794032492 10.451929103224792 0.5264773381373449 -2.630523926446373 0.3429982743416609
Ni 6.631111296716635 6.3465211546400875 6.319993040462374 0.4951687578320504 0.5577326966072007 -1.0653471364017715
Ni 1.5453471218783297 5.044956011335913 13.785948573633837 0.5315246707532653 -0.006659157187730467 -0.4946550514204255
Ni 5.168569180000155 3.0703182410170475 3.5807357056937494 1.7503437830656694 -2.186855907596776 -0.033160288802052566
Ni 8.890245612406765 2.092691294689433 13.423614200249967 1.9025559184272718 1.3731351813908867 0.6819234070552127
Ni 4.073366052498904 4.661930214315635 2.666311806541045 -1.955092554873407 2.6141416284336074 -0.9575322962086218
Ni 4.254485036887619 7.16068145519493 4.3407465683754864 1.944686529048735 0.9993859990196142 0.07798284443338181
Ni 1.9423562666675458 2.9895723633713733 5.704409381765206 1.4769144180620821 0.21510491823108116 -1.4431697175114693
Ni 6.307547486561197 2.257234302572933 10.901359890707631 0.87005179669745 -1.6264274093249669 2.601655065930823
Ni 7.661021362614057 4.3563556909151515 3.0619198086522084 0.09797497128459255 0.44447868767635057 -1.5857417586801463
Ni 1.2031575673720294 7.25207863790155 9.415133127719866 0.8823408984774481 -1.578178858731224 -0.4111790450829564
Ni 3.3516418580792977 5.15670111777056 9.16280109011832 -1.2978247415833455 1.1125528475532966 -1.5659031266876644
Ni 6.861022243568188 7.28765474557875 10.619684350033527 -0.4119493475900777 0.5146402362931007 -1.341623998156483
Ni 3.3229170292286456 5.202928530508706 4.992659788227365 -1.7532997803701997 -1.8602545865558995 0.45596689082160824
Ni 8.416075343784128 1.3825918110656912 7.085114283252438 1.9640502782873273 1.9253567183718714 -0.028785299662808492
Ni 1.9629475418293034 9.45448399052104 8.62369717124013 -1.0817142649058853 -0.6765225477546155 0.8124907104535297
Ni 2.184509662569816 6.488217206764564 3.4668846733902856 -0.7637973590128845 0.31889906730061207 -1.130568053183795
Ni 1.833213148639702 3.852786697163839 3.322019436825004 0.08717890911035309 -0.6062890082493494 0.012569609134894482
Ni 1.8797587901758024 2.7015659415520794 10.161664192907075 -2.0868410230640193 0.43798176709809733 -0.2464250685006014
Ni 2.900262387192513 4.624491532203349 11.373900640691335 -0.6326710977873039 -0.7559323544425111 1.7805552736520431
Ni 0.18258283685930538 1.0142138984218465 11.392846485774257 0.6700809058943298 1.6574606244816874 0.6538068513246547
Ni 7.025836681897002 3.473457970002151 13.022211626114874 -0.8761571382642394 0.6081628282332946 -0.48955475407938265
P 6.337002369713039 8.542140746126725 6.1924441303410775 0.6874880456271838 -0.5408408059478685 -1.130818221521388
P 4.657559248179026 3.134104395665856 12.144925027683453 -0.5089388150329494 0.42423484982564996 2.1768851695373086
P 0.8434382859337036 6.564133494417754 12.414216788281866 -0.44357263092231347 1.3960141428715893 0.6447719948158959
P 0.4069294595819193 8.56735569852935 2.5763382297217445 -0.631989498339247 -0.0874658442231526 1.3426694087018618
P 5.347385685438964 5.3848618062333635 4.392075937518484 1.534580662425299 -1.006859424578524 -0.2381875110821575
P 8.142295621167502 4.584001597498911 0.8296402596412202 0.0352919904330747 0.5155964295587829 0.8323720227584891
P 9.009646929333377 5.381342570114808 4.865753887471347 -0.15314236048535562 -0.7909700627729346 -1.1655224577717929
P 1.0216735558327197 3.348431491088169 12.293009054943338 -1.1712621884690475 0.485692185800183 -0.10790405747284643
