# total energy = -340864.4349467768 ev
CRYSTAL
PRIMVEC
9.32057674396338 0.00000000000000 0.00000000000000

0.00000000000000 9.32057674396338 0.00000000000000

0.00000000000000 0.00000000000000 13.64160620312726

PRIMCOORD
 96 1
Ni 6.609519057044604 9.229095045068776 9.308444841073248 0.30303073280978776 0.5477169642424116 0.11599197668730346
Ni 8.811700988091273 4.1308608651760945 9.36771811528929 2.4931627400546743 -1.718615084503821 1.7695010727204106
Ni 3.922648506665522 8.415744257071703 6.364845535310185 -0.3834597247908171 3.3423230380150954 -1.945970795077797
Ni -0.2390755834864471 6.451050615332945 5.411393433659152 1.1299718143606925 1.2704558626520892 2.1998860013078567
Ni 5.4067545827333845 4.75103338456266 7.952619723537671 -0.03858865890647547 -0.7886349868818547 1.1614863400292061
Ni 6.062652871857674 3.517837227967676 1.6274574747485757 -0.7685035062393024 0.1306197539028073 -2.1470382613792056
Ni 4.534423186622479 6.470633146566694 6.8507737913175575 0.34532692247483754 -2.1201735757778777 0.22782622245249154
Ni 0.3020323495366514 6.341151697780765 8.326781218461571 0.3261164109846577 0.2628503039361602 -0.19272166543987454
Ni 3.772671110148506 3.013799091814099 10.62559702258071 0.23468875390027966 0.5672388363254232 -0.6788794780225663
Ni 2.8675312847454557 8.428718499564507 3.656209574680246 -0.34732981183747924 1.3430643301474354 0.9344304200838357
Ni 1.9743870413023463 5.247903997385084 6.590533042707077 -0.44474016886785345 -0.36848433442790735 -0.21574846535235098
Ni 1.0079737459656153 6.896891071798978 0.5313390367898324 0.2028505263437603 -1.502702839880096 0.11014477387790708
Ni 0.904342916112005 3.4014884714751075 3.1533663364344116 0.4043447957699423 -0.9676886679163333 0.09988915758816991
Ni 7.125357043051549 5.474897317550108 6.085233832552583 -1.3811205135892084 -0.30351744263821917 0.002824613932988684
Ni 1.720336087547806 4.415529912744469 10.727035652840708 0.6958407884672532 -0.6456160879837461 -0.9935629645799342
Ni 8.446576724145116 2.361312133690072 5.1708647722958165 0.48174862777140254 0.058529106584144355 0.7456566835481159
Ni 1.922406186142605 7.888097100634887 7.023626678746992 0.9650841404139509 -2.026406986147678 1.425743551615222
Ni -0.29326634733515655 1.0764520215364635 2.9861477375013137 0.09908800184311321 0.4161057929606124 -0.8485702297849063
Ni 4.443966991656495 1.3534595552190016 7.865353961908818 0.18656850135428513 -1.8900567575189966 0.47714789577459765
Ni 8.012442911767415 5.955503524374011 3.4874633332582325 -1.0460592347064372 -0.438918934200386 -0.15780994116435404
Ni 3.507332938248288 3.193518447953625 7.006124500188813 -0.9132949236568013 1.616264352749036 -0.4414159895906269
Ni 0.29793315999043407 8.95474387568972 8.90032941800493 0.8176539998220241 -0.3583539308621248 -0.019094554737605827
Ni 1.171773557437248 4.428019485259092 13.264224268977934 1.129856628939067 0.07009084327981477 0.6997141553797305
Ni 5.93334851402531 5.95452486384115 2.1100564208289163 1.3957482908047125 -0.020213755943713572 1.2824588006502367
P 2.866683112283642 6.598017465639347 5.095521892130177 0.2576805868097627 0.6312641901374483 0.523958171259917
P 2.256166710154651 5.555529624881455 8.791564814613219 0.26576876313453585 -0.31187507057429514 -0.4466013904463083
P 2.061590355068626 5.4125053784360135 1.7959585850085489 0.46685756959218305 -0.8065362926423076 -0.9674845223253273
P 6.082403173468485 6.833809410023628 10.404930509746228 -0.5719125876520086 -0.05188614734632999 0.43481288245181243
P 5.805721859963568 8.677773624313197 7.310823466663102 -0.5049438349409433 -0.18595040815431202 -0.4205476307820499
P 8.252606206531816 0.10090083299574983 10.954195811325146 -0.5968360903665657 1.7009973714220576 -1.1112752663924539
P 2.4034597806386735 7.429664545312692 12.574655397234931 0.4983245298522128 0.8886580989447276 -0.8680658766156728
P 1.5953471566365398 8.923855485157286 1.9578430180087223 0.2916926820891493 0.6661165219299431 0.5846644880010382
Ni 1.101664180978296 5.789550659730081 3.646864764677887 1.3120334289835598 -0.02689373906705046 0.631357521182203
Ni 2.938265139830139 1.5235973587129805 3.468160419319587 -0.7485895409241946 0.3485937661515674 -0.5801545159458268
Ni 0.2734890160524857 8.405855125401542 12.19687751862769 1.989147844685903 0.7071438721848983 -0.5610244799845951
Ni 4.8995754122981445 0.7948205498505637 0.12133899315251528 0.22886263413680588 -1.072332052360037 1.5854496813610242
Ni 7.468466105296555 5.686959074156606 8.870359104258085 -2.753165290129394 0.7574197376213149 -0.3054879361010287
Ni 5.488999349799828 0.608768794034594 5.437285063128085 -0.4521757992102922 0.6636734597060893 -0.6771038741793823
Ni 2.3553469647278638 7.172780136301103 10.397345424587721 -0.39842174541728803 0.7419830913512705 -0.645347921924024
Ni 7.04193788334567 8.070985452785587 2.912796664534462 1.348730270183961 0.4011681978141736 1.1213622183148106
Ni 4.283979295974773 5.363609634098914 0.8224560591832933 -1.634464163586514 0.19021226875445948 -1.535670295945052
Ni 3.3371019289892745 7.711817037225136 0.8810442710263305 0.8083977713310787 -1.2577152751569693 1.0902937790447804
Ni 1.181960947555519 0.7371392301013122 4.9117424928657485 -1.3813287729452726 -2.9236654251669068 0.5814660356683985
Ni 7.580918860810681 3.6736959082583693 7.53026152751443 0.8306095315414276 -0.7834053630517992 0.752905137580413
Ni 7.569929901113113 3.4890366465720146 3.1901984586030956 1.6100535959526336 -0.5854833843579078 0.7632828812703113
Ni 7.573042973665266 0.39280264793080133 13.045263421643583 -2.0153252744122194 -0.2791906929673966 -0.8020571738250316
Ni 3.7300481137982286 6.51554900473682 2.9858746446097624 -0.4044671802804195 -2.51108641441263 0.640727135322561
Ni 2.1972886283823567 2.4422799817755436 1.078587365613404 -0.07163479072816695 -0.014674828403355373 1.6701968411014332
Ni 4.156744106126176 5.857954370688902 9.804236131136573 1.0269721361679989 -0.7449334322288461 0.18429924570413422
Ni 4.35742543882196 3.1895478823631547 13.421621776449348 0.9566882030407716 -0.3121838600639656 0.005754643095590089
Ni 7.111581230979449 1.213054390771029 7.0918346575992395 0.3874904432167649 -0.3732565590055701 -0.3217972147840135
Ni 1.5042105595858042 2.8471192222029003 5.329188745071672 -0.5417617751002411 3.8812972230678704 0.5242628469845293
Ni 8.176690110911213 7.438863954321598 10.183908882946962 0.2534354383801635 -0.7028889535632863 0.5129031989973359
Ni 7.758652934154972 7.2566932865616645 12.79698563297528 -0.8130026170929417 -1.2549860491512643 -0.35480760827176316
Ni 0.34798558787161166 1.3582596521182784 12.957697537451319 0.3810529151215373 0.6257288621415159 -0.3957516547842926
Ni 9.24383087652073 4.770998059433051 1.6620526585564317 -1.4268892351838909 0.8160830557904782 -0.8098324468950763
P 6.143881696085242 2.3150447919269457 8.747761833277604 0.6116723840484497 1.191934629216734 0.9666836236905869
P 2.9865177643885006 1.4942095809976024 5.733539587290249 2.90229030192524 -1.529883514059946 0.17443315154333183
P 5.046588865487064 8.063687441383385 2.4096943142618317 -1.0004938873718123 0.7642215910344967 -0.6581612716386085
P 6.99406740242395 1.2829773556999116 3.986609098805148 -0.9159385319272354 0.5638002429575193 -0.28689937446556396
P 3.2369057315771848 4.666309344146299 12.33246208090808 -0.5020212619775096 -0.9092207535874277 -0.4683035580100902
P 9.333066075964762 3.262593240420694 11.917975111742003 -1.2259631795563533 0.6125779265818547 -1.010584438838595
P 6.049650667635361 4.5525796696512 4.232649017054973 1.474958322776976 0.9364641626844131 -0.08745890224461711
P 9.03230039277493 4.303682994703067 6.075370798496632 1.5200433880410724 0.30057224396696625 -0.21591815816099588
Ni 5.660292904780235 8.839942334896726 11.980099550310447 0.12391843062323174 0.3757644130290883 -3.358029393006759
Ni 7.673919573162107 7.683929872326813 7.439340235780924 0.19460397006425195 -0.19726686160839574 -0.14597541042327117
Ni 0.7608917872627046 1.7982840688461594 7.4714253883364 1.645708626152082 0.05506403085367937 -1.5300691477081907
Ni 4.956449570122198 2.6146360824773436 3.7661746683256014 2.1446517634249003 -0.691123842607558 1.107026775528745
Ni 4.1189678095576925 4.733007389604987 4.838527500315847 -1.4026491316896037 0.49626276222717763 1.4723188282715998
Ni 8.152568458920285 5.156860606099383 11.495848998073695 -1.3392254160173194 -1.2002778589751069 0.49516592961857303
Ni 2.5804295667096815 0.24919400133859257 11.16246222917944 0.09737847535117423 -0.39811964079583695 0.20972231376292913
Ni 8.003075732381449 9.068986181892509 5.076451060546468 -0.11588450457516172 -0.8420609679114789 0.9294679338722378
Ni 6.0635849295080195 4.063696790892233 10.576541896385402 -0.2901932147254873 0.16644704801406174 -1.4877307919512959
Ni 8.53992229782717 1.6874624142201375 8.895050243473374 -2.6744949327106844 0.3210497950950278 2.6975273890501157
Ni 5.834979149607898 3.2749150425582547 6.232768305968045 -1.1987953608923096 -1.1662313109133593 -2.0896175573678915
Ni 4.746988254360163 6.088107366288597 12.315519136940107 1.1232054421711364 0.985147486822729 -1.5419620424910347
Ni 6.739196237937106 0.7397694967905858 1.8782173329397478 -0.7008040460097995 1.358539800075215 -0.7952321804833982
Ni 6.971315875179028 2.817610276992977 12.355284444534428 0.5042604357206735 -0.03823924598685672 0.9131846233311821
Ni 0.2769590666847202 8.059278808697252 3.62844916962237 0.45741056524667034 -0.07512532037992868 -0.9471075013308721
Ni 4.392591973969478 8.493300774156912 9.880642489081255 1.4306798125745748 -0.716412699081334 -0.2163094800621436
Ni 0.7902217774037614 6.193895909602756 11.685631780663996 -0.8173033013508245 0.7416167091507873 0.8902071885994024
Ni 6.006682809954456 7.2992323977234115 5.011230326463576 -0.1648863883951612 0.18118769665834603 0.17350241219894635
Ni 1.0602994624559845 2.0327338502139445 10.449824930590395 -0.4342590668308715 -0.6548926281896656 -0.3693482250900994
Ni 2.374864251926089 0.13938176514789408 -0.07280302306844905 -1.0491751546275996 0.5960141086859025 0.293527678415359
Ni 5.6516247686320265 7.712693171416459 0.1550086437135786 0.13078404739481345 -0.5540567904175103 3.0088800114620375
Ni 3.616467568527185 4.072094630321842 2.574703004505962 -1.2088902832344663 -0.8512477766170695 -0.12066598512420508
Ni 9.05548066653901 8.686003693365743 0.8861305096242634 -1.159934422161054 1.2876701696478468 1.5207398998874646
Ni 2.414448740336242 2.1515712006329335 12.515709275254162 0.7501743689128113 1.8172783401046897 -1.5216109896385086
P 4.377259625621303 2.0309815818312957 1.7401236714646307 -0.8075775894226285 0.3345593995456883 0.8378358740865376
P 2.554415837688552 8.932383812657944 9.089838175646028 -1.1346165122215555 0.2799555961578792 -1.5898274987137457
P 2.354685203796119 2.7066674548724103 8.853307109545023 0.25100291767927096 0.3154941553841212 -0.32158072789783326
P 9.482195300019963 8.6413115290317 6.683991395364821 -2.6125033214992364 1.6042015080472307 -1.1451516074249246
P 7.840841777762395 6.850679653494874 1.3263450661128149 1.5917979921765553 0.2679431450780353 0.409970626597152
P 4.586329477170192 1.5356209024024312 11.894157310545085 0.20649892172962503 -0.5252295817731728 -1.3730457070008741
P 7.192614323100445 5.089211861837342 13.852777664634196 -0.1996379329437336 -1.3703478484537368 -0.9394348152769628
P 8.223479404958534 1.923375526098964 0.7117136294575506 -0.6926572485329491 0.868698110883033 1.7032545428873502
