# total energy = -340865.2369695265 ev
CRYSTAL
PRIMVEC
9.34602778744824 0.00000000000000 0.00000000000000

0.00000000000000 9.34602778744824 0.00000000000000

0.00000000000000 0.00000000000000 13.67885637789678

PRIMCOORD
 96 1
Ni 3.577575331594984 4.324977175597719 8.707631492622149 0.20741911955104922 -0.4013281204308056 -0.4536295009376833
Ni 6.663717828860197 1.896234274520481 5.506519768849305 -1.0751088437742258 0.5974837512528935 0.2328175050194958
Ni 7.827690824430894 0.23000013679881084 3.291734547834218 -1.6846037605553825 -0.7456320009577675 0.34042125764310405
Ni 4.261592414987159 4.796400164385289 11.387415242907894 -0.9455609827793586 -0.011218494423638745 0.08981223296814209
Ni 0.3230043287462913 0.31243864430656276 8.592783764476053 0.391353525716597 -0.339829389695376 0.27585802904973783
Ni 8.447379198403649 2.4567436003973855 3.9217960780738075 0.6678908402215465 1.394327756308102 -0.8823334422782804
Ni 7.047194695951309 6.995941079438729 2.861083605369794 0.5233863579168471 0.8405653572025588 -0.43449586543202584
Ni 4.0234930104878 1.443307074769818 11.635782193559827 1.4609175284131937 0.14030355684947451 0.11894180334424677
Ni 8.854052906520332 0.7660920304180989 5.4234335816142885 0.28978620909505576 1.5550181043440445 0.4145703301526925
Ni 7.968413965173037 5.444079891650381 8.828141979018604 -1.0354850587350166 1.1405094806672227 0.6673205695403733
Ni 1.41811952982062 4.952590981153748 3.3397067739825443 -0.15251372576242123 -0.1044829476064394 -0.9100612472108519
Ni 1.696799387073009 3.9422012605923915 6.885553275763788 -1.1211824982038368 -0.5536479850148658 0.10309917988503535
Ni 5.811369438573772 9.302989352395928 9.292115249038453 -2.004086982494239 1.8987722830151237 -0.7896022358911305
Ni 3.2915868805948127 7.278649074677428 12.375972642504006 -0.30086252151387544 -0.22757759677679518 -0.1902382368963885
Ni 6.8972470257602385 5.57038211148098 4.813958546832805 -0.11428553551915802 -0.7514326667999446 -0.3258297329821743
Ni 8.92043774205805 6.299390972752724 11.031901691025688 -1.2551449433266317 0.11739734167526232 -0.6838432497857448
Ni 8.829248548711362 6.059534515024999 6.703173019864848 -1.2371863019656821 -0.015636420985676296 1.066479964454634
Ni 0.8157689720390536 1.37089405129435 13.690072751999734 -1.5089279948542014 -0.4231799261985744 0.06058778888538598
Ni 6.0507772869665954 1.6692192590043324 3.2929934577802875 -0.8849906773954693 -1.0920418720841385 -1.0311784609398627
Ni 1.97189036964618 7.480607389633725 3.162059346566824 0.5076380939436548 -2.383026193706883 -0.25342232575404094
Ni 6.911013724725051 8.457528984605814 7.116889894539494 0.20019971898447458 0.23695569555758544 1.2861303359645528
Ni 0.15628801545768828 8.230962578424567 4.151984070031609 -0.24344233172319363 0.754050821149082 1.3647670119318496
Ni 7.051792941634057 8.137100421124085 4.968584838545794 -0.47102095694125334 -0.06356821166994858 -0.4983486982219288
Ni 6.180369308586476 0.08786948426841207 11.903053354663982 -0.3809457001197117 -0.5375413092609904 0.3609795414104299
P 3.8031323667727004 8.866473777480437 10.298140374612322 -0.23148953023669164 0.17106217818856992 0.4529376170769812
P -0.14527746009418172 7.375810379795002 8.597489489478622 1.0179694184487567 -0.5336052074313777 -0.20874992254733082
P 4.716201899743704 8.29944092419183 13.576688611808759 -0.4161461592802446 3.0173898487052613 -2.462277620440043
P 9.135723492672069 6.35158853807416 3.456851755764451 -0.5799462565897625 -0.27490492110784914 -1.122348750597796
P 3.0164678599382104 5.166016872233484 13.219301181350556 -0.42217128242840196 0.45036188593000503 -0.13892878798913494
P 5.137978788802094 3.269810635796434 4.228449531165694 0.663061280043387 1.3215148861114339 2.298758287595738
P 3.3769254605321515 6.549929940267809 6.032157195759809 1.417765932726384 0.31298244470586095 1.309622505549222
P 1.927711696186121 2.345666059870031 8.570214041916566 -0.3730513849732995 -0.5934131807279457 -0.7167482280438818
Ni 4.892982015778615 4.557319426965832 6.708152583482263 -0.3554915217126652 0.5235874181840595 -1.378231879187504
Ni 2.4977165863184556 8.813930409130013 0.8739367799258139 1.2314650832111889 -1.405366787731083 0.14562085529732985
Ni 8.166512370643613 3.194902222895572 9.491389384807587 -2.4339353218519246 -1.7940042000680976 -0.9785060702468115
Ni 8.706535203559982 8.07122027108813 1.4442276585091487 2.8691107298494782 -0.8695085225994703 0.26907468757931724
Ni 7.477065245093559 3.840376287597396 7.1913992320528495 -0.5928637359823788 1.241934358173629 -0.9596876519887277
Ni 2.0466679381576953 4.214768815656738 1.2664353676623656 -0.5808466569168449 -1.5549903364299025 -0.48236903496422084
Ni 2.7050114831545273 1.5448516669304997 1.4617776295316363 -1.4857800959828282 0.9333091619951991 -0.9104484553469417
Ni 1.7540157693286642 6.052057692776628 7.788795460492089 0.11025533131384238 1.47460608164388 0.8407682172419844
Ni 3.500582754492389 2.439201106197146 6.646227672415696 1.0174379714253188 -0.6652932546976993 0.7276443061310952
Ni 4.930768006216317 7.487383259796311 7.7703286441413955 -0.8805547531113028 -1.2688579220373501 -0.21300612672052346
Ni -0.026577299284613942 8.33497452192721 6.546727991139943 1.5491539322537837 -1.12736728685831 1.1650146648974387
Ni 6.994557867322781 4.514066010259008 12.165933751902784 -0.10030979006535629 -0.68516916768602 -0.0048832962342303
Ni 8.380508369419786 4.667808167741127 2.017015795723439 0.3277295211080485 0.6037490154363151 0.42184320966502187
Ni 7.579609862229961 1.4860464599470657 7.608275998730214 -0.04657604798732624 -0.26666864924098593 0.15281197372913038
Ni 7.522879473420449 2.0833604433415736 12.741048115439098 1.0070525144259366 -0.4810832262732618 0.9970987456473344
Ni 1.3910253951980873 5.195139094890886 11.7394819797336 1.4195443647830457 -0.6293003815428582 0.7329688036678023
Ni 1.6140029267001161 7.656677207555039 10.67376190532874 0.0762190676647397 0.07381302932640837 -0.9662341948579939
Ni 1.77915658413881 2.3147774379564505 5.042915666927969 -0.9968856011952637 0.8269256549319373 -1.3078152771371543
Ni 2.608438977789012 0.01473962045988137 7.4219152695867985 -0.6002669704249856 0.5050356233238011 0.9176555146183422
Ni 1.8189332785001406 6.508704611595856 1.1369274602927784 -0.016212862314436596 -0.07392975740993074 -1.4500978120898702
Ni 7.47746712428941 8.009489757400022 9.75028930880191 2.489605875941351 -1.086476205070903 0.006921409710181628
Ni 0.6383757565797775 1.8531771243976776 10.567025594719345 -0.13551616276316017 0.6401090421225879 -0.025590961095226895
Ni 8.816565988972563 6.126330575786379 13.532615548462958 -0.5019431004414064 0.6494169497870752 -0.09942893012229972
Ni 4.1882728268140745 8.795042086925069 5.809793698284928 0.06321108544084597 -1.003398719723433 -1.9340249355698305
P 2.660973000111625 5.8764551762458375 9.7203736083834 -1.1727156330861221 0.41388358849831297 2.114687355852326
P 5.298627660836145 8.909671118020398 3.3559707315783123 0.16502754195871577 -0.714985222606188 0.7045198042984899
P 8.83304303600241 3.675428242770533 11.367430631640781 1.0768170847145841 0.7175902643292028 1.4382889923804003
P 7.815952213500951 0.8681945804390654 9.632021869079967 0.1740444007453454 1.0690394976516944 1.3914447783333521
P 9.05742247167601 2.9229047755276643 6.216739375810894 0.49400353387935564 -1.1904526453545692 -1.002122938334803
P 6.765542801855192 5.86966061402763 0.9691821493422433 0.5407652155149267 -0.40972431491430084 -1.1646840210308975
P 1.329061230814717 2.730339218520882 2.7372618213200925 -0.2839608606625303 0.10478299534536148 0.5421428125887437
P 5.680693277727877 4.6843132528544045 9.852155404319271 1.5851352354443988 0.4244238259080046 -0.55928281470314
Ni 8.960765852060199 9.458834366135399 11.498214271806496 -0.6986268358528226 -1.4663335572224423 0.82344412414124
Ni 5.59560704054142 3.0831237302824333 8.47816875242244 0.853442213165227 -0.9952560360116409 -0.34999193205067464
Ni 3.178425175865726 4.617535884148646 4.693557408961733 1.7698643695971004 -0.7290872092252089 1.175950337973336
Ni 5.715796958183976 6.354691419307234 12.568612033130492 -0.20893787018842083 1.4431560906647147 1.3974693872608772
Ni 5.713703447954432 5.002115582521393 2.7135294529009832 0.10229802413997865 -1.1228724843117501 0.2737114150203802
Ni 0.8113557777069529 4.233806674306652 9.656383225170721 0.8112547811638995 1.283883191801589 -1.5421397057194797
Ni 2.218158202451883 0.30083368157431073 12.08853929560434 -0.7931848110360662 -0.34441752328669073 -0.7926806177061381
Ni 4.919066779397617 7.257592474020454 1.5419768287760012 0.13370970568204069 -1.2655833650511366 2.916871799283841
Ni 5.461986880935229 7.003810434855139 10.173855027583222 -1.1947273614705232 -0.6799074050664484 0.5130649213861809
Ni 0.5632953767672031 0.6943575285616704 2.520315281564155 1.8135486978589284 0.5182968592090815 -0.4227104427613236
Ni 8.964149114127586 4.779287587464331 4.843997614818416 0.7217184275649635 -2.4981853900802458 0.33303113582662
Ni -0.0032140989640182635 3.757084487750549 13.475930955189718 0.3068850735588715 -0.253756312054692 -0.2443152212464502
Ni 6.777935634731866 8.793163535335164 0.6645109887489564 -1.5911004518888985 -0.31252890210821016 -0.8995698607612248
Ni 4.380931844098962 4.119215027322563 0.8742947327909546 0.9251366534867357 0.3476442577541045 -1.7243692133787787
Ni 2.571325901353663 2.879408362097769 12.850314395776785 -0.1940054172483046 0.6136955851260657 0.8406694868805908
Ni 6.507956929371018 2.9563074789222594 1.5110209154621852 1.0633894984547685 0.35617260694008984 -1.2878514324207175
Ni 2.5848215655119717 3.0455153143731297 10.530694780811734 1.2700966795404578 -0.0016311078455197715 0.5090326602983362
Ni 3.9363132630718 1.5101031355311978 9.110105095840808 -0.3088319128725972 -0.2649056438032922 -0.09390105832553507
Ni 4.9119544522338545 6.618202673423242 4.434137845821147 -0.8433377777413734 1.3785355264708516 0.0032095080762331823
Ni 1.432493720593112 6.223445150764901 5.487081900209104 -0.6490803923832629 0.34473968251279985 -1.6216464429965554
Ni 6.011748274830101 2.289393626423233 10.890257031941431 0.6790576554716434 0.9905704576105135 -1.3919237748522997
Ni 2.9850278223838127 -0.021703345781457432 3.330979453213134 1.4780760424703512 1.8674025104545902 1.1106168068728486
Ni 3.7921133999841645 2.9438492238509117 2.6789631690439855 0.0256629519837429 0.6930956216219483 1.817526965780386
Ni 4.947460011885804 1.1319908884032919 0.9614380306984937 0.19661971494270009 -0.10411373719247875 -0.782069417849195
P 0.9766038300265322 8.295562322650488 13.191889281782466 -1.4557789216350476 -1.0625919422541377 -0.1549920120995847
P 5.481800459893411 2.8975583481056884 13.052310094844325 -0.05382990133626212 -0.7596578829232143 -0.06671164239493671
P 5.1979429032340265 0.9211426317936819 6.961128995050316 0.8463883916422391 0.4217475646274221 1.44369499388732
P 1.8255502661899488 9.565472543452783 5.431737527323884 -0.17395004125932623 -0.8576367108625488 -0.5405302166859852
P 7.438129693235171 7.650275178504873 11.902205669941575 0.13379635185857602 -0.6669868403500384 0.6491259009092175
P 8.093660083861053 0.9536593317518453 1.3523823740101655 -0.035990044941363826 2.043622835805332 -1.8902459907116673
P 6.487638664911072 5.990990747063063 6.762703478606374 0.5535027176862531 1.3736756272753892 1.8720639204860015
P 3.7108216500887568 5.780845311744799 2.7775740430749627 -2.4050212099207355 -0.1630454785316805 -0.3469940257646153
