# total energy = -340876.283505502 ev
CRYSTAL
PRIMVEC
9.17478478441294 0.00000000000000 0.00000000000000
0.00000000000000 9.17478478441294 0.00000000000000
0.00000000000000 0.00000000000000 13.42822493344631
PRIMCOORD
 96 1
Ni 1.01741937515304 2.287448091347342 10.819147153652903 -0.740396463590441 -1.9976576819291274 -0.5210183719053028
Ni 5.098152491061561 2.0730333780892773 5.116744274328405 -1.4132760152758306 0.17595370195291632 -0.08699816055811468
Ni 3.6804189195509744 5.004624738089687 6.20077808966465 1.2428208745436402 0.6298948205937475 -0.3672414631597417
Ni 8.974031019138415 6.556750552638533 1.548717382115155 -2.091683181647668 -0.3603452502605407 -1.4091766483954764
Ni 0.4503030095876095 2.5865093662022787 4.326198052276524 -0.33692507156438745 -0.21071270270065648 1.493695751285479
Ni 6.048137200299036 8.310418857822377 12.734307262788587 1.4065371538901001 -0.1670276031078801 -0.2858683620978883
Ni 4.001462978015938 0.20631337856371826 3.6934599582084418 0.24010478270952845 -0.653177702381088 0.24142504418284874
Ni 1.6396716080408642 9.142920451815115 3.9195238953186142 0.1896463689486605 0.6059714770089306 0.1297502068136604
Ni 5.022478868684474 7.271805730524446 5.791472604518361 -0.803401603668068 1.2234491548852477 -2.1749226464942994
Ni 3.552852716164576 0.33751830147421363 6.229675908335977 0.3410362655192836 -1.745098732616646 -0.4404878213494027
Ni 5.662300813848259 4.16062713914563 3.0199004955610222 -1.3287584550477245 -0.049316329736624746 -1.3391683375271386
Ni 7.07236426553498 3.146061121965344 12.821778740526328 -0.46917259087860486 0.6795983584664619 0.1549678437298686
Ni 1.8108455620526616 3.769533601188783 6.00304772198039 0.21389598552464456 -2.54276651912473 0.9507378989946078
Ni 0.06273809374111984 2.2211327491381296 13.424048292820398 0.8098422170870893 0.18901336335035188 0.0007862433467212265
Ni 7.3159823177875 0.8901357551285736 0.7879699425703717 -0.2341251680873258 -0.15701392762561991 -0.6285305932563692
Ni 1.1142225261836707 2.362176710923163 2.207882525394557 0.23670938387473422 -1.43280534355801 -1.1805538981836183
Ni 2.587445194219066 5.233315415995999 10.122396588279662 -0.5820877284127975 1.2961761502363291 1.3273967988135076
Ni 4.766841848765371 1.7189967946403175 12.5774661570888 1.1224773057558604 1.8594284911101782 1.3838348271965781
Ni 7.275108652936637 4.238713729840512 8.649683120782813 0.10645986882715214 1.4558516838545121 1.557802094847085
Ni 1.30854446143424 6.208961997419301 7.587309136642959 -0.4331689190904862 -0.8794216679481242 -0.07348727055587344
Ni 8.008687720684254 7.978300834492096 11.228600352829291 0.9766721023618663 -0.40016186803684634 0.5144296629441913
Ni 2.7417100204373415 1.3472804015016575 0.08375018515334147 -2.2767000222441176 0.21062657074475336 1.4960933049833782
Ni 4.358325395084217 0.4015271028655792 9.041035387661948 -0.39500809175004875 -0.401042985090219 0.9531987018302746
Ni 7.429235857387738 5.4436014762388245 11.31985918159968 0.29767409648356474 -1.554513396793484 -0.5158818220096857
P 5.316062797205861 6.271304657949406 12.343653197008251 -1.3706412113244395 0.4149158864175694 -1.3868988108338824
P 6.082560991661649 0.12429998011212055 5.124653856027154 -0.14002613481837176 -0.3912550524655197 -0.16574076597565648
P 2.6872943736964947 -0.1911181005107441 1.8247077439209376 0.19880720951232211 1.0305973916254123 -0.8333385004368165
P 5.390112482730288 2.5937666207246206 1.190668665413831 1.5153243852988483 -0.12702535168332962 -0.8491489851065119
P 2.642438852382046 2.998833355441931 11.971799182102414 1.9767499852421826 0.2912095718051436 0.7833189739855799
P 8.84102416855638 4.755556863857052 4.163689682204489 -0.2700956726446639 -0.24681664751206525 0.5724617752872593
P 5.200533911055004 0.37482664507680646 11.100133185607124 0.5994976963591289 -1.160708324212601 -1.5980694270075637
P 8.570386376015243 1.9607890647816537 6.282395137426785 -0.3505151515439963 -0.13986004155415266 0.1379517687878463
Ni 3.6526743712885703 2.2866315355287723 2.381025388155399 -0.4809574993286749 0.12221276078603467 0.36053422634289517
Ni 6.796212427522379 6.646085429103821 9.494627557485032 0.2966981057235406 -0.6299251596110506 -0.5630795627414109
Ni 2.09953933044711 1.0946985848138306 8.760224594091262 -0.7388674285404244 -0.4291227740455706 -0.23024125965188735
Ni 2.325349126027233 6.488985594481748 0.33155102164952194 1.8302858081079512 -0.4628996133856996 0.14645106450810907
Ni 6.325078069776771 5.679742079141524 6.831689484143102 -0.4628001116933577 -1.2927506694945476 1.873810470863463
Ni 3.7102369691054764 2.4347584309310597 7.209935571394974 0.2545009035302004 1.0704939707100338 0.9493330482272813
Ni 4.723848808700019 4.608145601644073 10.973034896229118 0.691437517193235 0.9413837114732174 -0.055317284515066026
Ni 1.4967468154377777 5.766939230823366 4.995380225249343 0.21037177442146998 0.4635511309267694 1.085364460063963
Ni 6.097635162559508 1.3937690344532456 2.9338116578441604 0.3826027761071604 1.5361487782433674 -0.38435961089726706
Ni 0.8363504160813869 4.739078950934011 2.3747544229644753 0.4922497844130426 -0.4510450280399587 0.5154521906714349
Ni 6.896584569715072 5.6289871714075215 0.07267897272336687 0.8441335341697913 0.5669040786938236 3.164973741266233
Ni 7.794887717986236 1.9817534473145884 8.970966641122661 0.42078931447921086 -0.7901483382025876 -0.7094385817563459
Ni 5.881211171500695 2.566370714272392 10.656424093624073 0.6413012626584762 -0.23474686083172475 -1.241472845156178
Ni 7.195306377544311 7.881616955659684 6.5273930772648425 1.2328280249969865 0.4404747087232801 -0.050736350012602946
Ni 0.4987449541546294 3.8542443862770033 9.092667404792076 -0.3134233888980215 0.6120169118720621 -0.689994099878489
Ni 2.7898776389484596 4.268981343834451 3.7519537966498966 0.9438185461669552 -1.192487930617043 -0.15724327002760663
Ni 9.284056161444932 6.974249120323951 3.721591682375831 -2.289537026107786 0.07672840320099043 0.522704501358474
Ni 6.873198044079865 -0.14856178018655897 9.485778477855703 -0.4387024473142058 0.5128281227850264 0.4705476168492606
Ni 3.344649331998326 2.9394174511604065 9.773558437716114 0.5815159150697276 -0.30563577453280266 -0.024319036361338763
Ni 4.632027565641109 6.946146755466893 1.066712739719647 0.5545897801028449 -0.6815493115452456 -0.3432749250418153
Ni 8.28513315180016 9.253320633442597 4.45383306654651 -1.058047774526881 0.8082823287991371 0.04388281742587927
Ni 4.663221832867357 4.407401317258688 13.340793546028884 -0.2240040204929239 -0.7735541812893324 1.1799064944076065
Ni 7.757674792142217 3.522071314239852 1.873720360082508 -0.15473310201124318 -1.228784193944916 0.2522992678931913
Ni 8.901265803440953 8.986820668701178 7.93758497593426 0.3896743382419612 0.054677336938221965 -0.6170282490437243
P 5.653960934757476 4.316561776138958 5.2622123171888795 -1.3870296799847919 0.479254143484323 0.10654728633463587
P 1.912520523641274 8.340301130868228 7.3279563290101395 0.38018568202523556 0.9986072118720608 0.8284906854262118
P 8.334007228716107 1.2961493276040457 2.6711017965707287 0.35471402011669234 1.642817677757532 -0.03217092830558975
P 2.7041851519210605 1.8247178361838639 4.729272941283595 0.25284896974907417 1.2275935160709246 0.015124771456580402
P 6.73855808186069 6.4036509240490025 2.572915088040769 1.262299552093542 -1.132280150778895 -1.6419105925622304
P 2.091419646183807 6.883785745367832 11.568724293095345 0.8372440061388097 -0.22582667552395946 -0.1494026909372653
P 2.9201045298335675 7.300752175553509 4.574674152910308 1.1244143748775735 0.6812618622118137 0.5645944567240405
P 8.237277475961305 3.33530022661493 10.652516552914763 -1.5160239824690342 0.6712391878684891 1.0241979158569716
Ni 7.138046547615189 3.082553263806494 4.314730489157087 2.8430086334457876 -0.3484960642314385 0.7408975715965757
Ni 0.1821726856443935 8.692557806128395 2.086772617845544 0.17519522652033698 1.9108312710621866 -1.175092360848415
Ni 4.262843413018462 7.1362391150729625 10.090921572648378 2.3454760033672506 -0.28961600206577864 1.090255212497361
Ni 2.255042752569957 3.8902462405698848 0.6983469778724651 0.7024922323454998 -0.172293993713142 -0.7376695515775811
Ni 0.5503292624054699 8.042606898900559 5.710929924018637 0.198878943290522 -0.8848893759309147 1.5315426469299238
Ni 8.885888864655309 4.4149154657464225 6.574942315302123 -0.8733721193199346 -0.34621806683053924 -0.5034387111503266
Ni 0.836848606878559 4.173499361768696 12.005007314521652 -0.41915872085432326 1.0931577308561367 -0.16125393384889647
Ni 1.4068522771193133 1.286405706488082 6.523700226512323 -0.6130731210507183 0.07354203505320883 -0.9254858092960383
Ni 9.603980896203542 6.3171327064185565 12.738067089467796 -3.2227117194076498 1.4022873774748106 -1.4943187295814588
Ni 7.9016638597447875 1.2451283511201732 11.49586274216086 0.06245646666300856 -0.2814033843479992 -0.0788325940281868
Ni 4.515370180999419 5.21893852871849 8.593754552081494 0.5895020185989976 -1.426840898444459 0.14984106402626451
Ni 3.009044890566288 0.8989160238743146 11.038121734796684 -0.18287459744246568 -0.5251485920235923 0.27162805012879027
Ni 6.718318507301542 2.9971268455289657 6.7218874984636034 -0.05753357544009446 -0.17565853931000072 0.5551410246206245
Ni 4.792668867071809 6.259065495455343 3.3940105899700725 -1.6688680949876806 1.194803466124097 1.9354128170562925
Ni 4.723867158268975 0.17491359616515603 1.1190594725606349 0.5031425200661465 1.4838234864770898 1.743688225422365
Ni 5.779554559481039 0.6876445917785186 7.336175100945808 1.0898291807035358 0.5876433681237041 -1.4166667861249342
Ni 2.027636544490608 7.089328442035372 2.5027123896480976 1.4412123366747824 -0.6902383546788112 0.7249333349578354
Ni 6.153390327834188 8.359925994867329 3.0429695736532802 0.12231071981647967 -0.7932668292269112 0.5020983950723482
Ni 3.6202415081577506 7.017719249182177 7.540069088842597 -0.4752542782963105 1.5335704759932298 1.090011471917671
Ni 7.078327875445881 5.998419043211083 4.702510094960369 0.2771556648152388 0.08547066816999474 -1.0617460493140747
Ni 1.088312934816928 8.723522703742686 12.263527051723841 -0.5282835381081483 0.6203413725773574 -0.3114140717774766
Ni 2.2633000586004344 7.892232181301086 9.721229136965633 -2.2322338215109427 1.3985849889225592 -1.1929003355641132
Ni 3.725274440865424 8.477308187482805 12.734092572831793 -1.354600355811493 -1.5207404141080971 -1.5278322879578718
Ni 0.21324401075863234 6.205044364447064 10.12802348360021 0.09760910330474158 0.04813747893717516 -0.717084785447694
P 5.367028724982864 3.176915922165895 8.563595200544398 -0.1850222399130878 -0.8783492608195518 -0.0036941610221355734
P 8.294106091019946 6.106195236477771 7.754920521841829 -0.07902105588990907 0.9712478460225015 0.9201176030055895
P 3.6736846277438966 5.129016466046591 1.9607083266782448 -1.1181768786082935 -0.4781313427337895 -1.194475136250401
P 8.287876412359175 8.115069346710237 13.545318759097782 0.10365839482261503 0.5044008179532797 -1.0144845452239497
P -0.33086016037830535 4.624825359825637 0.368039139519754 0.434506149844671 -1.5709792556589912 0.453812820593083
P 5.667181799190719 7.771207599247722 8.124398267567782 -1.6454021506552565 0.12413028952372171 -0.6755115899915979
P 9.504067493234762 0.4510168078200219 9.859204133342674 -0.8382130549202984 -0.8170405346077413 1.7330865386471184
P 2.374902136994576 4.264513223793514 8.304524058795064 1.35471476990217 -0.3543399246067252 -3.306109821319332
