# total energy = -340861.9344619645 ev
CRYSTAL
PRIMVEC
9.37493458258881 0.00000000000000 0.00000000000000

0.00000000000000 9.37493458258881 0.00000000000000

0.00000000000000 0.00000000000000 13.72116439453111

PRIMCOORD
 96 1
Ni 0.801754723238289 0.6650681761193412 8.374588805843864 -0.72375088461396 3.6810077725830666 0.8879806132617287
Ni 8.285839112043387 2.609925555461754 12.750598299428871 1.1911463289874842 -0.2936271801077008 1.9284201877885432
Ni 6.830877379998164 1.46923975750902 0.5744978700108745 -0.393357186410187 -1.0622168183029062 0.12363843748896772
Ni 7.744286637360729 3.427326107128494 4.020424784967812 0.4480473788642155 -1.2358755535740586 1.116238266824684
Ni 8.774591954807395 1.3033690388412873 10.918081699426722 -0.5893325829006688 0.25213188907739154 -1.4455690709815814
Ni 4.957746688128478 1.3112814836813689 5.033074287998214 -1.5096844134042515 -1.4191628130739107 -0.47959841419761917
Ni 1.0260584720526398 9.305803876577007 11.691680681446746 -0.026389802847438422 0.8760062145086719 1.3554369927801753
Ni 9.14077690202729 4.952731098093591 7.956930779957533 -0.0874416758534365 0.7987682186611147 -1.622819380258734
Ni 4.900465837449686 2.2521030499448815 2.033435511838892 -0.06285215943953047 1.2651933287015695 -0.30083321093783677
Ni 6.279312475115024 1.3631154973316202 7.111130738771766 0.6260651624350121 -0.6297703792007412 0.25048509750258796
Ni 0.18459527563348557 5.348381464901613 0.3919341427148838 -0.7567013713980516 -0.7975662279332135 0.04910292817423802
Ni 0.330234885338071 6.407505331445922 4.401639627410007 1.8296965112633845 -0.12327179817816834 1.2410581262162625
Ni 0.9820712786999578 3.4121199631348773 4.778450125556146 -0.48153265510585463 0.3483549106678839 -0.19805104807258794
Ni 6.241887736013595 4.706648438606262 10.006763052489912 1.4453854942158655 1.390176710254206 -0.102384670316514
Ni 6.260009484681697 5.009580701778729 3.1788509643198504 0.6093972148610279 0.3845411307804539 -0.8788639956724412
Ni 4.8296757059479605 2.9039422557871615 7.714751843256235 0.4985075923972963 0.8364490210413401 0.6942004246503528
Ni 3.494975635524264 6.48610478350664 11.0962373324528 0.2726886301828207 0.6744677221081159 0.20007836291526188
Ni 9.026383949493313 2.099722862230795 6.488437267246227 0.13810783474973637 0.4277649744660955 -0.10535712268127662
Ni 8.186530429352645 8.196711608376733 4.587478956870837 -0.6227330127379855 -0.2902698335996936 0.1918518612404115
Ni 3.4916475337254145 3.420004283171025 5.569997419953345 -0.17906036590269808 -1.1164074454126967 0.31326989403929273
Ni 0.08036100228044646 1.586988936645782 3.656676383262058 -1.126673346115079 1.1004637775992467 -1.6704346681438522
Ni 5.080052085502538 9.286529010947612 2.0829276668149106 0.029062721693911237 -1.4945796965523293 -0.3571704520769849
Ni 8.165155578362851 6.863605276842625 12.296907712235841 0.015836967032256597 -0.09270189581111132 0.1556278459113707
Ni 5.086980162204931 0.2716321688743849 9.101070303833355 0.3538853535678099 1.34068246017882 -0.1471126093515079
P 4.243039170559197 0.20454701154422253 6.9840319373138975 -0.759973357281104 1.3916412106148743 -0.4838373919796312
P 7.294299149352336 6.080535735844582 0.7102581735869313 0.09266924280096299 0.1887307991129266 -0.6744114149488836
P 4.858897377235324 0.3773945565745014 -0.03390257615543561 -0.06484579283079156 -0.2191592908061129 -0.9531171978600615
P 0.9593933117945576 3.3672702757948874 0.5584236070691634 0.5856643900204623 -1.0488977325964968 -0.018121392191059113
P 8.503618843838527 0.4441572161528879 13.132018452939782 -0.411922093896568 -0.9805315853172727 -0.3454976437247469
P 9.299007048959638 4.623511518177536 3.2650338010146225 0.15304825810965256 -1.2414098531287265 -0.18415937769216026
P 7.555962950219068 0.46949016454965203 8.883040261283202 -0.053922203939752306 -0.39006488881216045 0.6735156426074916
P 7.581669021014689 3.9153570799248634 6.584814407873588 0.7919134005228103 -1.1712956128101442 0.7575297808366178
Ni 5.9345117538195655 8.247317505588533 7.235512684169614 -0.3817327147973813 -0.829050928805056 0.3713763112637217
Ni 0.496271540349014 1.1172484613411175 1.1046963613454002 -0.8213070231935791 0.7025387693127192 -0.3438575370181626
Ni 6.667247270710502 2.685009407030729 11.020194425069679 -0.395716430670983 -0.4088380556546055 -0.014181690817020738
Ni 2.8280990345119705 5.220507356348633 4.081621545847671 -0.33071431476798524 -0.21736414657890307 0.13908973904703142
Ni 6.681234673200315 8.309201449177847 13.625692198898765 -0.20032930258380338 0.22999829040314584 -0.7497673632823797
Ni 4.307032474443555 7.453119917167294 13.400870953692031 0.7104299991353378 1.2403752412166251 -0.9395636275453432
Ni 7.966463213504211 8.207530282956654 10.458752089044937 0.516432295196517 0.8966375176057784 -0.4501744525095473
Ni 0.3237071183450035 3.89382285504611 11.297910926528438 -0.21311848392867166 0.31765491048086586 -0.8304555224620667
Ni 5.114308096694076 5.895596400109637 7.963585108568304 0.016336275266178316 -0.45252469790927874 -0.44791213883793185
Ni 2.447036066011019 2.909295343469255 3.0657058155870747 0.43944318213497213 -0.9302246095326043 -0.9439339886988969
Ni 1.9714081317495167 8.808379219266701 6.777569626621774 1.3946553148508496 -0.18579408508210582 -1.7673356896379755
Ni 4.133305560543608 4.160661619836687 10.285247361096069 -0.4909477777721674 -0.7552003613724929 -1.2941166966041389
Ni 4.53414026621012 8.135455785408611 5.342815566203087 0.045814487230953355 -0.6352535138024994 -0.9491684976249589
Ni 8.15163692260527 3.383367038579746 1.5685353152912593 1.4641470910940848 -0.08010091921764916 0.7264569706912134
Ni 3.7222709259837212 4.173270906933737 1.2892203874755863 -0.0884919714948218 0.4086781330379736 -0.12499160908275249
Ni 3.5517971144054674 0.6930720433963651 11.511700686138818 -0.8725743060089877 -1.4051001643332577 1.2720517463842995
Ni 1.8184748228913963 5.2925068544195195 10.147569883385183 -0.6122082019472618 -0.4123635523093608 -1.9917114916480214
Ni 2.3647241398310213 8.99968413562536 1.5981722961833806 0.3676975768605539 -2.5642000064081576 1.254341216478414
Ni 0.44185754468455607 8.026519044837817 8.384949046119662 -2.017363130777855 -3.2946069628860544 0.5534548951674532
Ni 0.8391400876142109 3.185602792250925 8.858233246720003 1.6756930883293142 -0.8990296719870389 0.3191091264288891
Ni 7.2552619214920275 8.361419835148528 2.170729554722813 0.668805381616016 0.2581135605821232 0.6812829452577364
Ni 3.00334468782435 1.6534853480802603 8.42796499624316 -0.06394359273149633 0.09760421820873513 -0.5971417945324425
Ni 1.7695282891116961 4.994299558307955 6.334746463668819 -2.1588709923480756 1.8489098509670414 -0.638555581592539
Ni 0.2592253803656595 8.565962159225428 2.68246036230085 0.7497295680659088 0.5229870655958994 0.9150108779066434
P 1.735731649717745 2.9779104901334237 6.770845923494634 -0.3059553626557505 -1.8107317972354235 1.8545937887256962
P 6.135435353123632 7.17284687103094 3.7048794847244375 -0.10278961906441651 0.34969034164985585 0.5130705778131358
P 3.5704157346097354 0.9545277207139861 3.152780208566553 -1.5953679689160007 -0.32392505976029373 1.122226623197635
P 8.998221645820795 6.974988875355672 6.443774141105667 -0.054798178786802404 0.3988907146339066 1.0448541586547424
P 6.839052323008296 1.6653258905364487 2.7625373040615635 1.3749182414332384 -0.3659078319499828 1.0592682771975437
P 3.1147470362066856 6.546516862356743 5.97809207500867 1.1405593600685517 1.0544214906282035 0.3251699879109884
P 1.9749143573066148 8.135221412042494 13.26296004010849 1.2872009433209124 -0.4489092126438785 0.39218167804484716
P 2.3352774701121866 6.791390155274912 2.826395608887038 -0.5369491842029461 -1.1142335776898293 -3.1933592343874615
Ni 6.3136716105876545 3.844679447638873 0.3054363082160517 -1.1455167040738272 1.6949462801319712 -0.07309851975788702
Ni 7.621278119888322 4.659033145546102 12.176353552653401 -0.8799474585446071 1.0949634166063078 -0.835380984788142
Ni 5.696716536558104 7.3106490353726 11.226917358944922 0.9967542178237222 -0.8318976542252319 0.020051262223920306
Ni 5.018561889168301 5.320444159660567 5.315373257511277 -1.115274360249518 3.230393918543256 0.5596178294450556
Ni 7.494069631695111 6.977707606402619 8.465930669073584 0.24591161919929266 -0.4896722534938535 -0.5552492680637147
Ni 7.902394910142696 2.580591384958655 8.690038481753863 -0.4564649135039494 0.8613169879276134 -0.06245980909711824
Ni 3.187702777611326 4.426347267665973 8.024562495977479 -0.5347143813351565 -0.352871824701631 1.1518318476585776
Ni 8.692214404084885 6.409633441610256 2.362180720061929 -1.2232532368243578 0.2400011672521286 -0.7242676763493785
Ni 2.7305434645997777 6.321002809479768 0.7444888724549296 -2.2188232045319918 -0.54971342584715 0.08971710215117451
Ni 2.546007251054553 8.343457460369384 3.9904709312847015 -0.11350854814381742 2.6046524579962496 2.33660929700524
Ni 7.341980066955009 1.0004930252766884 5.024937782220125 -0.0447150835191875 1.1686574038563486 -2.093183677452595
Ni 4.562340069621217 2.521660545782406 13.11558044253386 0.42154419036736435 0.28434549769545864 -1.2602642668310682
Ni 1.6561009548461167 2.2700372999200904 12.450241330803289 -0.7000959641991813 -0.15502337955815235 -0.15092144157463686
Ni 9.378684618504488 7.785976971725473 0.39952315230972524 -0.10039412224904647 1.233770334305598 -0.2501325992591757
Ni 6.112194890139553 0.26436096956399696 11.245605353665562 0.3233645592711334 0.43739606979795637 1.0263172761928194
Ni 2.891173594801153 4.222639312772446 12.065362763901964 -0.2297352665497463 0.7222745571787497 2.0459494270559797
Ni 4.69822974729537 6.462254949770659 2.0025629145606065 0.2351122145909435 0.5941310327305768 0.5945521794283953
Ni 2.809396039895901 8.561668439158181 9.185029406030417 0.17348724269029478 1.0812951750905957 0.21731426717757413
Ni 2.8146272534276138 1.3924402929000748 0.47160327481855535 1.0820665060389818 1.498793991743993 0.17970288458270342
Ni 1.2344163945299114 6.110966773701104 12.212645799649758 0.06402818202550264 0.9587458569007489 0.27643421326818196
Ni 7.349151891958164 5.7987814500343715 5.530027386095893 0.43736727344254994 0.3613004150849584 -0.2313535188794596
Ni 2.1468225338855 6.571979184851602 8.146173210694371 0.9579328740811502 -0.48304934886069706 -0.7972438115967883
Ni 8.00925979015702 9.152223697228406 6.818526841097307 2.2415718110824168 -1.1362494198392883 1.0203487173142103
Ni 5.865727858331793 3.3175549973743266 5.529533327040121 1.0943165270509283 -0.5326060767429021 0.35139395460452383
P 8.29439842737395 5.462474419526963 9.77093750899729 -0.27914004223511923 -0.2641212002287838 2.4514489052556554
P 4.635070812594385 2.037810793837549 10.46926232827505 1.5703943296897986 1.1566498378725112 -1.221632156281167
P 4.562415069098374 3.842551337474538 3.6996923333855545 -0.6311852572703969 -0.4867350252424004 -1.2133966557452522
P 0.7152259514551296 0.145584297590182 4.842432179518931 0.20311046487336634 -1.9479870541768771 1.5946341760737697
P 4.710660910634171 7.551650480282531 9.206764254510567 0.6395351718969889 -1.4567903936186977 0.9816456443170578
P 1.4673928953840245 7.692368249298676 10.572170985869338 -0.14414247097959046 -3.0032204991834153 -1.5746147955290495
P 5.305538013575578 5.023005608189863 12.34884203768679 -0.8175393286210307 0.2522118503857076 -0.9229836116994751
P 1.9814393118192886 1.8440121448634137 10.353167825103071 -1.891680923385981 -0.3286211796843824 -0.1697943672197398
