# total energy = -340865.4102599184 ev
CRYSTAL
PRIMVEC
9.32167044107344 0.00000000000000 0.00000000000000
0.00000000000000 9.32167044107344 0.00000000000000
0.00000000000000 0.00000000000000 13.64320693940030
PRIMCOORD
 96 1
Ni 0.9511273086900934 1.3295311933654532 4.80401880887468 0.45502355307173253 0.9929227598927738 0.6310639012011842
Ni 8.072501239140484 6.2649547921377335 3.1097642141848447 -0.709326481658514 -0.07291365744059057 -0.03520842958033291
Ni 7.12869144164589 4.365804290971688 9.670509587851281 0.04846040949423267 -0.34112265458550284 -1.364157917592941
Ni 2.1696840169823792 5.312969889778867 0.35209160588358906 -0.1637417332677567 0.7313976025259403 1.178359461635461
Ni 6.376973304285927 7.11960281309097 1.093400234005316 0.23754344974025543 0.32774674749922905 0.024115662101281046
Ni 7.035241696760674 8.408957607408514 9.310628794254367 0.22426601590505893 -0.584086246900065 1.57244041358555
Ni 0.8768764759809958 5.715442327201721 9.641858501978044 -0.42348331637160613 -2.2089116018452346 0.6759031690030618
Ni 3.807939609435462 4.974611900767038 11.212464868637511 0.750453847826443 -0.5258566738342104 -2.0669082886958337
Ni 4.292032592116666 1.4183014597536745 13.271880050989397 0.5724268082842657 0.7067371236647828 0.7627010406249123
Ni 2.8867721491305143 0.14204734089365426 6.786335388236926 0.8926955022388948 -1.3163899061800428 -0.6969592183424126
Ni 9.3301530327244 0.38431009498551166 9.532535816884295 -1.9664887125254904 -2.8412021763646678 -1.4449198674333568
Ni 3.955837230617392 7.986630012219524 10.350896439644098 -0.059412280520046074 -0.35219228213610315 0.17139642159953708
Ni 1.5404526275318169 7.759060074874608 9.542959308628 0.6345811703258232 1.8120811121744662 0.38533765853982027
Ni 0.5995940708582375 8.308115777965295 11.922130154715612 0.12740304673772251 -0.23921235280224612 0.1889017774731521
Ni 0.858889380945533 8.514413663656539 5.759834917732082 -0.40269620442292586 -0.7840967326918691 0.543816857857057
Ni 0.030694396005789635 3.067416798121099 13.456813600490873 0.8474106622591664 -0.44988314652137357 1.4415465800857494
Ni 8.090892894667519 0.3518576319587393 5.787189359264818 -0.8431714273668381 0.39966435957513746 -0.06562509419897732
Ni 8.142795954968854 6.601206083658884 10.673462586979115 -0.19669710514785477 0.14754815422702977 -0.9213604742737551
Ni 3.8827739787061373 3.4938272849070686 1.7637392573680297 1.300574793524657 0.9863003694802499 -0.7814703508126154
Ni 9.037107683102798 2.5901845647900714 8.726754788211533 -0.2860383120168493 0.4670367754825247 0.5968582018537527
Ni 6.187081558345104 5.580324716018557 12.08215060813926 -1.076335002871843 0.27543893923444823 -0.9443358521230059
Ni 2.9693062180795122 0.5008319060617905 9.164305603188257 -0.09772403161605105 -1.059685053019988 -1.3507660696670671
Ni 1.4863682963773004 1.4418759639745935 10.528694250521172 0.5248490585053025 0.4735313820679329 2.764691802711755
Ni 0.8966029946968158 4.660462289557394 7.52087275504348 -0.5103552357645017 -0.9806308298992983 0.5308692965574535
P 6.226586797130496 7.884436540580958 7.481279892557149 -0.4885630795900748 0.48387184476199246 -1.867993349961054
P 1.0648423648352063 8.993081434215728 7.750897088181741 -0.31431504747435546 0.008540176260527228 2.3441238602147303
P 3.511044409974699 0.8049886866961776 11.316384713617998 0.47437264702230564 -0.48235335123493694 -0.14881262276175017
P 4.553654591114021 8.46634180985374 1.1139013835241247 0.041450039614670545 -0.8408425221233455 -1.2806328031850913
P 2.60188326103256 6.995391556173711 5.77848478352678 1.3875187038060686 0.46437774059312287 0.566576777261392
P 9.063264290000346 4.9482036087710455 1.274777566282482 -0.4519091758124669 -1.1156559119586527 -0.9402480552068774
P 3.148198393051302 2.1711009108699155 5.849238125534539 1.366349268817305 0.24569230409963497 -1.3303900771138766
P 2.451850977349013 2.304708411462415 1.0035672972014424 -1.286216725030772 -1.078082581690569 -1.3103359866764788
Ni 4.389733018664491 5.772201977735994 1.065460391576941 0.41600551993732227 0.22224101505523014 0.13334383770218972
Ni 0.8549323318977751 2.8676813683300235 2.332592323868914 0.07468514751871654 -0.20680771121929545 -0.14596152646620023
Ni 7.15498787359813 1.1023434445033586 3.1744463523179145 1.546049582296847 1.8858139230822426 0.6509405855204531
Ni 6.580866199036485 8.296622158469686 3.417118327736502 -0.13890050585436078 -1.5048257997603696 -0.11363144687492689
Ni 6.778662721402511 0.16839038119745697 0.992664671603662 -0.5521932548462103 -0.14101112443946037 -0.5594838749703526
Ni 3.6281898407949003 4.2871853235540405 4.1315451230103495 0.6081409738564236 0.808899907778478 0.7488829037948973
Ni 7.533671408382872 1.540014509027118 10.601480648824138 0.21753872448355438 0.5439613538547212 -0.5077787332865772
Ni 3.6946253851137967 2.8167384400709 9.046823660069768 2.635664590107048 0.057644132876029756 -1.6366678561060524
Ni 2.1684069481495336 3.506495434862082 10.319216743086251 -2.0687448276839406 2.374261560140375 0.8911664671888782
Ni 5.168474678261088 0.9756899099641628 9.73459141041621 0.943204309621724 -0.8920496411247797 -0.13195364222288242
Ni 5.710893352089105 5.950078090643696 6.592178978128025 -0.3067086958820073 -0.8461683052116331 0.3401096399399562
Ni 7.834994401242185 3.6555862298440425 2.47097531616263 0.598244283568002 -0.7415025521704262 0.3828894541096438
Ni 7.521982033810695 6.920286858463967 5.566878206592431 0.3717912873139533 1.7467290691312174 -0.5884517229576124
Ni 5.622868819325902 2.9461698323632923 10.983313976007553 -0.809628044193754 0.8718299716437953 0.8837791735858715
Ni 1.852169282789836 2.082917909711397 7.478169251173787 -0.9980479969344811 0.852440768483906 1.3095494862194414
Ni 7.226466441556218 4.294651981474545 4.985200386075279 0.6465002903609124 2.111853228837641 -2.8174526393535544
Ni 3.514773078099795 4.932999964490968 6.6064635057152685 -0.6957477145328147 0.9436627373153813 -0.7658984645162874
Ni 0.6522745584636552 6.7716901120085815 1.5954094670276058 0.09836937850953381 1.6545660765427117 0.07534720658274766
Ni 9.19813953775538 6.986274962607852 7.7935045788472115 -0.7968501757027953 0.8384804496490721 1.0209033042660998
Ni 7.422706244980017 8.90394762268531 12.047579329450402 1.246975263031646 -0.30813488680557255 -0.032249604062325105
Ni 8.936620077131463 8.617921490809202 3.789318640818733 -0.853238581794853 0.0664445047764791 -1.3513669364758598
Ni 5.182867337223958 8.594607993357041 12.536579239384231 -0.2769093531323876 2.1348437761955426 0.8143779001739136
Ni 0.5337979931227949 6.1139250897307225 5.755073408536334 0.20842210689426688 -0.7979493223042451 -1.4513373409239263
Ni 4.199999741118986 7.620670557411672 3.0724094847406027 -0.35753194918146164 -2.223214648731468 -1.6295885806617676
P 2.7906657282061667 4.871402367064382 8.552284813636106 0.698100016815075 0.17890661393365317 1.8338946085051322
P 5.981408224564813 2.2029623799988602 1.5423095042581145 0.8986830872808974 0.35784819487029984 -1.4154506543296461
P 9.291002017410893 3.770000411262611 10.479865477088977 0.04883399078356751 0.6068528511726194 -0.3768815573526671
P 8.981457311335742 2.927386666683122 4.216214786627996 -0.8205680881450256 1.3686504061466558 -0.16938736158930828
P 1.5601399952323232 9.566177725042971 3.07363714872079 -0.4502479860599601 -0.8275653453984652 -1.16544095380158
P 8.36430680661049 8.033266328794161 0.4642005382338169 0.2024476344783868 0.7857880043513628 0.37797273353431676
P 2.817269775278726 5.387170385468276 2.57033966086128 -0.6513496480334138 1.6855008184483555 -0.9764337610988152
P 6.042325340058568 2.5709166722536385 8.45361772987685 -0.894229165274602 0.27021780004482493 1.4061080367724816
Ni 5.069310749474162 3.4333296445773875 5.88357822679964 -0.3042517497010825 -1.5589256669285667 -0.4025216265182745
Ni 4.998018614922327 7.910723650862884 5.148577572978544 0.569278235352955 -0.16334629760155095 2.4680841998194913
Ni 5.742941254624304 3.283260074212589 3.3353821937662738 -1.037850987864032 0.09075119984264371 1.1948584877317487
Ni 7.17693108551432 3.111666767095675 6.737656693696768 1.0546829718197062 -1.0027669996767052 2.3978347194746252
Ni 5.163403689610957 0.6489401969927883 6.929302777990449 0.99742578996945 0.05628530485529016 -0.31810485353409085
Ni 9.37890536846003 0.6378520701557842 1.3121500069003187 0.5247834953746898 -0.6899735310531988 0.025691234118517044
Ni 3.4576871691045765 7.057772173906566 7.999025969401405 -0.9449040659216501 1.1990416725751607 -1.0465677989117395
Ni 1.889278852304853 1.0457142973534643 12.964224847486639 -0.02363820824423026 -0.2953577896455623 0.2166699487253559
Ni 1.7027615510172422 3.7979281355195798 5.426776298293046 -0.9060657528982137 -1.1313640667225289 0.1957591667146177
Ni 4.6621495118839995 0.7051862234928289 2.6271086330658657 1.4496836073705872 -0.3084663020030623 -1.340720255395291
Ni 3.1884400437914002 2.076280880448726 3.5137532873675816 -2.0352078722687597 0.9064529610343034 0.7877109324056886
Ni 2.5786629802835255 8.008312217366957 0.10053514648993009 -0.5226296822564807 0.5371849543628361 0.4565379328337299
Ni 7.747902035510258 3.9369981349153442 11.854923708261852 0.34695005990055733 0.03665518932918848 0.7130039305101011
Ni 0.7799469515680335 4.959501473190087 12.204762266430851 -1.1085990051118713 -0.10374298411662133 -1.1032778500092741
Ni 4.026448883236396 6.743473415971918 12.548898758869548 -0.5737247011600828 -0.9414518457069915 0.15709440315456816
Ni 3.257839879269748 9.256138970441246 4.409293611648745 -0.8287758207667985 0.03384548779453526 1.0144228387480787
Ni 7.393137906748006 0.8734386439696573 8.0202271763607 0.10654317256957781 0.7566952007504645 0.05895205305417588
Ni 8.16108507212245 6.297729784957326 12.928397939806654 1.1871657470731813 -0.09016910208692858 1.5788535162007453
Ni 2.7537892004489684 3.5509038722319746 12.703885510324318 0.3125317303216875 -1.8697784668859345 0.7226805343679167
Ni 1.5554139083837641 7.373590364102191 3.9159274313404273 1.3609036723217016 -1.0371717024088203 -1.7236770724077606
Ni 0.8401593487861448 4.977110108410852 3.611479814592283 -0.22941027911015976 0.1800291575738706 -0.9959196377375689
Ni 7.162808754990518 1.9657258705396323 13.00411786775704 -0.8213584452568048 -0.11885258606455015 0.9717733795086683
Ni 4.917488705090569 5.714444908478258 9.00912775749208 0.6953072845612864 -0.7560981905964139 0.9737176477192326
Ni 6.688214554357996 4.7630379496787825 0.682605409327248 0.12268892909150483 -1.0334654572018267 -0.38519933318974303
P 4.958532019477562 4.067939637798401 12.931495530851578 -0.6378986647348304 -0.37213504380661716 0.6014437643419062
P 5.535282405067399 1.028059053781135 4.639700133269828 -0.0024597743944022154 -0.3765252024545128 0.8335053650319839
P 9.173278643031301 1.1742228442848952 12.205430630192273 -0.7772164606322679 -0.42516918871446135 -0.49199653075165584
P 9.187606050301982 2.2281681765245085 6.642536505491509 -0.7786897027436848 -0.5673599352843197 -0.7872213943637797
P 2.087392311461512 6.394423471111375 11.43025171298921 0.5508686224975158 1.991921036555666 0.29525777373258827
P 5.707798557545275 5.937242150623052 4.000351935028849 0.733882059510691 0.24733575324032883 0.664200792964469
P 8.0687818926857 5.256517854364915 6.844237875551541 -0.27208802048434433 -0.231578233295756 0.22095932012932912
P 5.976747389408444 7.359822257050274 10.955699459873093 0.3944074820515724 -0.0904768631353345 -0.8162314084428846
