# total energy = -340898.55177604314 ev
CRYSTAL
PRIMVEC
8.98368904999514 0.00000000000000 0.00000000000000

0.00000000000000 8.98368904999514 0.00000000000000

0.00000000000000 0.00000000000000 13.14853700987612

PRIMCOORD
 96 1
Ni 6.481372311523332 1.8722187681452684 11.243300674372056 -0.5924042798474571 0.006172961579931304 0.8863998990381702
Ni 4.604580845644904 0.45302498023361354 6.108481837733302 -0.24140524668850685 -0.844976598896377 -1.0332088611063304
Ni 2.7269538966835998 1.548590353333198 4.662773589920572 0.0007895857808308982 -0.31842778409114836 0.8018784821553223
Ni 3.372270249470094 4.248503345936619 4.761637291323078 0.0678023043559542 -0.08192177447647181 0.17947379929103285
Ni 5.088936441486364 4.566876302646729 2.61605923888768 -0.00549187635250667 0.400667089808039 -0.11188978159347182
Ni 7.183636269281337 6.105827157615131 2.601016949920288 0.4492367711866263 -0.2999338390520189 -0.36271015094829145
Ni 5.019717117254547 4.568852714240629 11.344728320633196 -0.108868992489277 -0.06433979972865048 0.045457103891534616
Ni 5.49682287602202 7.748755229800804 12.275698136192783 -0.5617824411965421 0.5731019799744195 1.0330211705755563
Ni 1.7928838100283078 6.504208849121941 0.39166818066989273 0.7636891155697945 0.5176250299530375 -0.4252388656101322
Ni 2.781305215515851 1.5095562243536718 0.3726362353895415 -0.3044270989366822 0.2502454706879561 0.0967063889848141
Ni 0.47572855923408724 0.07025604194970901 4.854255532088859 -0.04739391590293128 0.110684448431461 -0.4615063325825987
Ni 8.515827520460606 2.277850296726065 1.4104301992305208 0.07125863833567082 0.9194776554287455 0.016987278586615903
Ni 6.780331516167905 0.6187192429460372 4.815415450793099 -0.18361584648386442 0.13023254576671767 -0.41784720113175133
Ni 0.6791713850210956 7.588252640997994 2.488728921950669 0.5671838147177716 -1.1159618732348457 0.24495671148519105
Ni 7.544520042638424 3.941440853757056 3.8831313215235674 0.7270120718637351 -0.43501779937376694 -0.409978597016952
Ni 7.740517186929867 3.6623625530093054 12.563965852483264 -0.7379924821346387 0.9484701860063535 -0.11358053903233342
Ni 8.000541083174609 8.707045342170435 6.894159348442954 -1.1169468628559345 0.6807936643261436 0.1605797906000073
Ni 6.836192094762771 0.5821241855471652 0.29508364118271596 -0.4631811491818604 0.2324853184910577 -0.06785244086759927
Ni 1.931349409559133 6.280712632608097 9.239963167611833 0.33856774937413303 0.445357233626562 -0.9379584878417523
Ni 0.2558967894891158 4.900773074058016 1.318969057616077 -0.8544148614911414 -1.0130033326927328 0.2354557139732913
Ni 6.368276649906933 1.843120599269622 7.007920701418934 0.26601841725149666 1.0082789306338698 0.4013620589925346
Ni 3.556004658190293 4.123387508353683 0.3231630597185979 -0.9506219422420338 0.6563301319671406 0.3247699242590923
Ni 5.932118545889444 5.584279089052098 4.751763318673735 -0.5137112967209282 0.2791176736376161 0.6169588292583698
Ni 5.414334643043882 2.789785817991495 9.280737437162898 -0.14483923993629894 0.09719798390925197 -0.43060630056963256
P 0.17954890798566306 5.464796024511776 12.291410608364288 0.7752575371336843 -0.12251563673843417 1.261789702336659
P 3.8655646159294204 6.14692753507919 12.592748693872792 -0.20453665579693164 -0.22761770598611122 -0.25588389992065613
P 2.3265329077594488 8.541808349231328 1.2415772714434825 0.04785517181006597 -0.6464776646530931 0.8441638731870946
P 6.310790023591631 7.6294608227308105 5.800082572621138 -0.704062147935781 0.08961194403187792 0.1637687298509502
P 4.685155552852584 1.1423659012742313 12.502917193454408 1.0726953492367268 -1.3826127818640188 0.06289278286947877
P 3.981588960180417 6.153413758582807 8.166464429958143 -0.026247363732303183 -0.6558215677618383 0.022417448463251718
P 4.690644586870188 1.0599854725648516 3.6964610432175196 0.4633397862469117 -0.7425592755697147 0.7293887996260277
P 0.17111052884861613 5.601240294003385 3.4677821364831263 0.6782672983598641 -0.2266162613047904 0.492230501139333
Ni 1.270994361280872 1.0274914692233221 2.6601332174316514 0.7436553368473708 0.33559349723715753 -0.6918404090586086
Ni 1.810770334953103 6.367890351277216 4.736694977008059 -0.07235829915775281 0.7575878877680631 -0.1029377146065066
Ni 5.9863620604529375 5.583901774111443 9.20563289822579 -0.8378651846625764 0.6471430661512337 -0.001736523075132493
Ni 8.607101801342536 2.350690047650345 10.127331546672174 0.5058488632537159 0.866095126042547 -0.017243360461479982
Ni 2.2640243992578277 5.308389997921776 6.999741950895813 -0.0962209647079633 -0.7665024166488735 -0.4181865867490411
Ni 0.4221273784386115 9.161925454195597 9.084718732017704 1.2543108774611107 -0.07543076743548945 -0.16373761950269863
Ni 1.441828192506342 1.119897694927213 11.285507842328698 -0.0621384212019575 -0.3557146934670648 -0.13545548472855382
Ni 4.128939428194729 6.831808054499938 1.593734289244594 -0.15528923162502933 0.3950775115354035 -0.2574607574894727
Ni 5.539315725290871 7.816025093505912 7.86400877353018 0.13776973468402726 -0.2934104361112043 0.6303311368002177
Ni 5.289802745250053 2.7597533454532774 4.9784307774268814 -0.11802546217756449 0.22465193848956794 -0.13039041150082062
Ni 0.9575085314211339 7.546765964904219 7.007920701418934 -0.40131217959120563 -1.1131783969524378 -0.11375126028224282
Ni 4.7972899597392225 4.4293270394003486 6.849743091345675 0.9651283633883248 0.6144697442879289 0.46634412029087424
Ni 8.03459824841313 7.299993010027672 9.098025372258089 -0.1830700012827234 -1.059007310226673 0.00865124791709478
Ni 4.497764782683669 0.23867146407937054 10.403332933915785 0.3346411606262172 0.3129251091053643 0.036761118779433465
Ni 8.117742290692881 7.080314861365681 4.820319646652689 0.3834144733751784 -0.024980581204737624 -0.3865890144484181
Ni 7.259485556041783 5.953005622961341 7.1343041375286855 -0.993543167085592 0.9901027739454755 -1.148727497701641
Ni 2.4174029226335354 5.214761990505293 2.4634703817806267 -0.7359361138262422 -0.6411742501623087 -0.09011999401654802
Ni 2.3829504750762323 5.040235863074854 11.349554358397937 -0.24709972597012284 -0.14130474442047922 0.03560746479096448
Ni 1.1245871806181937 3.317101414933093 3.6815373389457617 -0.517387974241567 0.6486918986955924 -0.004138190538089647
Ni 3.6842468195672176 2.7584417268500525 2.7573663792691896 -0.41500587502821434 -0.21069804741263715 -0.7938178166343747
Ni 1.0904222111109125 3.3610226707629898 8.123639184193955 -0.05060445242042897 0.06119559767271396 -0.13559226741673422
Ni 3.615943831619844 2.4524393099799453 7.212866498386212 -0.45826674259937855 0.2837392315700275 -1.1209233310051792
Ni 3.998702887845779 6.757998065156834 5.959521492638868 0.6390060388663964 0.8394595257328898 -0.3236862042766103
Ni 0.8210831276765573 7.16029664509519 11.153601234182903 -0.6139578376485169 0.8386704541726911 0.6233133107214878
P 0.21646468308409078 5.663623030858122 8.011206518830418 0.482423285240924 -0.4218612073871508 -0.07558914739022467
P 8.382850954947385 1.762608777885384 7.988537976217291 0.4167421409930307 -0.09819968570088894 -0.7051990897537017
P 1.8965376144393022 3.1585662540351187 10.231402194255699 -1.5031682095522887 0.46165417101437267 0.28349677654191824
P 3.836134050558436 6.108459378510645 3.7887639564971836 1.029715760351407 0.7057282227842943 -0.3291066039612332
P 6.90513292463363 3.9692004529622893 10.472888248118565 0.12445836228710179 0.2113498220640231 -0.33577913088540234
P 6.178415365245644 7.752222933779192 10.26444510099899 0.496445567661945 -0.8823336993885965 -1.0907023273371086
P 2.4281833495093537 8.47352332866208 5.643470819551592 0.22958845655923685 0.11772927109338434 -0.19054214129005248
P 6.942505071136467 4.106183743797689 1.5649523462239714 0.5078388971005512 -0.5984129479353822 -0.0672672577880906
Ni 5.454931933920402 2.872983762405624 0.3761398741241825 0.4772219435456426 -0.05402273407335857 0.08454738502477696
Ni 1.4261965735364055 1.1398504683365402 6.902443208128113 -0.030421549714650834 0.2780622357899082 0.2525440369141457
Ni 6.941633653297338 0.5839757238630869 9.131014376866998 -1.585753071534056 0.3111230228996191 -0.4315149284268311
Ni 2.7634725927254347 1.4714563990367167 9.194022378480533 -0.40129906696508305 -0.6227672084100306 -0.36283536367224606
Ni 6.312919157899605 2.1836113984532854 2.666641900157927 0.26250449056096725 -0.45505492053030017 -0.13630009211703623
Ni 3.988802862498152 6.796079923095663 10.409564919018914 0.715617199763232 0.1059811294185207 -0.10267546208405542
Ni 8.062339880240238 7.162030497084384 0.33066623682416746 0.06863379911831406 -0.48852554148391986 0.11470051156938955
Ni 7.6318594677106795 3.9560932506191064 8.350254537550533 -0.066696215775969 -1.101224309914355 -0.6296127705769543
Ni 2.9442423840547844 8.44026571175018 12.224549502511556 0.5130201841911745 -0.9107636725945153 0.22715027943138946
Ni 0.0824487047462597 4.894754002385684 10.181333399999867 -0.027754287295132844 -0.8301271925883703 -0.23248814670453508
Ni 8.514758461462087 2.3389483660447663 5.810286246659101 0.27442309637542417 0.6294477057539998 -0.2854469582897536
Ni 3.628494045241109 2.578732010830159 11.31923350944079 0.43326379279713767 0.5068220258002626 0.1361864493573074
Ni 1.1487353368200275 3.2009423153461487 12.55453836918036 0.08028860974842301 0.7471769768473842 0.09427001162917958
Ni 3.0413919975840353 8.323828117802277 7.781224977181864 0.6759227093870875 -0.0653597563527326 1.2639815677816553
Ni 5.5594571561705255 7.704618365433392 3.6111142003794776 -0.5220668677744751 0.7880104659239783 -0.08198348095234267
Ni 3.111581560234676 8.346682622779014 3.3982393994450337 -0.30975725290034395 -0.33024868798547635 0.4849969595053712
Ni 3.479050377675076 4.109354986036992 9.040105732129941 -0.14178528360132356 0.8789017908889122 0.13233905058675918
Ni 7.258335643841696 6.159450797633266 11.414599860690998 -0.2903911896689063 -0.709918606716558 -0.7091866136465398
Ni 0.32795406109599284 9.087091324299289 0.3819020122893075 1.2314301162081955 -0.2098303000957031 0.047139890910596234
Ni 4.639446542899113 0.4245960961931739 1.6003876093647866 0.21377951455143826 -0.473531639178249 -0.40059561314015524
Ni 5.9343015823317975 5.622504686015937 0.2970582560388034 -0.08324357861168889 -0.2773544110896062 0.4769882302682818
Ni 7.975296916907067 8.797286498810099 11.082165633859198 0.40918464036074687 -0.22235362937369446 1.52580085935014
Ni 0.034880969525617 4.877649058409386 5.817793915609202 0.43305733321328643 -0.5786573625750098 -0.25432066919859425
Ni 7.71184125144019 8.841890515008798 2.542716401375862 -0.18479264040078497 0.3895774076527807 0.18997032794698251
P 8.417402223084384 1.7046100812934808 3.6383186076006053 -0.7366511376153958 -0.04656782045721013 0.10435490666900737
P 1.8989542267972985 3.0969561144398163 1.5335534545792437 -0.665478374125312 0.8545411026563605 0.3751314074307798
P 4.769117110837083 0.9193278529026101 8.312360438713126 0.22742795857280834 0.2804060534317364 -0.6775995828688782
P 8.516097031132501 1.6215019737699834 12.279865669549192 -0.5653421335233425 -0.20074093619992525 0.30781812689610216
P 6.216254663579766 7.669698766044803 1.3801884067371313 -0.14427256879955153 0.32571763288434225 -0.05254949196194175
P 1.7895778124530566 3.2577641486707747 5.863550539114707 -0.22125062611750282 -0.2801098623475563 0.9264844257638818
P 6.849595758845038 4.040683666838029 6.00953907986704 -0.02001423833839779 -0.6683641803135393 0.6320946564585437
P 2.2514382508803097 8.349090251447945 10.02842831703779 0.6644291069251912 0.632053261697647 0.1342277829690398
