# total energy = -340885.70522321574 ev
CRYSTAL
PRIMVEC
9.09801650996996 0.00000000000000 0.00000000000000

0.00000000000000 9.09801650996996 0.00000000000000

0.00000000000000 0.00000000000000 13.31586680394616

PRIMCOORD
 96 1
Ni 6.549297950021349 2.389430193662666 11.739693453650254 0.9567038867700556 0.08632967373618035 0.04701030731126742
Ni 5.002835350420414 0.391625927427915 6.180586286223755 -0.9249772450907361 0.7237246593617148 0.7992410445324751
Ni 2.93315493651145 1.506722464789036 5.055874965330305 0.695326567834996 -0.16820002614942645 0.40140602485659255
Ni 3.9789082139116445 5.026508388602776 5.361460043644299 -0.8000198316800287 -1.411523294250782 0.1472195672430174
Ni 3.5895950022046965 2.974414440030672 3.438915477312824 -0.5364655596983083 0.5892703622041658 -1.5067109325982244
Ni 4.999532770535634 4.886817447691172 3.049586798978316 0.690405733494611 -1.6131466330556608 -0.9741400799686321
Ni 4.946646002298095 3.0452243002048944 1.0615810962033672 0.2735638336989224 0.49570457573086235 -0.5635526457230875
Ni 5.836805006448956 8.323329229120912 12.865656661574407 0.3127407610087001 0.21042319648469565 -0.6616186340595896
Ni 2.5945631651837 5.271527063195093 11.442070959124576 -0.4042530073870845 1.112265655330181 1.9928607747611162
Ni 0.9770086669059852 7.625183857114081 11.197165099933283 -0.4693379128118756 -0.3606455551097789 0.4769764031937399
Ni 0.6987094490119461 0.4780225089757059 4.732592425881671 -1.5282994574022777 -0.3196356883563205 0.9463698518338993
Ni 8.527716163312602 2.925185074310163 1.5531896727877288 0.19441627953347806 -0.6291188616596713 -0.24394961037691532
Ni 1.3176292958489038 1.4861518501348001 2.758021763646267 1.5515553426064246 0.6624177329221173 -1.1120028885870978
Ni 1.9841135714396627 7.03830722337408 0.34166144199751575 0.3868535809637144 -0.5613821204343299 -0.6050728764540612
Ni 7.855336373216781 4.316080694710398 3.8323464511571035 0.8572402467550784 -1.694709738641133 0.5194078328850732
Ni 7.512095515604947 4.334995470414139 12.975419678158234 1.282078277382366 -0.19476106446740651 -0.16775471108189172
Ni 7.76898710135329 8.959726365100192 7.67610454404831 -1.1150519598260666 -0.5886715522779024 -1.0596788823724008
Ni 6.936072815205284 1.1727160936318892 0.7579257071278351 1.0215064850677376 0.18037548516969582 -1.5117446383673898
Ni 2.2832836385229176 7.181892115224213 8.893134345241627 -1.543773898888793 -1.8355396003077227 -0.4687347320102379
Ni 0.29052240267420987 5.0716163529794684 1.7338189572462885 0.002452575305550615 1.4000232640309824 -0.2599418720401136
Ni 6.328097881870779 2.1691490251494594 7.175427974705932 1.2667174786555797 -0.020473437363003447 0.2549516179143738
Ni 3.4806371600555903 4.959155774588929 0.6758352166529544 0.08083316939798338 -0.7470918733327455 0.4321553902243073
Ni 6.43462655369141 5.889855538978302 5.137447778682751 -0.4584446629381395 -0.8024412966373278 -0.4386988477697799
Ni 5.29655570579297 3.2669429552795206 9.81223595856456 0.07348135701860249 0.013672612391086131 -0.8305516817202987
P 0.5923281650539409 5.74207646165466 12.435062111109332 -1.1336855157668542 0.2809035618934453 0.553548226212208
P 4.118762919115056 6.570769268280523 12.784284004578616 -0.5531211659771184 1.7264204394808524 -1.710347959399022
P 2.330511440676893 8.772798524018398 1.5187946225000954 1.8811144607240444 0.9828085542769075 0.6896966232427284
P 6.465487024680869 7.9116985836471185 5.965095223245911 0.6700341118167944 0.9992060217983243 0.9839961468271053
P 5.12800585745844 1.3761568341375812 12.834431360134866 -1.7005273737641744 -0.3932702831233356 1.0863869877912067
P 4.1885538014735895 6.079248942453414 8.043129435640289 -0.1896419980732863 0.06617145362075055 -0.21999181400973722
P 4.929569025869082 1.311488134906131 3.8439709864705565 -0.1668892777578029 -0.7645974863166768 0.4936057842203048
P 0.37219256480011853 6.139723456211357 3.740560204805611 -0.7601911297188649 -0.2056229468825749 -0.30992257483361463
Ni 0.45085947177460606 7.758788225180182 2.3401034791686937 -0.3651490994070873 -0.1446428076547767 0.42366920713016715
Ni 2.096546855781568 6.5662020641423435 5.116914465894982 -0.05298863638188938 1.1888215375090494 0.36475803461625567
Ni 6.053310498234385 5.754850076415627 9.266977290182513 0.5215593320104372 -0.17539345857407213 0.7007150858404191
Ni 8.781787364035377 2.82753606631197 10.784479994380574 -0.26552219434136853 0.12108996003550114 -0.192646589227565
Ni 2.255471002964316 5.319510000694624 7.171232879430802 -0.024144972677319708 -0.8905249769501373 0.26695969811884346
Ni 0.7997538366602764 0.9113300878750568 9.37021520953944 0.6168940374587053 -1.4073007715290022 0.8591078960914367
Ni 1.5325244387648933 1.1028160350788176 11.951762752730948 0.03615793797779579 1.1099264656740433 -1.2342537016999195
Ni 4.285684222547726 7.293179049523467 1.7993465092081058 -0.028732077827369872 0.4017045299336178 -1.0075744483676776
Ni 5.432780302527989 7.898888576821305 8.590864584035108 -0.0648661045457657 1.8147339764162813 -1.3651745317829134
Ni 6.857111132505542 1.1937689031453353 4.927057063593082 1.2709821674692046 -0.4539799422985666 0.1627163773270359
Ni 0.6178544691385891 7.579357149456678 6.882092465419121 1.2996062589638004 1.2845578492711103 -0.4775045077830679
Ni 5.442342317566291 4.350407509876446 7.4526636345048445 -0.6078555814055209 0.7889684589618735 -0.8923190927360826
Ni 8.78888381668036 7.430568192333559 9.103871694748955 -0.16279248198060997 1.1292287655470812 2.365487927712804
Ni 4.979544428918935 0.5253167266480254 10.758607055878267 0.878347461047339 -1.5326081120799606 -0.20312074928601145
Ni 8.213588957577615 7.687905580876267 4.749729449217681 0.39858166803392003 0.223232432434222 -0.18030272295023142
Ni 7.651395241819456 6.4300502515370175 7.190395121175495 -2.553791923700957 0.9573500049944867 0.13423395361662688
Ni 2.485578028985959 6.155699572678777 2.8001273826731587 -0.44816462116837014 -0.2482749772251466 -1.257440424229028
Ni 3.270427495488531 4.511469690868899 9.447061603470004 0.14671563102340537 -0.2287883292554447 -1.193275459515345
Ni 1.6672842548898568 4.373898587734578 4.059621264732102 -0.7874422521253341 -1.2569776256599965 1.0208953338462998
Ni 0.5606834450670486 0.35093323031867096 0.7014907125678063 -1.43453338199271 1.14716221009705 -0.8390751458102774
Ni 1.0355998913081432 3.1982347368501576 8.805756087744614 0.5914902526736201 1.23149953599355 -0.7226743637203297
Ni 5.480399319379059 3.2349543302798334 4.982291120013191 0.2680896979582286 -0.13879406218348356 0.7323671655280612
Ni 4.409662889462044 7.23387817985681 5.8811123453990355 -0.8397431184115796 0.6985479029857711 1.2703594462835412
Ni 8.579474777539913 7.533139227102182 13.160776291840296 -1.0129979333760941 -0.2099737676521029 0.7763803378842178
P 0.33044358800871754 5.735789732452503 8.141294301157675 1.9247373396203171 -1.1177847853761975 -0.5392274387141617
P 8.481734789379605 1.7824833361600625 8.08257115552045 -0.021919425780910638 2.029276851496305 -1.0102026300191442
P 1.8289287089198476 3.2706640439100303 10.900234964441305 0.6223008102965735 -0.042872116773177774 -0.37190030208799174
P 4.381741077708904 6.614921940955007 3.8373530894783006 -0.7808512291713778 1.555726957485611 1.0776863746934149
P 7.055984668873054 4.279233729053762 10.608391529813181 0.7209332126595067 -0.11200779522857483 -0.41958372420688383
P 7.0101397651832285 8.27779365798228 10.144599227993906 -0.8316621411756581 -1.0330954754569175 0.39093495012193963
P 2.300879201875988 8.741364878007614 5.899461224494419 0.3287476779599177 -1.3928051490159885 0.9506669365473562
P 6.578457091979254 4.482447019154166 1.6338299394784939 1.4491904697842526 -0.9296327415848764 0.0639623617845737
Ni 2.994211723306929 1.8486623060826242 0.679182376817171 -1.4302653507449754 -0.31700082183663464 0.9969071984618186
Ni 1.3807149402595502 1.6182095554449434 7.076663549920207 0.14866966942598267 -0.8818053376889522 -0.4126057502271539
Ni 6.8481859786020465 1.3462152627854844 9.445689622625308 0.3921801353829504 -0.15196813767159634 0.4365182951786934
Ni 3.351973014792342 1.8998113532237628 9.976420578720806 -2.493836626193247 0.08092521489115741 -0.5195248180789117
Ni 6.464731889335314 2.4841951305218086 2.7445203075883784 -0.0026664910885696013 0.38171934506094257 1.0551887078115312
Ni 4.013935576325978 6.910725742040002 10.264868633698791 0.9627848028568129 0.23882771576931772 2.07027232007206
Ni 7.460273215264156 6.2636657310608275 11.399779740566968 0.16967892468779808 1.1835926850099423 -0.293985591888384
Ni 7.780978286720067 4.286284691617686 8.140748420184982 0.7608573025479541 -1.5944418575573056 1.453002644441491
Ni 3.4649976701879956 9.027479291827344 12.600019152841936 -0.11545101658216891 -1.6807226803334214 -0.004761425944385348
Ni 0.34815742557253765 5.150741799971016 10.233935378579638 -0.187989807181844 0.03080284431346953 0.40900234914661177
Ni 0.04806390984381377 2.907725981200265 5.7728541406965945 -0.9328070255478 0.0076379761612320055 -0.846280405309465
Ni 3.7850931745577356 3.032268725119697 12.064227880129591 -0.007729507433773785 0.30299705135837496 -0.1548922532969268
Ni 1.315109145358314 3.7375378438201454 13.168180257433228 -0.1491787478519173 -0.5169699128675419 -0.48072224338941727
Ni 2.8072020000792337 0.08255721870653143 7.97591056246475 1.7187050731144657 0.7912333437366502 0.11789022215128085
Ni 6.005245678588949 8.242138532449351 3.576921465622056 -1.522305701712688 -0.2926316489636509 0.9942111396868942
Ni 2.676690957525048 8.502487364358071 3.7082959099147144 1.1923580899073982 -0.08956746394718769 -0.8077400831424218
Ni 3.7300501764780685 2.589450080072828 7.520987916650082 -0.9979482381318233 1.1224179132728347 -1.2497294287380156
Ni 5.2443512887712975 4.966397795493295 11.642168178672536 -0.7221334036151951 0.06954782629215119 0.1553123715534809
Ni 7.799711102099577 0.36387515837955137 2.835467716845169 1.7924291422714935 -0.00770122529899964 0.16147941959614126
Ni 4.8449210830371445 0.5027208935851063 1.7502772685729195 -0.5425107374511238 0.4234977145493094 0.33983556034296314
Ni 5.972884034924589 6.156563884218871 0.35803332217013745 1.3610078019997336 -0.5870993226947759 1.059057703848634
Ni 8.331244503224932 0.4635939650658639 11.299124748012494 -0.23513895406382082 -1.0903446868873738 0.3566991688675211
Ni 9.12940436744495 5.394877966990816 5.775610839608684 0.16775393975094335 -0.7532566073825608 -0.016708313893616385
Ni 7.301940439135157 6.227346450344459 2.779074573159713 -0.3247778946788923 1.5895066250392174 -1.1517714267342873
P 8.660683670243897 2.149924916894528 3.7017043971694714 -1.0654546085139134 0.9976767296379915 0.6635934983977733
P 2.074211225982298 3.878830035584977 2.022080502891937 0.8451696887437895 -1.336803693949704 -1.1243336422383088
P 4.841008936066192 1.2081346707433178 8.555950037021796 0.9782512739235282 -1.2732933321008846 -0.216624183089085
P 8.717891996181905 2.0186314449461515 12.79987618476191 -0.6878755108735896 0.3305528494894565 1.4027692022072358
P 6.873696816059135 8.077446242988502 1.506476818351325 -0.09379127222054814 -0.8136585055093858 -1.1179367375730296
P 2.2480288257032965 3.3675397205302446 5.922430986023632 0.40656262935686754 0.7107434166106985 0.5102714178014438
P 7.2874836913750585 3.9744774800166365 6.097188410819279 -1.5094301313016005 0.7454486813023677 -1.15448754011387
P 2.4608678169554836 8.798009126940508 10.305121896625018 1.4213618776077586 0.7948807106812504 0.5350499102977043
