# total energy = -340862.8564066435 ev
CRYSTAL
PRIMVEC
9.40078359781435 0.00000000000000 0.00000000000000
0.00000000000000 9.40078359781435 0.00000000000000
0.00000000000000 0.00000000000000 13.75899704116854
PRIMCOORD
 96 1
Ni 9.070468038691235 3.3287139804844217 2.7493643835003363 -0.9085826057827965 1.1287178873489334 -1.6710057101559739
Ni 8.638755864278062 7.54609341312684 9.90272127004008 2.4756062192281494 2.959624359760019 1.9812818116742656
Ni 7.450553251801119 8.508338796672854 8.244955169014192 -2.0085499033615988 0.5542635071116777 -1.0155937191277282
Ni 8.053378485001144 0.6996984256067244 6.304620321640912 -0.37969588687301054 -0.5292219907620176 -0.27678465462906526
Ni 6.264108585813197 2.1509556383245982 3.782623284576065 0.878561633940674 1.8541680140421872 1.8907902932509113
Ni 5.905703720070493 3.74019566909882 8.118744011885923 -0.7946850497306766 -0.05126599726382784 -0.8124647423116007
Ni 2.443818242455286 4.6659378108434195 13.087419949783643 -1.6725275461171387 0.5841009021880844 -0.18982326084615694
Ni 7.137328550904564 8.049458358338462 0.9641010981820166 -1.025552373002337 -0.9017964360988986 -0.36286955934429116
Ni 2.3564661634393853 6.20803291304847 8.374840152281012 0.4885319692418231 0.7768413366810363 -1.5059378018776257
Ni 8.288134847160535 1.8850544808811251 8.428279845390545 1.990809291548726 -1.1496939753799684 -2.0577914139962306
Ni 8.690676390796016 2.843238726014002 5.817303453709535 1.1181205714490614 -0.29330065000621747 -0.3637303646826897
Ni 0.5821087269013441 1.3253788433206812 1.9344320954991856 0.807490686135777 -0.9392985468094145 -0.18551152084468053
Ni 0.05004977062856813 0.32723468834354186 11.092324599238221 0.48683452693474216 0.9096642688827494 -0.5651176762173622
Ni 6.3981073518799905 4.591135777618115 13.005361451879864 1.341152200726387 0.5254013314643468 -0.37651954602755805
Ni 0.6693602175352528 5.671003762611282 9.739016968622195 -0.2655149952525169 0.12509188210604263 -1.0903403160119995
Ni 1.2677144381674812 6.072454815376567 1.6314316865890373 -0.06288455533936266 -0.5666395121785273 -0.00319356723663321
Ni 1.064648116727267 6.492886049753249 4.317628446355038 -1.1462358416280387 1.0827828153797157 -1.4053755294818313
Ni 5.312645900785396 4.058365182044704 2.139138853636373 0.9466701566831375 -0.5828588022508672 0.18128514146815874
Ni 3.925663724082107 2.2867311524471394 12.406418742209066 -1.550679881980007 -4.801635940945331 0.8469118682458768
Ni 1.2307881611146985 1.0588008294750189 6.7977562744744455 -0.9093505942970727 1.2898329816271206 -0.5096636090141157
Ni 0.26462829137602206 6.07329148509594 6.953233010292383 0.5725142257917495 1.4379154110910657 -0.3706569165991939
Ni 3.2558767109821405 1.8010960846595359 8.014725284044442 -0.4372813985969631 1.0032537095051366 0.6295068411267094
Ni 1.3862113124674627 1.9117997095509742 13.219038437502736 1.3876030359897584 0.5808872803467932 1.5303329428925387
Ni 7.598925815631076 0.8413005452581136 1.7873624802434436 -0.2628186793672764 0.3577954872554935 -0.2291436557123344
P 8.64023178726617 1.5505746087991465 3.899794648421759 -0.02837700848079629 -0.6850907490396008 -0.03687733264232358
P 5.201707256309865 -0.3100895396447472 8.977442586915314 0.23154095229991734 -0.3401183816907046 -1.4985942170283608
P 2.4466384774644094 7.325598039330246 12.878627611196572 0.44408582311330613 -2.2269802864214876 0.4273196593985608
P 1.2174766518716382 3.800210270092956 0.7606108014120977 -0.9382788472956487 -1.0193295320210767 2.2547173473254394
P 6.647679348620642 4.4704955247112 3.778358149163935 0.021345812665627753 0.5892122552727207 -1.3117428943263345
P 6.338525186920588 2.566066029317401 0.807069472795716 -1.3486323111535161 -0.5371330180789782 -0.31160716162488916
P 7.750222023087158 6.736676564725198 12.937818703568045 -0.035214086007287745 0.12227395304127328 0.06987358506268611
P 4.988835917821267 8.465696843334914 3.414089074758927 -0.8124824829234137 0.9382387380863325 0.11680187418310853
Ni 8.50252911255406 4.281962814351333 7.588444882258839 -0.9264021504627206 -1.0251998747589246 0.31386484731081427
Ni 5.536365743275754 9.26856134573203 5.78666254041375 -0.4382980127869354 0.23423675396452562 0.08768233110933285
Ni 3.81659583549596 3.739377800946174 6.6430635639890445 1.8078146235886283 0.07664124280382284 0.13915375951574743
Ni 5.786229164300681 5.111563144634933 10.259519541905924 -0.825267550503224 -1.5872278563073696 0.16219701448845614
Ni 4.30980793467474 3.9425569317867533 0.08201807453531285 1.7447454630422854 0.700261286132452 0.9916696042119633
Ni 2.7574095739030278 0.6139181575692415 3.5076362700115347 1.6362670211232078 -0.5253177706116049 -0.803279733378223
Ni 1.8350235118192846 2.242406458887091 11.03915940900291 -0.0911234955803979 1.0294013144347818 -1.0320382378369968
Ni 4.282517460569794 7.112031042872731 9.561676830935202 0.06519751974325545 1.4262819406171952 1.210306703966019
Ni 6.385143671621389 4.15753404574883 5.806888325820843 0.22531091222980554 -0.11474473454376367 0.7767130386332881
Ni 3.0845192318278314 0.4836185997560806 9.848703428753678 -0.3294727290514003 -1.6955376338590673 0.9335727000692309
Ni 3.235505213432909 7.69530264667617 4.899537876649071 0.06926577627535813 0.6993264330230086 -0.03420955600217334
Ni 8.6780793410886 4.750873888534838 4.448132001167192 -0.034527344352908274 1.733521826412324 0.6803614618847315
Ni 4.372605167544544 4.88439321465008 4.2821987740137635 0.80950411702138 1.5192016088660676 0.9266273790996493
Ni 3.092735516487743 2.6745040654181773 1.7733562531098028 -1.1929034208879068 0.1387421258996256 0.11473239324858951
Ni 4.802803815836154 2.21447673151341 9.85865133770919 0.15418082905219896 0.5136904707853217 -0.02002503697167519
Ni 3.0246456425841517 3.9484512229558204 9.000158639835464 0.7064645867296866 -0.2779035987248569 1.2390863472018725
Ni 7.844088844974133 5.717142807360534 1.5408974424045094 -0.6002654277630888 0.2982171134712283 0.5920450967358255
Ni 8.33081440363193 2.6468093576285905 0.37392837931125367 1.696565560902949 1.1156577117308657 -0.03483716228384323
Ni 2.774772820775861 5.630082152628908 11.097773293275848 -0.5172722745993091 1.3021238831793316 -1.9826900048757017
Ni 0.36287587831050094 8.7838663562808 7.990275726672018 -0.022589969485374 -1.219466516088416 1.1783224377499384
Ni 0.7752459409527729 9.220532743526665 4.426186812482871 -0.8611933178655554 -0.20561034847708462 0.38675536482295325
Ni 8.122276826274017 7.756586353424411 5.828916241398766 0.423926831666928 -0.1246239413306886 -0.6990176435333382
Ni 8.71605850587812 2.903713965392961 11.832682352971473 -0.3609062649703333 -0.38225644851133517 -1.4847280005692303
Ni 8.212956782600683 5.5127697770327595 11.093025897677158 -0.5308957789200147 -1.3008540153279726 1.7556561964175181
P 1.0901712435598294 1.1254241811738661 9.233717342194314 -0.271511579155584 0.9101031561923809 -0.513819025943386
P 1.8061161029757744 3.202470860692716 6.364856781122431 -1.3641512327247216 -0.3093772438531059 -0.4181266800453831
P 2.3783135839767247 4.34758028223026 3.4331040392687706 -0.9184361015381086 2.6862908969043477 -0.3665750332203364
P 0.8515530395946118 4.397160013690641 11.370490018658034 -0.021301589691253637 -0.8986229234669234 0.4277081530862311
P 1.5819732252340484 7.754696795968299 9.832798243380562 -0.23818262598615111 0.23133166450258866 0.20885122401188547
P 5.37521751485447 2.0831571887052833 5.892193854298457 -0.10696740459118997 0.30778418833437315 -0.08525032462907253
P 7.712158251247362 7.197728584016613 3.6704465569315285 0.5737113314236443 -0.6559308396461929 -0.9306701817104553
P 7.222584255230349 6.1424812506530895 6.906975515672749 -0.5489366955821255 -0.5488161108438613 -1.9446091388435798
Ni 6.503208109886638 7.216229325676459 10.934150778673226 0.07912647111952179 0.3134411295098343 -0.31328609198920887
Ni 0.47450736051994086 7.869264142822236 12.444090501382593 -1.2439953544677156 -0.6085847462620615 0.5026015599610119
Ni 5.6277131552212465 6.886130218641985 4.67204643987318 1.279680466574151 -0.08086556529781558 0.56172613403731
Ni 3.5974071705869264 5.7497447240659945 2.183346037404375 0.2052596500058852 0.6615301881108414 -0.9303865890317654
Ni 5.134341242725282 0.09992186645156152 11.013815837132595 1.6618268718701834 -0.19063624366575554 0.47826324032596346
Ni 9.266568379658915 5.022048885445371 13.382990919601424 -0.3034297680204194 0.49090561168032226 -0.7521731445103949
Ni 5.268979262060809 7.29232866700596 7.254155846079144 0.17737217956699775 -0.32461822917257643 0.39641679917211725
Ni 9.464708690616527 8.181426555198689 1.4163370628349137 -0.4990554944809663 0.44820550170863455 -0.5478617173503919
Ni 3.1736292573327525 8.907843887281842 7.589270271038176 0.22250815267368776 -1.548950815104042 -0.16588114820826272
Ni 4.627968046837261 6.632882515606111 12.108440231771828 -0.10871215519643858 -0.40154923530267617 1.290729525299461
Ni 7.648702963542096 6.014875017273641 8.884459438664532 -1.4901532853498594 -1.3690982923173518 0.25808630688861356
Ni 5.089424299813317 1.1242020793365795 2.232451969383223 -0.8382418512757047 -0.8866369547496407 -0.26490024448665345
Ni 7.122428309273031 9.299762545716291 3.966952904694003 0.25964233852182383 -0.957432537405964 0.00215998376579628
Ni 7.367506731565813 8.944647954150897 12.10197343289591 0.8561156462323319 0.46780167867300726 1.7147021226026598
Ni 2.4206735138137505 5.420049850716161 5.706764342526962 0.20960378590719383 -0.7255095191762796 0.8399328658248825
Ni 3.589548115694837 2.821494714093664 4.18665673253137 2.745299771338388 -1.7746419934914017 0.2072301434686947
Ni 5.628474618673709 0.4427844170589898 13.707977880642696 1.0086214015749533 0.6461578194198291 -0.940814983453941
Ni 0.8264830305201818 3.338340382648895 9.003461135031147 -0.7112815485023557 -0.42867951586056496 -0.3875112691523713
Ni 7.2106734627084865 0.770341552271908 10.124117238882922 -0.30684419301860705 0.08664411965280563 -0.13032510548052392
Ni 4.153886541803698 8.29869192687802 1.28612117199369 -0.5228495115767705 -0.7191131287316325 0.20770451200195195
Ni 3.337296895695519 1.1822613173910568 5.8330168631020305 0.6163713321860159 -0.5623753375855347 -1.2478458385620572
Ni 1.3941643751931891 2.551137585335777 4.052726592183132 -1.4063216954451845 -0.6442243498425421 1.6784721937363478
Ni 6.088689968245752 2.3293167010848954 11.855040236045461 2.049301631357664 0.38597760611666426 0.2739145321701218
Ni 3.671428938793039 8.882649787867011 12.431171004805803 -1.0920251599135902 1.320517298084855 1.5685066257487827
P 5.4734933041390414 5.974752473877185 0.6642969556155407 -0.6049175818231195 0.43052942458511023 0.7972785214894657
P 4.415735961617398 5.397704188660544 8.345450483250941 0.9973301449318502 0.23144453593136913 -1.1982898820108008
P 1.4361482736956657 7.951332981587713 6.251083800462731 0.2781987613677725 -0.45130933744493884 -0.7692979771161396
P 3.6389304307045793 0.9856063302049153 0.527794760938982 -0.9695455186194141 -0.3358295245073636 -0.5084670176028534
P 4.042543663643525 3.9070313714551683 11.352493158986485 0.9651700152595378 2.387099078224676 -1.9274822493553063
P 1.885872349033771 8.31039590216588 2.5013030926462383 -0.10348947334491855 -1.1027733995690299 0.35955412181781304
P 7.244892314152513 3.1505879373082184 9.573909130248104 -0.5992213027692906 0.819189462629944 3.071180412163156
P 9.085744311657317 0.7509279945474422 13.338521453977574 -1.1272179057646394 -1.8236410490979238 0.3221574263369097
