# total energy = -340864.24581554986 ev
CRYSTAL
PRIMVEC
9.25759834223495 0.00000000000000 0.00000000000000

0.00000000000000 9.25759834223495 0.00000000000000

0.00000000000000 0.00000000000000 13.54943094624189

PRIMCOORD
 96 1
Ni 7.2641965044713475 8.714788060555307 3.825559833569885 -0.047283872687628244 -0.6198119824364486 -0.004925462326075388
Ni 5.5159453977864175 8.301889929234623 5.686912867341003 0.6712178477122505 0.9291336904612707 -1.0152841583071095
Ni 4.726827738680676 6.061273469434501 2.9921482707598113 1.2866414712730163 1.090822912075373 0.664842540313526
Ni 9.28981450679761 0.3582070192289552 4.89708977926267 -0.47087851782611806 -0.12709579990994885 0.8879057941597354
Ni 1.5098124109091517 4.819959175219904 1.0346050900486141 -0.5146116970480105 -0.20787729013439035 -0.5186344450541583
Ni 8.744079100834641 6.888467629383764 12.381713396713502 -0.5446753492026103 0.8207007570681478 -1.1867402294999883
Ni 0.5643052219226138 3.448288642644584 7.27104434976042 -2.352522111580755 -0.8511439040493535 -0.9776275242966003
Ni 2.293755072696261 2.557652163152247 2.2614136538543335 0.611188759543812 -1.0122852235797857 -0.9227283011555591
Ni 0.7138922687448601 4.877772875139136 9.656881973135082 0.6785231231244121 -0.1522221626639314 -0.8603769926118473
Ni 3.8674726830517634 8.747717336874395 2.636989778573835 -0.26702089037408205 -0.1463055400691803 -2.1877557937032255
Ni 1.8791628009295847 5.233958960710386 7.113870701323472 1.2482338180290955 0.8501979951963163 1.7515933392020544
Ni 6.2451201094178534 7.414373260290369 1.89496922386667 -0.6635837282057604 0.17617815925889657 -0.0656322932878289
Ni 3.440706669828916 7.4914057337936395 4.57145561882728 -0.29701203741953364 -0.7303187676394648 -0.45472016289870076
Ni 5.813123553287981 1.410506156460216 9.423886745021836 0.5866444945455446 0.9128431808313633 0.35921370775925876
Ni 1.5755969027628047 7.08889462750248 8.527415201468795 -0.6244772491226018 0.4956536678882689 -0.5538457028479687
Ni 3.5400684698662443 5.2450125328006285 13.090876884366489 1.062110374632029 -0.0179504138308336 1.960583659894965
Ni 9.210680558533463 8.707326436514489 10.463628876237012 -0.5013458331770397 -1.3281187645811967 -0.1318158310934375
Ni 9.039146523977266 5.230200375895781 5.369043054403174 -3.476915660522722 -0.6536816386006999 1.8786361743868807
Ni 5.149437090372102 0.147473537183886 11.549710840329002 1.7904794747442905 1.0000686269089358 -0.9356357532458468
Ni 4.140405189219706 6.734106439239125 6.564536866992433 -0.8360029346428569 -1.0741451943093758 1.0495266244297474
Ni 9.08921161431565 1.6237641854977551 11.17272478342412 -2.1316499518485936 1.5220293081228498 -1.0718432856490767
Ni 4.956721671441971 3.7490124582052466 9.16178655435037 -2.112795281035935 -0.7956037048902039 -1.0712349626411164
Ni 7.5330926978827195 1.826496325534787 3.442151780886945 -1.2055740743770398 -2.8983475152274085 -1.361698914529487
Ni 1.0406188257519822 2.557883603103885 4.343473380066516 0.7150795820922072 0.5030638443094111 1.6238794460921322
P 5.49783753597024 6.874377565128028 9.870787108277403 -2.012968601254585 -2.7598506725693697 0.7342214451279807
P 7.024869079281277 6.286038692867494 4.222084051192066 -1.1910761378711807 0.3117125768545018 -0.6094722910733374
P 7.289016124885033 8.570480621909832 12.116199003875469 0.3629173818630911 0.03748437009870319 -1.549864070946931
P 4.351284015554404 4.661228398788334 7.139899364044514 0.7211072763435259 -1.974370686376729 1.9633326833950122
P 1.3805485691201624 3.041843057175574 10.822079370295091 0.45768387351271494 0.6010002490465843 0.011642983555567045
P 1.3738090377284569 6.922683711833962 10.627319873712093 -0.42449864500999795 -0.48244488250747875 1.0369485306544206
P 8.37325675272179 1.1491086174819232 9.09993283863534 -0.7654554634415979 -0.6154925291254885 -0.9552185604737806
P 7.286683210172519 5.362574770634788 11.960272353897947 -2.7962171270135454 1.2180241272149346 0.5048260784161563
Ni 1.3464343202486857 7.050234897980828 5.75396935316886 -1.3829238853465344 -0.1837811684171351 -1.4946632574050709
Ni 9.091498241037836 7.376231956260387 3.640962402383418 1.946752153328512 -0.6318457736725311 -1.5848107622254448
Ni 8.355796922770201 8.297455539761234 1.6262165232253138 0.3138352796244595 -0.09262167739247919 -0.7699060430137836
Ni 6.490622352517631 9.270373550859997 0.34612029919459986 -0.26422481568618367 0.6254185299899487 0.5069012157776303
Ni 8.338226001641825 4.942548288803646 0.23349050960975398 -0.19615614504272022 -1.3650488048383265 0.7468823284251008
Ni 8.263100593340054 1.7594898307364841 6.505325269765306 0.8047401199738333 0.797952921848671 -0.30259698770647886
Ni 5.2970865219192325 4.934707103242142 11.147008101757887 0.8539916579107937 0.8017015902578258 0.446736630472592
Ni 6.993226609093297 2.2896817295474277 12.371998473303536 0.003836085916638554 -0.23335512269052072 -0.15308245378169766
Ni 8.61898117817514 3.988358398591448 11.530781829564415 2.341496449894213 -1.5616919168197942 -0.4341734490956007
Ni 5.722500925824512 6.7983819426080965 12.815688301549978 0.13334615169503486 0.9424157522821576 0.33627124003047243
Ni 2.8198180827699786 2.812745277847914 13.142568534684987 -1.394187631185812 0.7494508604832255 -0.23035824484572587
Ni 6.604203823183614 8.518758421517719 9.869378101851831 2.46181559320196 0.8871506611612657 -0.35056554516595756
Ni 2.1690181963613155 6.948355031269676 2.5747305800635356 -0.2625685110296833 0.24275121919343998 -1.1736983087143655
Ni 6.914333358378855 2.922457072522505 1.151030494840327 1.279522600840048 -0.41650457106092786 0.8889314072107724
Ni 6.410571902044998 2.978595147191876 7.3829761164511245 -0.9934737473002374 -0.13543517301357966 0.6879166485241701
Ni 4.0712509316702 8.224792652544892 8.623372056937622 -0.054905393788628014 0.4090866813303019 0.6776656602201232
Ni 5.157167184756818 1.7611376831921481 2.0021453624311123 -0.49431386603092287 -1.217990959984154 1.5546450372753418
Ni 5.988147702314883 7.016666847395219 7.797643374762131 2.0598279848102847 0.3291372000888525 0.8330232831892429
Ni 7.007714750065851 3.5682763711719128 9.869500302146294 1.360916527837508 -0.8290079913822626 1.146747491157135
Ni 0.41806201952163663 9.146784616685178 7.362231690705887 -1.802290865556922 -1.2711253779152882 0.2739487278421669
Ni 3.126013138787369 4.295960609514799 10.80167377263905 -0.004658324707617783 -1.5181173746629533 -0.1047122900084261
Ni 3.8937179735675396 2.462400736656013 6.238577764864943 0.4946802482314061 0.9267369080943201 1.7112987533480657
Ni 3.1011287151872255 4.700286205026803 2.6794812279348097 0.040964615337819775 -1.5746885861897784 0.573069069853955
Ni 7.169195033122883 5.174562211521948 2.3945906823456222 0.781385504408293 0.2281136717859233 -0.43338746285919555
P 4.658210421818971 0.9060966682617719 7.743811367770884 0.40570336668036583 0.5230783397581249 -0.941354658007495
P 5.445254378958032 0.34290791266586107 3.6828706230662642 0.15125131411022985 0.846396362062039 0.6775021380590656
P 2.0833298686667736 0.7142792363439994 0.3744642871918317 0.8874064859258137 0.4414172751422075 0.9092130402779438
P 2.6596708938343827 8.20587012209895 6.765108283640971 0.06116757264825594 2.915228607253463 1.3969826774324456
P 4.958989782968027 2.617178518713602 11.613962273943004 0.09532724924910034 0.9913811264372668 -2.286367884351185
P 8.239808476607182 1.2691333764015138 1.2069982297052926 -0.3063477129981627 0.1108788238304542 -0.3218308962354264
P 4.288017590374575 3.53641171863036 1.1555250587011416 -1.758836908138345 -0.44450285604606676 0.4490030579092654
P 1.7091284972600032 4.666033092184343 5.224511581884514 1.91290178043797 -1.472978830453102 -2.146293927014013
Ni 3.5179520680876943 5.593311144820047 8.858848321332433 0.10048282530811081 1.294806266471996 0.7580190617682108
Ni 4.2039585999395666 4.832503220598697 5.107336311649492 -0.9250281529333295 -0.17937018383363304 -1.821482093773392
Ni 1.9063060784577173 1.2520160775783498 6.3837331994932205 -0.315855652488598 0.4393750479011981 0.2778825156789343
Ni 6.370153228890896 5.308834413864389 6.319847441002808 0.8907969996646015 -0.7575284952850373 -1.0609942587497148
Ni 6.003635663878514 1.882347414664127 5.357553449444045 0.2865687305990226 -0.9397839710862653 -0.7485214066904206
Ni 0.23389599240502418 2.7462757237374116 -0.04590657728734802 -0.009061853091952135 -0.1301448711489178 0.2044392109871189
Ni 0.7420112971090997 5.1844030382656054 3.389661199855392 0.6049713178791905 -0.4534178991475094 -1.7110817522412531
Ni 8.139780129509134 7.357911169688704 5.612499368330471 -1.139535803900044 1.1384466846009234 4.198288017602176
Ni 7.097402360124701 9.140933814707763 7.221060726285013 0.10306087044793219 0.2076196655976295 0.9424754018754995
Ni 0.1326141665289045 0.2847683452947222 13.107231357109054 -2.3142856938073755 -0.2170155049902327 0.6185678256167024
Ni 5.785285955904934 4.546286061206718 13.798333270936194 0.8164059863475359 2.335311147019107 -1.5525850694225196
Ni 3.5432901139930486 6.88295010093671 11.448672489282007 0.031058926188333606 -2.064281135485632 -2.554706465095426
Ni 1.8540932253681308 0.922565935220349 11.659867925470547 1.3228680577052185 0.5845667860809094 0.3769738599561572
Ni 2.4958484384667714 3.266811947766008 8.20418061045199 1.918631998053528 -0.725602336000402 1.4407919613079123
Ni 1.5350763960299818 5.328988204853046 12.072474442452167 -1.85447731775249 -0.3595016713133228 0.36834806596035913
Ni 9.134333147287041 3.1737823448055016 2.462216510454509 -0.19368840022851802 0.6863721868551858 -1.7883192338681784
Ni 1.546037392139569 7.77653975421195 13.002968584655836 0.8564881990804024 -1.1746789274600802 0.3004519163390181
Ni 2.0188321829442293 0.22222864156303726 8.969573822995198 0.6213518161197428 0.6988798324038932 1.0397201798622866
Ni 7.810691033475689 6.1638661711967 9.86994744413286 -0.5121308396076858 -0.24000605234813505 -0.443135800495211
Ni 5.7014491478234985 3.703316954153793 3.419239225674759 -0.6270198130387975 -0.3642805807592049 0.6501049769930353
Ni 0.6273577965871291 0.6633772591404915 2.5513171887960047 -0.010358460416188611 1.4536089105669223 -1.2339518541887846
Ni 4.734705954634442 1.5512771926446585 13.348465847500625 -0.12858909662602372 -0.49284088102982215 0.8041842474703634
Ni 3.771434360719959 8.428811598713033 12.990543962292088 -0.456002372045234 2.0974573651272843 2.8919148722281873
Ni 3.5180261288722185 0.5434932157114967 4.780198717288261 -0.07117919124798709 1.1769615528466697 0.33446889671441105
P 3.208044715246026 8.859530606309862 10.837877461393917 0.3227809188535215 0.40661765096451913 -2.2509663649234395
P 4.051393383819639 7.0723512997593785 1.0641312733188142 0.41072190294087974 -0.974791854620018 0.7072382316709175
P 8.033095569401972 3.455130007615011 4.4218704235246475 0.18149185816232616 1.660575001740953 1.4393007214743663
P 7.93202111372252 4.252348065028089 8.1246448824318 0.9940905549486299 0.9243429539408468 -0.6811358781569108
P 0.21319507737069351 6.548584174005912 0.9242147134358198 1.1246210915717407 1.0926370824659764 1.0201088333892625
P 8.561463721394006 7.171657554208314 8.050461897613099 -0.26038590155606767 1.105550962314167 -0.9872097686683966
P 1.6609149265347252 8.75723414768576 3.8679420432736853 1.9331828992845093 -1.7431256680506755 0.47899446206503316
P 3.4742839780125916 2.917615348734233 4.1976680620540385 -0.13321991052981574 -0.3282059465238347 -1.0992188494485522
