# total energy = -340856.1264167084 ev
CRYSTAL
PRIMVEC
9.32074450056214 0.00000000000000 0.00000000000000
0.00000000000000 9.32074450056214 0.00000000000000
0.00000000000000 0.00000000000000 13.64185173186582
PRIMCOORD
 96 1
Ni 7.747132321198729 2.73250666807661 6.864880070189767 -0.16220292802572708 0.8602435523577765 -3.43084534852722
Ni 8.773588602763331 7.616036053285555 12.555468466298471 0.5299383001027518 -0.032573305950331 4.654867859417434
Ni 3.3836258993322477 4.618960059598179 6.321756574291596 0.3624700099130274 -0.2616107751021043 0.11858082046040223
Ni 6.213217439544201 6.299108097832143 2.9177462072788574 -0.8029105229642624 -0.6970695186680318 -0.7760064994845668
Ni 8.974003245683276 4.2709234692051545 2.9654385914706904 -0.4297041004703374 -0.056846062454766616 0.18663432159521406
Ni 3.7768960615832623 2.9706703252196887 3.4660259388975807 2.137336460710409 0.11871246094226007 0.6813613639041555
Ni 4.884675836752018 7.836350485184857 8.121826240154261 0.9720687992619002 0.797245097148369 -0.6711245166674957
Ni 4.671734113556543 3.933093093768755 8.321924909844043 0.7998277702738805 -0.2916510302179364 0.19180249605971483
Ni 3.604732594493022 -0.07319021216931401 6.5848942335851595 -1.1232833465969234 -0.9002792281234236 -0.5831884176761439
Ni 2.055624899706716 4.458242466450163 11.057020880674035 -1.7009356649461869 -0.16355969916393767 -1.7813587433899452
Ni 9.214366598469974 5.861275457309327 5.860907287911349 -0.05358564653593997 -0.24883933436904887 -1.3467291805935322
Ni 4.583028590504309 7.1647349373176965 10.25452530616036 -3.077174167852746 -3.1111384406133324 -1.7805056513610302
Ni 6.46011463405199 6.259727953364802 9.706395638524105 1.8657953138684704 -2.070491378061402 -1.5467797755946522
Ni 8.448676778861069 4.395336763489196 9.590822138089253 -1.0836929858988111 -0.9389630178468668 -0.738974900652566
Ni 2.243484500118377 6.779303520983139 5.632338404901922 -0.19045806621667843 0.22988259076088796 -0.6330192251553421
Ni 8.301492906367864 5.577402870351374 11.47008271127107 -0.2829208494337902 0.26901015288996893 1.4120454853028392
Ni 6.2732430325311075 7.4391656103477395 11.672050190183507 2.8630892062457467 -3.0182146585994016 1.110469739772023
Ni 7.705682971507304 1.9656797176688834 8.728698034293837 0.009515138579286838 -0.1694315845636824 3.728923879538055
Ni 5.111020790182768 1.0932953386001765 4.380425436833846 0.021258395158144035 0.24504592876488765 1.2163773356401308
Ni 6.057533048292603 5.8633073795563995 0.09034317781742014 1.3185971982440066 -0.6075197953326569 0.23621984583282543
Ni 2.9399305106745306 5.905092276040918 8.401880118191913 0.062422270990963466 -0.48344118498247707 0.13312555104379653
Ni 7.149691256093959 7.945049004658971 1.3332784050213677 0.20870081447695024 -3.3940862866303165 -0.047696277634698504
Ni 7.305506137765095 1.8157182633883968 3.1406676513456184 -0.08676239039822477 1.0067527237973306 -2.040410242405305
Ni 2.0129452117739457 7.917179979343623 9.32350971744494 0.0013711693159137676 -0.5148772920045713 0.5025056578130959
P 3.9733307467073375 4.633565665842043 10.367670752717402 1.9023026647658852 -0.2813455345268703 -1.6992433648454282
P 5.915494226626848 3.507862099475489 3.070180455009566 -0.4337070509821434 1.0775714463821056 -1.3132721864866672
P 0.7490094156944084 5.839725896597258 9.91390150367145 0.38465631620207946 0.6318966815151247 0.07183636521601176
P 7.095966486221828 4.541243694019791 7.936678976320114 -1.0366610813209887 0.5193502401742605 -0.308389683128856
P 5.117116556923985 6.219061546190598 6.881100029338185 0.22027206425431745 -1.8422836038997756 -1.6194653761848368
P 7.4483651849250805 1.10119000898215 5.261389560987094 -1.4294706227578218 0.19311247312039 0.7617132227903463
P 0.6673885903485949 1.8395048027210963 7.716022473106741 -0.31524938636316674 -0.6306394120692558 -0.5047810841108339
P 2.802086023922457 4.828220088813867 4.04221663918079 -3.2653588646542153 0.7871108369278444 0.4427611907646117
Ni 1.0153273129269669 6.180771928800814 3.069130007132295 -0.1956396104176179 0.26528462440926565 1.400600476690691
Ni 4.529956272729861 8.648420328194826 11.660959436597308 -1.787874690131592 4.777485826061688 1.9754464359394106
Ni 4.556175526312496 4.330604194654714 1.3748526526857772 0.6515368243435553 1.088152050111429 -0.722822973483052
Ni 1.272179062296559 1.8705149188495802 10.265342961939956 -2.514310063556251 -0.6960598464565948 0.7239884545460628
Ni 5.646870377266191 8.286011150164255 5.650768312512638 0.2739523273865927 -0.9357393687032465 -0.46117286050258
Ni 4.864375255769801 2.240529824190295 12.519262967323574 1.4567402571070525 0.21219571500408616 0.0773179571558733
Ni 5.49668522512364 0.8617643230672658 7.245896249971856 2.3514633312989375 0.32106650726557606 -0.1983652368788971
Ni 6.092513801472705 3.5980589416081425 10.644191136608883 -0.4935173382715565 -0.42318635395647763 -2.6072963233769997
Ni 5.278234942074865 2.1541172042242067 1.5140132285263215 0.25948138746392735 -1.7387133979155927 -0.6911680655819321
Ni 1.1946584323474754 3.673277347726828 8.840875055523032 1.1596462014966737 1.0821456960163494 -1.2149848261679785
Ni 5.641361817412888 9.24350324500368 2.3905164444802636 -1.2754065217891455 -0.3333882620557226 0.21157325092873888
Ni 2.6966590856810138 2.9566985295850037 1.5108758660108879 -0.9770927348390527 -1.1270731526566589 -0.38287017083593416
Ni 3.6823184696518743 6.132667567713014 2.5345331280764256 0.05429501389813875 1.3299776721668064 1.4395130945954886
Ni 3.3817337882489644 2.1419349914860257 10.101735938073627 3.169368527899819 1.1721584750310716 1.7656140789611787
Ni 0.056589034580963295 3.3196017070609654 5.2933792873365295 -0.43844507988776105 2.16483852278542 2.1253898298714944
Ni 4.772864188697526 4.783452554168509 4.388583884278169 3.346073506196463 1.460582256560962 1.0259164412099753
Ni 7.3500872575254 3.9782241374399665 1.1740353536141168 -0.823981998922581 -0.10047665466052372 0.47689567055447546
Ni 0.2242589708670125 6.675656844893948 8.032759072225025 0.04236792344324961 -0.2089350419749434 0.20684550643576632
Ni 7.53322124060098 1.0531042893828566 11.020119122103464 -2.440357423328184 0.2842051154628525 -3.034720112453593
Ni 0.7007372812100625 2.7209769074361128 13.313505954875973 0.1638116672737437 2.4210350688504887 1.795744322687656
Ni 6.97295130357568 5.601879144758768 5.354835614566214 -0.8857650936676487 1.7589430946989062 0.9650771984354152
Ni 1.4179555024076167 0.6489717317798327 0.8513344102485783 -2.0200216514466245 0.954183434341047 0.3060512648036664
Ni 2.2405764279115576 8.010098478798044 2.1192482999751356 -0.45129313949502275 0.5168431574816905 -0.21241065922836966
Ni 2.144833742948592 7.117851593726992 11.757883991931505 -1.0636026429068393 -3.5324072658321226 -2.140036633250392
P 3.4361576139400434 1.206700833921867 0.5249927841779641 2.2482944745182314 -0.9910219433256353 0.7351023050710372
P 9.111624034573287 2.3940518027752846 1.905561849313876 0.4213724406761904 0.17646560859232835 -1.15485212254214
P 8.796126162366177 2.9700644768432682 11.359201273492992 0.6196070655144942 1.0812159851132281 -1.897065841846978
P 0.9669806124886 5.366660842799519 12.797462017254952 -0.8521440631790937 0.5701125583287923 0.10765877423125975
P 3.2884890627457026 6.391402107421638 0.4932248915417417 -0.2448538673587396 0.3126592570384873 -0.5173982586542122
P 1.3378343848120509 8.746157652427854 4.599650273730016 1.3919931946376543 -1.7326270825121968 1.4010159669615547
P 7.180598844035664 9.245050488549616 8.44793484761856 -0.21315113693882 -0.2671864694176689 0.9204485039824469
P 6.314002647147837 4.071217202848407 12.562412420766677 -0.19185108990946315 0.894363633969937 2.8409568931230815
Ni 2.659767579929123 1.747947131927559 12.354715480362154 -1.5432964450317421 -0.5751781457771579 -1.414138620386442
Ni 7.265911616179943 7.401192898262544 7.469199844552974 -0.574464921760217 -1.048564260516478 0.2726338656854853
Ni 4.140740634228739 5.751122901731803 12.21005752956141 0.875232312457125 0.4395234005536044 0.2080834926079255
Ni 5.501131220132143 1.089949191413484 9.536404836919152 0.5142314308904563 -0.09238719278416992 0.9606572149908488
Ni 7.737373501966229 9.074928264450703 3.6284324509041723 -0.8898510908115642 -3.4783871028619258 0.18647928407458852
Ni 1.4046641211033735 8.527259973654951 7.231791167694357 -0.4910940735420446 1.1353863005080445 -1.648478475587735
Ni 2.8717679079550833 1.9860175816281114 8.020494836937422 -0.056397404953122225 -0.5446401250893008 -2.5737562826380254
Ni 7.264094071050681 3.5005919189584414 4.641053019700177 -0.6326500147413814 0.3478255205269752 0.8335081932454613
Ni 4.972076455608884 7.854628464664255 0.4165431285753943 -0.9223166675394374 0.7987499638286695 -0.19040073061618176
Ni 8.987639494524867 5.9756409892890385 0.8330005063036644 -2.3724044523269785 1.2166290466396208 0.00444929402060524
Ni 1.5939591161299382 2.9701483635415418 3.9376518697827136 -0.49039679036470385 0.8507919200265736 -2.9052411570234478
Ni -0.0612838934610106 1.0101170168897493 12.167276245516286 3.4163708090601292 -3.607208884324046 1.3375904515170576
Ni 2.5575003739893196 1.4459177351654924 5.189728882949637 1.7174151506584487 -0.3289271409605754 1.4629067909290805
Ni 8.60209622925928 8.041388217254106 10.580292774385013 -1.0680737913043155 -0.6062946646763042 -3.2842441315944924
Ni 2.9222490588273007 1.053094968638604 2.907896976827109 0.10687690175991271 -2.960079445019567 -0.836720786645488
Ni 7.770452823318797 0.6278630422709125 1.0101598923133115 0.9742092426436706 2.0963903573153506 -0.7241280654477206
Ni 0.2843619260312155 1.0982912575195836 5.365490157321389 -0.742391896753915 -0.29613040614552877 1.7844728635388947
Ni 2.731807612257663 4.0044993154881166 13.059985439502267 1.6104510885013683 -0.023478285627598273 1.5368013242257017
Ni 2.5805878575030725 8.63529672028713 13.056015734525074 1.208777926026318 1.71265526737596 2.2106586664433285
Ni 1.4349285776916474 4.796212653050352 1.249971457040254 1.3038292959062128 -0.45036677102601147 0.36330664688170977
Ni 9.315347541702916 0.17890795763143938 9.024643781282215 0.36792023439432114 0.4829968983562069 -1.0974437598260003
Ni 0.45218099422530666 0.5120043270619309 3.0274271331971994 0.6699808899813557 0.6908567049891006 -1.4890577382928356
Ni 7.7145283578030455 2.4444117839722184 13.037176646241669 -2.716244505843645 0.19104813439219356 1.32733354967574
Ni 8.624466015465579 8.082017341451298 5.68526904736373 0.4524329095264208 0.5349023289762465 -0.7937275709134137
P 8.089986577787293 6.75938509051528 3.6269588412378324 1.3181873644000976 0.03894012870862326 1.4376994384255175
P 4.0309049839558035 8.239295579970097 3.987131040647775 0.6212186329759882 0.44600232340972873 -0.5576403940037106
P 1.2689540847851506 4.564964988142721 6.740124704591655 0.29125199500730486 0.2050889287559758 0.5082538731507827
P 1.2846036143853083 9.010465997199546 11.006314167790903 -0.46487833437862514 0.714515482058621 0.8986208665843943
P 3.7988650557867 -0.23058309584241868 9.438797071031235 -0.6070554541017287 1.6630296339290327 0.5590197908497405
P 4.555867941752159 2.4676483993940126 6.352791856429563 -1.9828350150939982 1.0399135268200155 -0.4800866666879474
P 6.610327748427298 -0.07477660284111082 12.481952960154741 0.04128060391634181 1.1232378380709687 2.4388145043210963
P 9.309242454217447 8.14316142374852 1.1529126829888177 1.138443856387446 0.5049860010327883 -0.22965247702795288
