# total energy = -340877.84340760607 ev
CRYSTAL
PRIMVEC
9.23412212744892 0.00000000000000 0.00000000000000

0.00000000000000 9.23412212744892 0.00000000000000

0.00000000000000 0.00000000000000 13.51507113289131

PRIMCOORD
 96 1
Ni 2.519308617071854 5.84717544020928 7.26140433692769 0.667579993849347 0.7674609239074008 -0.8803464937552387
Ni 7.9558241758240165 6.692568559639046 8.83824797200813 -0.5632497697706881 -1.6649782730149716 -1.2287808515108063
Ni 7.449729641667238 7.253606120749184 11.248296608656865 -0.803197715187378 -0.6176987927481878 1.7944662273061804
Ni 0.5703003090659227 7.273921189538662 1.6937762476204559 1.0135610049684156 -1.4765899448431279 0.4599670131199369
Ni 5.20989173228336 6.0914179717918655 12.047631773492013 0.012706906043707148 0.5996966997438123 1.9676079137315985
Ni 7.739625673293086 4.015116366163284 8.795743307627236 0.8484694425409839 -0.7441309909322087 -0.9549023147849426
Ni 3.0973000264990294 2.3873899476507265 1.2769765983278276 -1.3359963675570603 -0.7903558262277033 -0.25396354296949164
Ni 2.1573494959764212 5.005069668274539 11.887829748745112 0.4778719184248157 -0.05174345112087863 -0.829772637462429
Ni 5.635381613956796 6.259395888314316 9.849648446287766 1.0049575795701209 0.9797792805322804 -0.9217052592076836
Ni 5.53205178679577 1.2451013319849193 11.050395519219732 0.12506359997126848 1.6030601953539358 0.8074130388203061
Ni 1.7640682324564847 0.0019622509626200176 2.7788881021782776 0.573177056186729 0.5266742846394993 0.47368821936077127
Ni 7.094853092281591 1.7850296897983549 9.455359740038316 1.1455570703934592 0.12764910131025758 0.014761731690206836
Ni 5.8334904711429125 4.330360063165094 4.639994030944356 -0.11462569246739612 0.03480965148001747 0.5661600014389475
Ni 6.6739802716966725 9.183602294604817 4.505586765596518 -0.22675895753024175 0.08225678921838737 -1.1402744818382813
Ni 7.720640318097103 7.105490801029537 6.179968586408545 -1.8872611970517306 0.43009747925401415 0.18185849747312552
Ni 4.404962536233363 3.85783156312184 12.714290147475301 0.30356989314270943 -0.7750680468306975 -0.6925975989396073
Ni 3.33607595775281 7.640617415310913 13.047030659178159 -1.4093422274390632 0.03109774984606902 -0.26578650374634866
Ni 0.6343758828523711 8.002530365795462 6.948517187905458 0.7967879550062923 0.4894321124585894 0.27170903987837075
Ni 4.883077680193724 2.9811255353897472 9.68525152234557 0.36150661755849356 1.044921007336936 -1.026150154487336
Ni 1.4405045913731649 0.841717015391088 0.3070327155619909 0.3861393285055092 -0.6827672431127467 0.6575218382823966
Ni 8.510914962252144 8.030509755991877 13.288855697574796 0.26718389831450756 0.27419658218691484 0.05548260644833671
Ni 4.388498096391709 5.004340172622553 8.31486346748707 0.0028778357684273014 -0.14050076046194512 -0.12950620912365438
Ni 0.8107005224106439 6.084824808557462 5.538976455016329 0.8112326696767126 0.4390066088181858 -2.6209871906005313
Ni 5.270513744375597 8.236569192372423 5.945495756089263 -0.9125032809934414 -0.7716574784872516 0.7146841464260013
P 8.297615974084804 -0.004737104676819149 5.982364835705513 0.4778711470938673 1.2663639519709031 -0.2507434933702972
P 4.021377100999314 5.000406436575136 10.551067749794285 -0.38341935847118486 -1.1390493511819286 0.8226416828446025
P 3.921039129423647 4.424160276239419 1.1948778648762415 -0.827737095089639 2.1103637887763074 1.1858439429379641
P 1.2561730444751846 2.9506436980833537 13.030529282847796 0.5063525423630117 -0.3109723562543677 -0.8716605359454666
P 5.923901761378266 6.852632833455776 4.212228861566499 0.36964904415996985 -0.3074746275137543 -0.5148047868954231
P 6.04162758501329 7.155493572618183 7.842525190360663 0.6574045959782421 0.10031698915420788 -0.6744234991337418
P 1.7766081703728986 2.306656017456906 3.886326217335736 0.25197787999803056 -1.198168268831272 -1.129088640424791
P 1.1745157020636607 6.712569668274504 12.883566381575843 1.1125759874817487 1.220502156441782 0.1344596964741878
Ni 1.4258685077225637 5.100670535173386 2.995345160130164 0.14334131523453378 -0.7798209881346505 0.27682244984553617
Ni 1.2129850550531902 8.58727191853405 11.758976807886759 0.3387209871225457 0.08012868713179103 -0.5364403628873278
Ni 6.859050548368816 4.169372377130659 0.3840175921519348 1.0251834196986924 1.3766614493765903 -0.7700394832678544
Ni 7.345476402288509 7.6605261827246025 1.9955270452971825 -0.15086179198129504 0.5185920218519972 1.2505516675289947
Ni 6.342789245695123 5.057990422471128 6.935136944870935 0.2432055331220392 -0.11129611387353092 0.4624247306318101
Ni -0.040844369213462885 3.4043253547632784 4.647765468168549 -1.036905850341943 0.7408255807080596 -0.4336394309690016
Ni 8.861063641083149 5.247622355498726 13.070209229254734 -0.6227692652925597 0.4020341453588947 -0.8779641095659912
Ni 3.7276950792808807 0.6942647056437516 4.7343833810135765 -0.0028356696765822133 0.8171734606411797 -0.03239589983220227
Ni 2.92193481223495 3.0458752000951193 7.701414875724515 -0.12124371200454603 -0.6221635133877608 -0.23746785930731357
Ni 4.691728200441197 8.410087582201093 11.221009777623726 -0.026619659470057382 -1.549484833230641 -0.277309931004916
Ni 2.9073079627065264 2.738000332590583 11.03128457996214 0.2019398416040329 0.9718353430948554 0.4178353740572094
Ni 0.37609194508738536 5.084289202431325 7.502540509809922 -1.0951732186242686 -1.3070323762245426 1.0182998052049816
Ni 7.171865671238066 3.517249434866244 2.834502449813909 2.0547410572056806 0.18115272965535253 0.8651816130893422
Ni 3.8585979952625338 5.622426140542416 4.040668105639359 -0.3871132623830043 2.219091370591714 1.5731073577455874
Ni 0.37932204102491235 2.800690788050476 2.063629619765036 0.5622105298728963 -0.44087142994106654 -0.15927701262818375
Ni 2.2013039175391094 3.8190113134895833 5.26302579470224 0.14209355887036174 1.024564812278087 1.0400675358993765
Ni 9.396642727351201 3.734001984727796 10.90002615027667 -0.019009708333283387 0.40506856130984437 -0.15527586188859066
Ni 0.2742995992688359 6.33874470018158 10.675243607769968 0.993876639165611 -0.5425637021762463 0.9045611433282292
Ni 6.612074716621828 0.414024795578429 7.633041741476874 0.580903221186393 -0.14462712392549285 -2.248754444873785
Ni 2.6666575046508076 6.944373837284623 10.318837887751805 0.7381619178329675 0.517356092562367 -0.1882615727859919
Ni 9.075858557043167 8.554934022670071 9.39283919242648 1.6892412593273938 1.5014008332392208 0.0695938490387382
Ni 4.733992777645487 2.414584437462096 6.05079152786178 1.0468557624658037 0.4156208829043938 -0.35478472545362766
Ni 4.073254399389898 7.774890785887185 8.011842054598784 -1.1050177155185161 -0.6664852181232716 0.2058754292130132
Ni 1.6524092270917727 1.2064934671627343 5.909019126665538 0.6180317506075743 -0.1303338472312723 -0.2376558069484036
P 6.181367555918367 2.840249767456896 7.733783244191677 -0.5317229028070005 -0.3145585309437292 0.5096918911488899
P 1.872781552846722 7.060243602362063 3.709819665570575 0.2955238829097814 0.6097455993393821 0.2088486529087242
P 8.737529554598769 4.8115132333217 1.659043020463755 0.1826077169343242 -0.45988910869414995 0.8106243466687523
P 1.0767632846975643 6.78101298185069 8.713558696839403 0.8118353362577179 0.7589063494691703 0.5343963358741055
P 8.42723534708385 0.5440320017089101 11.093130113242834 -2.0517670621790214 -2.3995822982933515 -1.385370290004498
P 7.611336013887535 5.149057335381051 10.482505316042015 -0.1605733628421041 0.6428794057788735 1.954612787023511
P 0.8384564468503769 3.1594179663839466 8.459528919161379 -0.5879953521464841 -0.8333148462877327 0.9795933897737193
P 3.5759784519121895 -0.09436534135155993 1.3154505683784457 -1.581886389489798 0.8910983329551041 -0.23186465418792324
Ni 5.228498488470087 7.827479111685402 0.9348375970731837 0.15479943647280436 -0.4628757021262997 -0.49209731799557827
Ni 3.91501848176422 1.1141337771480264 12.72458804052713 -0.5177990936370567 -0.27388984957977347 1.2709199467727015
Ni 3.3485420226918077 6.634430526412431 1.8352383823115495 -1.0734029168267127 -0.9153003841226044 -0.3093044816336415
Ni 2.85973376525044 7.647755391753762 5.628905724074041 -0.50147001745973 0.3458480850856302 -0.12426810065316664
Ni 8.351617120576107 5.8290026877648735 3.5525579478345746 -1.1612549407446904 -0.7910664791414828 0.4739288746166676
Ni 1.8749238691917942 4.808161246971436 0.6058424453253318 -0.6827667288921145 -0.39086347345405587 1.2087768975850537
Ni 6.4990675294192695 9.327386811023436 12.757483677370601 0.4956829784643076 -0.5027630252395406 0.5490325977300415
Ni 7.032910600718038 3.130044223738797 11.510300050834761 0.01370552251155059 0.8880284357805288 -0.020145107489307243
Ni 2.178200143852167 4.684728735831004 9.446399871289938 -1.018857991701297 -0.27147429815974533 -0.42522112499831927
Ni 7.284863624318449 1.5914917230898704 1.344204701425516 1.7689410864518826 -0.6831428812846106 -0.13997034187977184
Ni 5.700519111793604 5.479084861988295 2.2159584694340646 -0.0886853184525505 0.7513280229012802 0.5070503397609849
Ni 2.1931963582676723 -0.060522283572725266 8.720247894944448 -0.12543358171617755 0.40251854119448094 -0.04369384134352475
Ni 5.484966997815067 0.46809058092497113 2.27035668317898 -0.4546065201389719 0.8757727583416272 1.2701673848773931
Ni 4.708543536925578 0.5075008909643405 9.036663402050525 -0.9570954657815195 0.45207835440047944 0.7005847309101418
Ni 3.747105204097009 3.5917595667127427 3.322598756435427 -0.29809292918853825 -2.4277603033894644 -0.14319810478845013
Ni 9.267365016872706 1.1591316545167198 7.56014204053805 -0.21912380958248712 0.6576159406580997 1.4802033732259992
Ni 4.200897670243059 8.011579805528955 3.566235529603199 0.1379024036071496 0.10427186003689784 -0.7498393541708956
Ni 8.673361639590551 1.599036000908508 12.769809383652508 -0.2327614549705798 1.3697595800504345 1.5703164252640116
Ni 8.914843168642202 8.035625459677956 4.171791717141043 1.0567087440004834 0.3276567588885841 -0.3929005584887427
Ni 6.795261232369857 8.713714753504195 9.69513110966278 -1.3081158390967085 -0.07947151316376636 0.7290902945490024
Ni 7.487552606104376 2.1498513887686683 6.072429846359228 -0.47084226527154394 0.3848874583762791 -0.8465256885510517
Ni 8.541535311391193 1.1961420162022778 3.7887067713289886 0.657510525428487 0.5294425914132559 -0.45387632684116663
Ni 0.9578185569351716 1.5596709380678064 10.726344316485465 0.5274921525551044 -0.4916622873406888 -1.3534238190048884
Ni 5.3968273016352635 2.992271120857429 1.567599355369009 -1.3615963275133518 -1.3747603756991356 1.3482111644556976
P 6.726734811694077 6.54983673314861 0.20364379001903202 1.0781275759958917 -1.020959354315016 -1.1600467793692022
P 4.007895282620842 4.489343944687112 6.165399911849838 1.011938381763328 0.8904113341904085 -0.21900888127117768
P 8.180462666024756 5.056623772388927 5.8137239092107516 0.1411211676547634 -1.731428177108089 -1.0966744857601436
P 5.964245641169734 2.1954679523232232 13.225646284448555 0.14075427123364792 -0.8410520670309902 -1.5817730038403854
P 3.105749248291017 0.5866382414337513 10.691273120457083 -0.5866010429021188 -0.4991066594338759 -0.16134829333491568
P 5.923366182291998 2.0812233927489414 4.034113725718099 -0.07292728428734538 -0.4498661772405091 -0.4507300679027011
P 8.965353816950586 0.046886255353897136 1.757229441572172 -0.39862383412576513 0.8242365381355482 7.044822661923351e-05
P 3.7641421595136393 0.8409736685558367 7.195288945552335 -1.551588509837205 -0.8250554344924179 -1.6226645998484246
