# total energy = -381162.31158779835 ev
CRYSTAL
PRIMVEC
9.36246530607879 0.00000000000000 0.00000000000000
0.00000000000000 9.36246530607879 0.00000000000000
0.00000000000000 0.00000000000000 13.70291434795037
PRIMCOORD
 96 1
Ni 0.05574505352877142 1.1777606613434992 4.470849539148828 0.796277591028777 -1.1044597861325172 0.47089085912129225
Ni 0.6671655189598494 3.512160262735775 13.249690409300456 -0.03339811584447151 1.453226330416523 -1.486529572554343
Ni 6.597981951625013 7.2662185365937795 1.0934348105645504 0.32730348931422343 -1.0761313715014693 -0.819845093936072
Ni 0.9767204479740045 7.713294970665409 12.1452350410515 2.1645274193029045 1.6170565096330278 1.515773299910809
Ni 7.773654783248334 7.524669386035632 3.73936107612376 0.6696561596520855 -0.05207615186994902 0.15065816061092116
Ni 5.500710402857193 6.988340572042641 4.501749419007473 0.9219214889835478 -2.2541239367158146 1.036023190626674
Ni 0.29102005683012916 8.939375314456631 6.253133337874726 -1.592261304966219 1.2907585787651834 0.676881216645615
Ni 4.3863804426536515 5.797631621447988 0.6396969825650858 1.0358979779027193 1.6806568600924927 0.14421960407442905
Ni 2.5883283801845933 1.2632867801499228 5.5005549859363185 -0.35957263376057425 1.4794783221345165 -0.9699651226553359
Ni 1.0206772216791122 7.262979123664713 7.504921138372974 -0.8548954006719857 0.29489062020115664 1.5386563751565694
Ni 5.877661973233134 2.090572922456787 11.417391385694886 2.945680753095733 -2.6320604176955573 2.914632625540677
Ni 1.84655899421904 6.665475962623974 0.870393740426231 2.439777382454998 0.7590590729969507 -1.0882569511204099
Ni 1.1045555466256638 3.2740353250540477 4.314046973437828 -0.039803248039866936 -0.4527782086809815 0.5052659941670524
Ni 3.5051103265057546 7.163999142491038 3.3903068430447534 1.0794604358747022 0.71094653376044 0.31953952909808836
Ni 7.451398734062007 5.391871745919626 5.373803124498223 0.7567792758238385 -1.2706726066485858 -1.172403501162342
Ni 2.9852781760417084 3.0987512532101653 3.1968483539236923 2.2299303701887467 -0.5017199286870069 -0.7157912634472512
Ni 2.8005380144337884 6.143162758905007 6.927179332446051 0.5697371772672446 -0.8858504542926033 -0.8551170297644886
Ni 7.05650868052973 8.240954141963847 8.586053669779162 -0.23710944752663038 0.5782719542111331 1.0487054140800327
Ni 2.6901451882874787 6.59040771734867 9.19172277289138 -0.031151485902139894 -2.1115722072621117 -0.9000262315723533
Ni 4.16462109398929 4.629018088519802 12.354327910664608 1.0468639899959198 0.609541453748376 -1.057109578983328
Ni 4.2943474105937565 2.5708112079583407 10.229417211159713 -2.798767147128909 0.8061873939433213 -1.4874847373787607
Ni 7.393978735524535 4.023978143063171 7.653529674617155 1.9476332703818846 0.65801240476557 -0.41138447622554314
Ni 1.2421088840645227 0.7791040880963006 11.82989036361152 0.451491628659074 0.19636157618530697 -1.3853998576908526
Ni 5.763009225460451 5.989693230774203 8.32521913671956 -0.3839533765977839 0.3171903121396215 1.0755577583861864
P 3.7504818121848733 0.3006343722545754 3.348389214241237 2.694218893502173 -0.7086099152074635 0.7931218190086147
Ni 6.451946220793858 4.168478429615808 10.878373671721468 -1.5276379125588788 1.7619350874476947 -1.6314135496856483
P 8.629758593172731 6.022836357273901 7.713068399009678 -1.1053609577905479 0.11212272353988433 -0.43458148316729667
Ni 2.921604050808815 9.266003634850689 7.174105923580424 -1.5483615182594752 -4.0385929435999675 -0.4071660672688214
P 2.264630511370878 3.322579706664481 6.426461590756521 -0.42070678206773354 0.2806608497550199 0.17021577102787458
P 6.021656686669675 7.146154283985834 12.48645195458449 0.9447374584367989 -1.7315531327217275 0.4748837823307692
P 6.247844481332442 1.9618952019449658 0.021900678392116707 0.7843924095554168 0.4128286648712374 0.0071291548456135275
Ni 8.122341071448403 1.8986423876421525 6.483328267605818 -0.9150666708452434 0.04662541316802292 -1.123692409109884
Ni 0.6156963032481436 4.606913308388223 8.441076833752277 -0.16753848130602758 0.4946432243458835 0.5998990455626055
Ni 8.27353552055677 2.9266597819697857 9.913236465585154 -0.2585653034075612 -0.8660671010180889 -0.463172407431112
Ni 7.086206419867879 7.1802149320665976 6.620768319216811 0.30585611807372487 0.31444694506652937 -0.6498360396023647
Ni 8.563631502080256 0.9348721014123239 12.643281671444317 -1.5256774463983982 0.04776646875100161 1.3866347585392185
Ni 5.644742566154185 4.332490093463748 4.052855730457427 -0.4932386306888731 -0.8745957073143905 0.3269229660463531
Ni 8.058601408959719 2.967938890652601 4.1005968125611725 -0.525729661338043 2.5364698874827414 -0.31077798085537445
Ni 4.755795228613701 2.073963909346486 4.641546939333896 0.4453796022240652 0.3384685047921074 -0.07930773389239244
Ni 6.469163794136499 4.799489853295648 13.21121255017942 -0.010807632138465258 1.1014353974838964 0.6547735861132981
Ni 7.884553182510741 3.2146866587033176 12.274714188576986 0.3368939612161359 -0.487643910209915 0.16177766756285042
Ni 5.765115780110856 8.524421498187392 2.831172936529738 -1.0911371008816821 1.0322616667017124 -0.8096154457882638
Ni 5.242297003275791 9.160310766191058 5.096100238044695 -1.6093360010603186 0.2402791035038636 -1.1277496098983932
Ni 9.23122207695623 6.015842595834559 1.2980851904815829 -2.4550852164566623 -1.727949217420553 1.0522537935529235
Ni 1.5449190932113381 0.26559160158346834 0.29646433029328567 0.5368789930866432 -0.25748492585918886 0.6851462848678845
Ni 3.396936404591204 8.48463102145753 1.5314923819929154 0.28745396141745333 0.5351856645446201 -1.0739827005895828
Ni 1.0749795193339844 9.011934419081676 9.217018281133436 -0.1296784730354605 0.4432828675960365 0.07436016007913
Ni 4.892552756517963 5.222233240538827 6.25640832817122 0.03627158073752463 -0.6023421077864595 -0.4797907327140834
Ni 0.07359178452699854 4.025204625992962 6.099715303302042 -0.6392708624920087 -0.33020652189363137 1.4672858938333826
Ni 2.194168598931125 5.0083102751739705 11.132425098806763 -0.4276950404601086 0.7690017860319595 0.3124785084862489
Ni 5.206532386544479 0.9825626262044597 7.050779788127142 0.9870015093123323 0.2899831555972103 -1.577338879328432
Ni 7.180598793136227 6.377112037146377 10.244860597363457 0.39944735846832496 0.004649582956869412 0.08473996065155728
Ni 8.196117296538125 3.055262602760703 0.9304839140139034 -1.7907936635505997 -2.6453589345766764 -0.9968061541075801
Ni 0.8910042711257887 2.2739461641582226 7.911363537608067 0.2765092894804915 0.045338318925483206 -0.38236469195442535
Ni 2.8359749448861487 4.8621341073661215 4.858053008823405 0.3729511119500093 -0.008371511893146874 0.3423904655543329
Ni 0.593586841884009 3.624079170695489 2.092503462763069 1.2981494719126159 0.41964105980738053 0.5753635223150866
P 1.8544983646347868 2.366962255054973 0.7568616797275627 2.2415715539721006 -0.48194763115608613 0.602049259136389
Ni 9.008386044803883 8.020898761950034 0.3777895110035471 -0.7641352019682776 1.355932444359355 -0.7318614295362363
P 8.72479697653387 5.563345294462554 3.3892516932265284 0.040163459592763094 -0.7045069487826834 1.285787093692521
Ni 5.916094892521626 8.769774258936286 10.719940164587799 0.7667381868087634 1.7959533533746683 -0.07107249046679372
P 5.47076923942611 5.92776052405231 2.640167413268259 -0.6640262150598177 0.706681330726183 -1.4071855861073765
P 2.545251678200099 1.1482876211680617 10.213659246128177 0.4609481460862836 0.6073974108221797 -1.1832689831219363
P 4.258807493025154 5.009705282475793 9.922553990865522 0.3168812655396349 -0.912288593879474 -0.06955502538100279
Ni 1.4742886563995528 6.393224839605694 3.4409521618265226 -1.9032516589427155 -0.6140799650486779 -1.5105693871123662
Ni 7.165197538025491 0.8921296394323605 3.842201201663486 -0.6334920510267026 -0.8855583769734813 -0.12329776632009734
Ni 0.41667744609652585 6.642238324213734 10.411885102484732 -0.5834532413017565 -1.2899134571560689 -2.3252984999781114
Ni 4.530262806508837 8.78549383786086 8.71524538962568 0.7177674133370154 -0.5973030027006552 0.7060637517468421
Ni 5.380196751923828 2.2126501050640073 2.178640014294854 0.9005908458265716 0.03140988176984913 0.7184798660230078
Ni 6.169087424802652 1.4019542509372178 8.989755675475706 1.0844774294733195 -0.21754643779303823 1.6340093354372827
Ni 1.2458445076445732 3.100586296372296 10.218029644842884 0.45188809276654435 -1.2174276312815162 0.4400250227803712
Ni 8.118193499403384 8.123895240657145 11.534291125094668 -0.4512990530322938 -0.15525966393867455 0.491191004131225
Ni 3.9018541481303854 3.5730911856905863 0.8432940851569158 -0.7261494667531235 -0.7225000429259943 -0.7968843713748405
Ni 5.32446199710668 3.5199498337097155 8.288056703946893 -1.4377981687869108 0.1981559490815684 1.970450782497032
Ni 7.345565428425684 0.35892227130801285 1.275376531350222 -1.0110775764249296 -0.1281026439079084 -0.6146530639433285
Ni 2.861805986132665 2.797879074341722 12.168913651568557 -1.0232442936944506 -0.49207366384649437 0.8512968846874501
Ni 4.706820173608075 7.4607424742446895 6.588799245842272 -0.7476109790610092 1.3905163529818116 1.3452284276782898
Ni 8.602832143508005 0.7252015677017496 8.32114927313498 -0.9037427611919919 -0.45467465437274596 1.0558034585773945
Ni 4.809994539152332 6.862106454925288 10.738480654250893 -0.6793397054884364 -1.2250242126818516 -0.8918992315898447
Ni 0.8792066288370122 8.539981915205047 2.3564491429796877 -0.2820749564937271 -1.5440428362794634 0.3454076551141019
Ni 1.9536562326456057 1.088910867421993 3.0713707239874632 -1.7832492755444387 0.8029262066935463 -0.870085735259179
Ni 7.1818346385311305 4.568068440634764 2.1297070903822353 -0.6117191781259851 1.2704756601464315 0.569532003234974
Ni 2.918374000344861 3.9946455398644267 8.595344980157213 -0.5696096505504449 0.9002815421162689 -0.6645448065674491
Ni 3.870639689443947 0.6364304184871918 11.963863494391203 -0.48924879280318967 -1.0999349016789701 -1.8251148054299728
Ni 5.75222366565038 9.118460547136355 13.154249439939461 0.472883721181605 0.5932018360480881 0.4635809557234403
Ni 0.6083589393391567 6.206939871254144 5.443455183705709 -0.8064861561306625 0.23526622367030448 0.7524544231962396
Ni 1.8912834900634061 8.350242197226834 4.821247285971537 0.9540615640512021 0.037788531602683306 -0.6216338661365359
Ni 3.7821643941269576 7.479626566377427 12.787860602703901 -0.5778783183171402 0.7657128308680426 0.12308822141245254
Ni 4.1838047850056395 1.3031334316704635 0.3276787889797243 -1.141695273445208 0.08001221615858477 1.0202319892306881
P 0.46720105283182795 5.825662841996038 12.857485510762562 0.5618834855507807 -0.8405946677785976 -0.18061665464622442
Ni 3.0980771557220357 5.122185938342282 2.3177653096261706 -0.13138388576234147 0.579897148519382 0.810177746049637
P 7.136267520826603 9.21902278491411 5.946228922734034 1.8051231927993943 1.1152509632107503 0.47440915668719585
Ni 3.3581289866981963 1.8101951797205014 7.963955312886811 -0.5109908124659717 1.5167050676964589 1.376011217387101
P 8.30671609691692 0.6508383160494474 10.530223852772368 -0.37424669083298123 0.6734459657118209 -1.1278216007869093
P 5.729192001472624 3.2691855681255606 6.330252899256268 1.1423025680119037 -1.172043289609446 -2.3826955498403417
P 8.992188980158552 0.9128309860435135 2.331249131881782 0.3690957427596611 0.9783363774381667 0.9240506195114087
Ni 2.887637027379181 8.271101279627414 10.38737042383309 0.4043463384318391 2.0610325466413473 2.7694583708624627
