# total energy = -340871.68324949173 ev
CRYSTAL
PRIMVEC
9.22268958288746 0.00000000000000 0.00000000000000
0.00000000000000 9.22268958288746 0.00000000000000
0.00000000000000 0.00000000000000 13.49833844830572
PRIMCOORD
 96 1
Ni 0.651896570724982 6.220150573818076 8.781330128680908 1.0642562173304382 0.2063559683938575 1.132723408963901
Ni 5.126865315719332 0.566804350135641 13.00408322248705 -0.9838562788151314 -0.6671750451014445 0.41139090398344635
Ni 4.263197353208557 9.138200246740004 3.5340404696507233 1.1033549831041127 0.7036353448110075 0.7471456093888165
Ni 5.498299904726434 3.5176904860535685 9.811213086894163 -3.4502780033305354 0.007864233239425165 -2.7541546506258565
Ni 7.490124113592292 3.394401575445064 10.339321799519322 4.138048356084828 -0.10908779336830246 0.4148449239703178
Ni 8.549792669179963 6.495429404147418 12.67920476908376 0.21594335497197648 0.3246609094850538 0.43041321072222005
Ni 8.381515480149234 7.529818568354336 5.159969236705132 0.7227473830501101 -0.7185264029902271 1.524701198528058
Ni 5.714295288213207 8.170647911915179 10.887974974836846 -0.4343043182465101 -1.2075114006090688 0.7989312266015403
Ni 2.703446915519976 8.559485715637889 7.806399642413326 -1.2946586851505382 0.7870961816398251 -0.17134499953631135
Ni 0.3926753647418741 1.8463547304825594 2.8865652561778146 0.6198456638878616 -0.31646628948940336 1.3638529847580125
Ni 5.799411487794737 3.4784940565139104 12.030366442131802 0.9555168084404899 -0.7420535395778898 0.45088664808522344
Ni 2.8537859738554965 1.3579764411077264 5.081070974251987 -0.9303760475088042 -0.22259968394622953 -0.4019901794948367
Ni 9.30283447349587 4.499454985095007 5.425967274788414 -2.0708179081628852 2.378902658456813 -0.6473058169813433
Ni 6.558208250235995 8.541713593350142 8.658292997490388 -0.4069187271447056 0.29117563324341467 -1.2173116745289423
Ni 2.446272224293303 4.00055360722494 2.0399629579541405 -0.7656187284923396 -1.8056209583714191 0.6161867269790355
Ni 5.6688182072579 7.167422214864615 0.17723979849582025 -1.2502487915765952 0.12004120705601262 -1.5806383760153102
Ni 3.5090764942441477 5.804981992134019 1.100110048183295 0.09123919522265578 1.3293906893150846 -0.8347592920437429
Ni 8.786409985949248 0.63734408927307 0.5729392830602953 2.8599156936137717 -1.7066671681133252 -0.5131369122746968
Ni 5.372382527666446 6.531490119323903 5.301553196084889 0.05041110546270027 0.17240969335539988 -0.7578475691873529
Ni 4.32543206062823 0.7796815423689182 9.3243141168836 1.1586061902679337 0.2741924684218568 -2.4691519789623735
Ni 6.788305125667741 8.631542587165734 3.936169090928632 0.5663592619339473 1.6554597920015746 0.3710107003941868
Ni 0.44629700262105637 2.2877895313028374 5.772173197205931 1.2314501708128534 -0.7545244183513908 0.7000404283708976
Ni 2.105180283094549 1.5137568861322817 12.427663296483635 0.7517928783528407 -2.011808776618529 0.482055360378544
Ni 7.564366762485056 6.089990759678501 8.891260896102299 -2.2770540631494267 -1.2446972656307467 1.6889262991901366
P 7.155100701955208 1.4848437551659692 8.93827539936449 1.1925280398263591 0.5682515938606537 0.6441410461001164
P 1.052198177251878 0.9689634062882517 7.58598474621234 -0.09260753632509212 -0.6562571126373601 -0.7036250603983625
P 3.715959860699113 2.694943595982196 3.700070089298201 0.7514884597385445 0.3405788662668909 -0.5106313722440239
P 0.5751545730309837 4.608439504593863 3.1677899543010906 0.49693150615942805 -0.8400040853824501 0.1714730404737434
P 3.4985534057489125 5.1005898738938065 6.120213512525903 0.7383892033524252 0.7420694804174898 0.14389178842136507
P 5.487841375056322 8.834856772860267 1.5545903430233017 0.15467988017580458 1.7460559543235927 0.4345586003491612
P 3.1275707285176804 3.5046864941357057 8.85909400034973 1.2300692313049268 -0.15156807401970024 -0.17456736312835097
P 0.09933113060493567 2.270626106509119 12.39507861290562 -0.8190380246537442 -0.8326728418283595 -0.42604619200277594
Ni 6.235801477566028 1.174361919765362 10.89301056319653 -0.36566640536313794 0.5653555032597812 -1.1895195920173385
Ni 1.7321962822844688 6.6383349749043585 6.275768923931454 0.14290731302090873 -0.41547021625914254 -0.21628736857495653
Ni 8.922250976699747 1.0277396052191314 10.505095028404165 -1.3863730202373996 -0.18749461271298032 0.954635177166485
Ni 1.8965722737398383 1.2475070686310152 9.933454299997795 1.8761182930610334 -0.3960969539388533 -0.34518859712476035
Ni 1.9116790388188876 6.104313596166757 10.609491259974554 -0.2574108780881438 0.7843299317485976 2.9536190341062034
Ni 0.36340254889272733 2.5895005891758647 8.765294638789003 -0.951376303909555 -0.46770397675287834 -0.07744059877666663
Ni 3.083163479521574 1.810026557316274 7.455847066527094 -0.6405985801644968 0.8230525451297761 0.5977958831766736
Ni 3.437379307599136 3.2290110881663145 11.443607881419219 1.368307163874624 -0.6220028194401804 -0.9395597708906013
Ni 4.187303842930476 3.2607555847487855 0.14850466543306454 -1.7941507529482907 -0.8597069631280162 1.2177405345362446
Ni 8.457990019853433 6.282182382073073 3.082669143374909 -1.4455189344699364 0.2656556345954393 -0.3164711745854098
Ni 8.11377158698081 4.083539365577373 12.774449326058338 -0.18481732299113332 0.8662218814283985 -1.8435316173742637
Ni 7.060973934924208 5.530348750055919 1.0060552181288624 0.008697527773997925 -1.870144849086418 0.5740370901941791
Ni 3.4567469551363783 5.634592807252801 3.6394216844387213 0.7413061198889039 -0.5151449438436612 0.9107145645241348
Ni 1.3733967776230926 6.7606923938932155 3.8108779344723485 0.19797468630869777 -0.10753150462477609 0.636286068832072
Ni 1.2837983510400865 4.246209159511604 7.383861209706884 0.8171305232183863 -0.06970492069530576 0.0544042857824934
Ni 3.524865738331652 7.565556489405201 12.133763856450628 0.28102903172771604 -0.6555387464140968 1.8626092028310048
Ni 7.205668707406018 1.683574264276686 12.866372792614744 0.0814134673814856 0.6998640506940333 0.04219103154575315
Ni 5.857403758134823 1.7036889496475083 4.075769249839217 -0.06373636181669669 0.3197894403253654 0.3551678198246593
Ni 4.248062920061598 5.335215089773547 10.703291543804212 -0.6710995769668313 0.56320580390663 0.9737279321318779
Ni 3.311277476753079 7.916968619934514 9.987865400081352 -0.019989298637733317 0.10364888174091827 -1.8009497781479953
Ni 8.039289148166157 0.714227194113411 6.917425542722817 -1.2375205453766491 2.175921520072459 -0.7315179301538886
Ni 0.655675106532605 8.426273191338872 12.292828501136142 0.6503623444194799 0.34249588078394566 -0.48323421117799353
Ni 9.114968292384615 8.211356862500603 7.643258569055688 1.0765190938581912 -1.590025730767481 1.0317469318488233
Ni 1.9155341229477294 -0.20090798605526117 3.088028448129143 -0.35783868178860306 1.2640139636814876 0.3272201855717978
P 7.89112664450625 1.761579770405257 4.83337720762926 -0.730295370600697 0.697091887265535 -0.7803586058056754
P 2.397557979392486 1.8039395823759976 1.341805377683059 -0.3808896500707956 -0.5288142138006376 -0.5497003132210274
P 0.9856195831702804 8.356171529943357 9.703860983402016 0.22525331951899272 -0.25634746982063594 0.5451453468604934
P 3.2856845139360082 8.47632472618869 5.614593405498272 -0.6152572731862307 -1.2396717873916971 -0.11762051342966194
P 6.570123964816051 5.442170617625643 3.7876201565869114 0.13566528674651473 -1.854830587326851 1.2743834798412697
P 3.810492426059464 0.6029646703566035 11.226014205876158 -0.32741533230173936 -0.628718026676827 2.28805709912815
P 5.371045237717446 6.272747570915645 9.222834099670964 0.6683906626761005 0.8369285317809199 -0.0974383820548322
P 8.806247990640967 5.371460258736101 10.81110201495474 -0.1759778703226324 -0.36770683283193445 -0.6115877947544435
Ni 2.2094612310486457 3.8607284146953504 4.780287718922887 0.10681673794593863 -0.09096100186060464 -0.017480930393582797
Ni 4.522576267178754 7.120238936388171 7.418565267286833 0.8493071079509308 1.3089794726485842 -0.4309978795810965
Ni 4.8532742375325215 0.5497645093785889 6.315615553067005 0.030416407508328264 -0.17749713518063623 -0.17283701070080554
Ni 6.0212356109212894 5.190667880320592 7.281692257603277 -0.32635783757150244 -0.8973625686972609 0.041675011141283066
Ni 8.851651290081845 2.9632039597516138 1.0570022761100446 0.6980452523177397 0.6239815404331059 0.5470772737758836
Ni 5.723923775846008 7.0449080101576 2.8137558132028064 -2.1023745999232437 -1.1244022906927151 -0.9703405037168839
Ni 7.803418869230451 3.3329692419947907 7.54774378728452 -0.32292695751308254 0.6547969831520658 -0.38452313305832486
Ni 7.513881761237977 3.5554205079939782 3.131466392479457 0.6352949085633962 -0.11351960388741096 -0.3337073359580382
Ni 8.109307805357941 7.734848174259309 10.36658868044497 1.0921732554556802 0.715940901651238 1.4609622656082002
Ni 4.673164338125468 1.8984444796684385 1.8992699103610973 0.08807982365806767 -2.2992614524844015 0.044816384983742165
Ni 1.6320102083811034 3.8383357250665764 10.227474557260676 -1.9074602977074249 0.4740854547991899 0.468835005033528
Ni 2.941475303752688 5.74540341923374 8.383196776409255 0.7562899948922459 -0.7769997166357715 0.042370237436094776
Ni 5.623617806981698 2.1948156004347688 7.727865676187668 -0.34247634039991987 0.904958635876964 -0.07133165766545135
Ni 7.603185061763273 7.838833996155695 1.3484715375115917 0.6262523387451538 0.3920731774914409 0.14895094811182732
Ni 1.1594119404044714 9.00402856275343 5.578984602097656 -0.5118212787870668 -0.14505984058753726 0.07893569526495438
Ni 6.7098200396953915 3.658105930698578 5.436495896897231 0.1653502154054572 0.3630575069853812 -0.14631171071676738
Ni 4.999287854584724 4.097935983580056 2.6192981760463776 1.314525342167478 0.8575150976830199 -0.07402051735152412
Ni 6.55972077128176 5.854904409333589 11.534168234496574 -0.44393078559268057 -0.24788416954463116 -0.4181853011974604
Ni 7.149742319469904 1.1247346286235036 2.012156549704242 -1.0702574292191955 0.37685070411473165 0.9617576471438792
Ni 0.3879090789098517 5.324424543288512 1.0531656373598097 0.5672254665889844 -0.042511648109965494 -0.24956695656369277
Ni 0.9795971670551282 7.72803260686406 1.4413661532516504 -0.9888308492115874 -1.0976880146263226 -1.0503473205588298
Ni 4.4787684929873715 2.9206043578589838 5.775790335950743 -0.358150299491751 1.9542376630722798 0.014842721439787343
Ni 2.769379921350332 8.852564336322889 0.4807455917072987 0.5762379545002398 0.6878019773231767 0.8098707563321794
Ni 1.6191353341134886 3.659203430725688 12.856438111697068 -0.20956984734546488 2.5692013162774914 1.1750908181865183
P 6.485847029961135 8.52392302568379 6.228889071933094 1.0331042172076659 -2.122171837154829 -0.3009903053409913
P 6.666122937775651 3.1088302238530723 1.0177219200977252 -0.9282967963822721 0.5804291097634521 0.11658847262072178
P 1.7779039304723614 6.533343879873897 13.042444998644747 -0.6488533639741213 -0.2192716480142611 0.23426503609929977
P 4.870852683344895 5.0722762177322185 13.013450708012565 0.4035750074834534 3.2117742465595396 -0.8924437912394049
P 7.353914215269655 8.5581760937568 12.746952800169035 0.37430171244063276 -0.02764270141793304 -1.3050523696800362
P 8.854095302747261 8.850609126190555 2.9016166851210428 0.46663774027189314 -0.005693707950667613 0.3363054357025176
P 8.642720486601515 6.062995948087306 7.196328889948415 0.06569142866053848 -1.307261204405897 -4.649475998977902
P 3.43533187057377 7.448741906687717 2.648401294412341 -1.6709571163062253 -0.31631665128541653 -0.8784693313371837
