# total energy = -381173.1263452334 ev
CRYSTAL
PRIMVEC
9.18135698473327 0.00000000000000 0.00000000000000
0.00000000000000 9.18135698473327 0.00000000000000
0.00000000000000 0.00000000000000 13.43784401293925
PRIMCOORD
 96 1
Ni 0.028333667267602388 3.7008121414639996 12.988670903995793 2.9353806567213057 0.8047959129124334 -0.21930584368630618
Ni 7.408951005701669 5.0915673530736365 5.015258341809468 -0.2887127735252189 -1.42113664897083 0.5564543441154094
Ni 6.0455011493914 7.649419923201919 1.6689934768217267 0.38269327893843774 0.8448930380436352 0.3706222067065165
Ni 0.24441139213560678 2.1573342398578306 10.859726337682408 -0.951696149142819 0.11693377177528248 0.3474969335429628
Ni 2.996987687348684 0.22053802803022124 13.211685143970952 -0.7240085091507208 -0.9645130984018293 -0.9466359610110923
Ni 6.964297893008869 7.056340995522709 6.384427265307354 -0.7880839994743911 0.6553574836412261 0.5107550423060817
Ni 1.3274589374220636 5.884974306064518 1.2109365012501272 -1.073145806510584 -0.9483614283426312 -0.029220844538330324
Ni 8.518866873700993 5.1204886271802295 7.365080646356868 1.0251209418918732 0.9821148706439925 -1.2034022635367019
Ni 4.939221098708333 8.042721706981014 13.079671922506112 -0.13570925261057273 0.25057534322354913 0.6407944982253868
Ni 3.506681532032313 3.9316865410463486 6.345511166123797 0.6635353914663282 -0.7973088605067689 -0.3602362354865022
Ni 2.6783027907646013 7.053145883335695 5.502541412535387 0.34463632416571616 -0.5097553973969736 -0.8075732185472545
Ni 0.2227727702897593 3.4099651188771203 4.837946141872529 -0.1729730220580376 1.2023447688064648 -0.8295787762840681
Ni 4.002860419419147 8.61001020324263 10.989737105216248 -0.7731906273023265 0.3962854158005756 -0.5296837608897844
Ni 4.53412127136512 1.6463090984296123 6.073018594034216 -1.4803864357710828 -0.8372450345800742 -1.5052677723937948
Ni 2.7389823782472917 2.5730201716597416 4.583648264670898 -2.008801871471405 0.3844238884762992 0.3455207836531985
Ni 0.7335748047462981 5.9547526181947115 9.794508069280901 0.6615697830995252 0.6321414505360791 -0.7132713252388748
Ni 7.495990268727227 2.3686707120437256 12.844724673021005 -0.9673189432817404 -0.3904412983149727 -0.725572511203731
Ni 5.046303263757602 5.776101776427697 5.202085181859632 0.5408971131071006 0.9560500552361405 -1.8404563208830496
Ni 3.5456839359703474 8.767139944531596 1.9719764169051441 1.3907598364511855 -1.7417277592618845 0.7206704459164234
Ni 4.966553998078278 8.376399759316229 5.351016889608985 -0.954353384260008 -0.7134248200976037 0.2623150002579805
Ni 4.5911283161041165 4.265401318809 9.648653952350763 0.9751901184997013 -0.8608529038070013 0.1842514231853343
Ni 3.016562340172575 5.869255823121505 11.196465454394492 -0.5866511794137639 2.07567035115918 -0.8586651521270631
Ni 3.0242471358637557 6.872107888785279 0.024230518887209805 -0.5171843428711932 0.9344543313432357 -0.005855687449828625
Ni 6.327295354115073 0.5327978110842105 9.497935552556603 -2.5766487736944717 -1.5854463389269147 -1.1894378309368097
P 6.892215060307006 7.024408236366287 13.069754220826765 0.562961806216624 -1.0488293412524066 0.6153200081033662
Ni 1.9331163239984275 4.015457241030018 11.027444019701445 -2.2872885963932412 -1.7330284317156734 -0.37788968690220726
P 6.039533267432898 4.27358190777058 6.774944343551042 -0.5858945037533975 0.45390538030688926 -0.5847333935657607
Ni 7.14695180636651 4.261517604857543 8.79924806760403 -2.250005029451435 -0.16711013551935736 1.1103622676598812
P 7.420262437352248 1.0627971445977258 11.114010442848752 1.0823192454797361 0.32094232298288594 0.8787776066062221
P 5.002058305052945 7.999697868738634 7.583338025343254 0.5322764613176253 -0.31908701494170205 0.319096785133715
P 6.374891508073352 5.562607685379882 10.531009890593925 0.26744023729968774 0.4155059545930844 -0.3625180895421434
Ni 1.9925747910188398 9.298602786328473 4.526174807003452 0.15976063713282163 0.08343049781151438 0.14161559079267869
Ni 5.540664242486308 3.554773479260991 0.003701004949958043 -0.8431220621861415 -0.35884989666193684 -0.17856002922751182
Ni 8.294740771410185 8.860174633586235 2.342955567752377 -0.019184543348250833 -0.6471263539806855 -1.517625265517883
Ni 2.9323142096322257 2.9344901912078645 8.546118977130579 -0.3280056575875706 -1.3566104442629863 0.2959514573655032
Ni 4.1633229932480145 5.84467733080933 7.203879891436517 1.3646687957910886 1.8448973873735386 2.503220895621624
Ni 0.05863765371719682 5.525028391755028 3.377897393774867 0.585733809805817 0.1316872759353732 0.4077224539929236
Ni 6.982192357527519 6.985763905345762 8.802526730138464 -0.7576737626136499 0.3483353702838582 1.0306498421299024
Ni 4.426974836817836 5.067558104886734 1.3445500332155316 0.16532578992542496 0.6972633798463928 1.6211201381794405
Ni 8.479836925692382 4.323739660292587 10.836586563990075 -1.114710517326248 1.5834305940484665 2.2062903621723033
Ni 2.441937939780429 7.627834553225856 8.797514627429006 0.39757405270501206 -0.24105917620299774 0.8667139905734687
Ni 6.930244240417961 2.423455868422787 4.874241881808461 0.5902993176893123 -0.1352575097851348 -1.5081520359201253
Ni 5.269896847350577 1.2294204088791412 12.730878602373537 0.5207715460018193 -0.5096258137976448 -0.4884941740253523
Ni 5.432388501045336 2.3020875121005457 7.987280083586517 0.8496272102945109 1.5233140883725442 0.7677126349068907
Ni 3.837540907811742 2.0218174126155066 0.9536959991751099 0.011317739005664379 1.2070378034067601 1.7848089067220745
Ni 5.826608420510354 2.892402851365126 2.4155057315183743 1.013479758108519 -1.0021157392459514 -1.6979441864180307
Ni 1.2840678449053142 7.700872247041079 2.7224669535288983 -0.17794425002038386 0.4702830503339643 0.2267378744843192
Ni 2.0941297792388496 0.9828734331380761 10.21503257614763 1.062370313161635 -0.050270466119777944 1.4546095839172948
Ni 1.6365584974451035 8.00550966763053 11.10604194323062 0.30114662841319745 -1.2555542629499088 0.44812502617968625
Ni 9.168631498629129 1.458366723521051 3.553987555113841 -0.07911747225845729 0.26857692200729233 -0.5160538288111758
Ni 1.1958533682017742 8.251303772109138 6.9697121391487595 0.18305611732565247 1.1887762860934108 -0.6892189122753614
Ni 0.07937925699789693 6.724040146716379 5.696557255006333 0.3679955677169469 -0.7164252974868242 -0.9832770092728937
Ni 0.3440034062591118 3.6524263908158257 9.114096993292323 1.8878769762588583 -0.243259012067794 -2.5877862783685304
Ni 4.848591925150814 5.601417280823872 12.305571526718833 2.4282084466704763 0.04324158429745456 0.6004762582223143
Ni 8.322358292842766 6.916536474627122 11.219631854021715 -0.25583582029154 -0.772731942498353 0.9046614163515193
Ni 1.9877821227383188 2.2886276429449057 13.007456878265478 -1.9712930758926697 0.19959628107252075 0.5974420993816807
P 6.625983255459739 0.8371230655404479 1.6110903316532688 -0.6575532057409643 0.6053639253319187 0.011711117789341122
Ni 3.6609099645537597 0.5027040777066926 8.564327444053816 1.4073053995146925 -0.49723849587688557 -0.8315099318685099
P 4.633656361076099 2.0735819025878794 10.037733230110295 -0.6997205831376336 -0.7063607141619705 0.2710518659103461
Ni 6.303093297434126 3.4398045286696375 11.124653471719979 -0.6168742399643634 -0.6707722755343997 -0.02479880421123471
P 2.6507679015437526 4.9423703041110505 9.13176743270361 0.27496457070119096 1.0474658852459768 0.9730069948054534
P 7.873243040716376 3.706100603014919 3.0988070986462395 1.215824034239822 -1.430516547523833 0.6793209364353592
P -0.3417604007784005 8.327380495044768 4.294842257713826 1.340544391939059 1.0462592665323853 0.7938237301716458
Ni 6.512914845738247 0.2987925688128618 4.053633322850722 0.4740538302303061 1.4790445770312077 -0.7630059734598408
Ni 8.90973559791239 1.603239353402936 1.0182234933175067 -0.1933821818420089 -0.186226287523518 -0.012030191691656702
Ni 6.550686947857145 0.5675015037407508 6.6154908008410045 -1.479531543969955 0.5072022919578169 -0.9498794076490544
Ni 1.2654847786222205 3.298310638111951 6.8737531879344544 -0.4981622932427356 -0.7682132286923932 -0.37567288175654656
Ni 7.886069396248728 1.9822274018384811 8.91294540027038 0.29200609956451 0.18030298006054757 0.6007768201818685
Ni 2.644937739938138 5.636636965735901 2.9938706166949736 0.9233551361062807 0.14463046635960253 1.667670989355786
Ni 7.484632930292352 4.349465822212165 0.7430903629952103 0.5011388593725563 0.525007695570354 0.8544102335054512
Ni 6.235619505875601 7.9687750588367265 11.200872505686926 0.20408208475801629 -0.10591890872201759 -1.1999384733578173
Ni 7.810672093720682 2.9424687903185403 6.830066455726837 0.3725767593297261 -0.18110259314370747 0.46988375801301663
Ni 2.7834752335871498 4.544046318129955 13.334359089238577 -0.8058053280135542 -0.7502319616236242 -0.009223318370480888
Ni 7.5190079303733315 9.21762321883001 13.058412490698553 -0.02795637600360992 -1.3680940194225537 0.6410140704353605
Ni 1.0114825411114556 5.942541413571928 12.350802563150172 -0.6929315852402582 -0.6396488146567176 -0.3133953638735634
Ni 6.96715329499209 7.2883997901399 3.9997874192783596 -0.09003514761222559 -1.3452273992370252 -0.3162719140904101
Ni 0.4895554565485806 7.859535274925537 0.2171969322691453 0.5765387735701103 0.5042203265113575 0.3488958707730185
Ni 6.568195795387708 5.2464109365046525 2.6528052446308172 -1.343951360738079 1.3244917093515705 0.6274494443770484
Ni 8.260237232333175 6.58162812047277 1.4962903180281253 -0.739872729876487 -0.2513782987408187 -0.5625743409702182
Ni 0.784374334112765 3.4816623345908946 2.0456962855350076 0.3794153795181143 0.19554036583559226 0.09335598445534243
Ni 4.330111521952896 1.3781583899987648 3.579250058512028 0.293575758044475 -1.0719273607224507 -0.8128766330380387
Ni 8.845126389693947 8.851231992005339 9.983001325601016 0.30136748617475195 0.7529218497509614 0.33547496938142224
Ni 9.235526864705522 1.2613256239649864 5.8561319916269134 0.08692822655212772 -1.1069442431172676 0.7905129206308579
Ni 1.7886935806026447 0.9377378828180719 1.9460950900546434 -0.4354795695015339 0.6760499789935711 0.10017429292875651
Ni 5.037121906898367 3.5690229451065254 4.375120369548243 -1.2343956265944225 0.5830115257786476 0.8866207567997246
Ni 0.9286667022411467 1.3677283686066726 8.324273523883603 0.02885626211005998 -0.3230004910634953 -0.7461716755113214
Ni 1.8695537904619364 5.550451568898254 7.342518380010981 -1.9259452438854894 1.3086920233151524 -0.708087209934774
Ni 8.168267580674208 -0.09730218372281157 7.743866704941509 1.668324306669069 -1.1618812614747795 0.5540033114717555
P 3.111240492105017 3.501558334904859 2.6709999395187647 0.7017494406422043 -0.78390672816825 -1.1703018814383073
Ni 3.7398237267588934 3.0110259819864558 11.896698161706475 2.618654942922929 -0.9050439965019188 -1.2612328013919247
P 1.903148375209881 4.985513499992601 5.125354746315625 -0.7633857253967626 -0.27539908713544825 -0.06049317228905065
Ni 0.722903313668808 0.48379507325509596 12.315004452756012 -0.6466854097885251 0.3942359894707146 0.37005373579755624
P 9.035354922460458 7.0604266993250695 8.082311717758039 0.016787503870983992 0.08717196713181762 0.3180128080409168
P 4.784809039049701 6.675957380844561 3.108522810474683 -0.8879772708276191 -0.09734273701723235 0.43773905495967197
P 2.426146005982543 0.795575589481033 6.725856219103137 0.27609868430563417 1.3674360741235803 -0.7882174397284619
Ni 4.509340789202042 6.529891174570975 9.567113403948204 1.20044369512901 2.2082161184401063 -0.38316121971379175
