# total energy = -340887.7810463551 ev
CRYSTAL
PRIMVEC
9.10786758533636 0.00000000000000 0.00000000000000

0.00000000000000 9.10786758533636 0.00000000000000

0.00000000000000 0.00000000000000 13.33028484850784

PRIMCOORD
 96 1
Ni 6.769449749644198 1.886057175896122 11.10953890798628 0.1013261471450126 0.44761697619501617 1.184797761061637
Ni 5.035967568004459 0.4211796649292656 5.586348707147118 -1.597851654569803 -0.14213521074157456 1.1106330048227646
Ni 2.839641782131143 1.7870819811382355 4.586257508524804 0.6912590826338417 0.21192086407614472 1.3017531301034742
Ni 3.570721188408938 4.3846730799266345 4.724159728440987 -0.18616200994448584 0.9208832775270205 -0.527033467751131
Ni 3.935026775518601 2.881337598971265 2.7019690804727956 -0.44591156346813526 0.3645091518302432 -0.9418989605467392
Ni 5.312518852961527 5.11647200772701 2.462862970652204 -0.5054629406692069 -1.5211607894749675 -0.9870153932694035
Ni 5.96185514955385 3.1599108304854564 13.139701672267307 -0.931883485292266 -0.9706274388296832 0.3535238564633331
Ni 5.820327998422645 7.981961917466773 12.604384034975212 -1.1594963061823709 0.293625637445804 -0.9164383543817894
Ni 2.2963939247161336 6.985051186131608 0.2652793882944795 -0.6868843506049138 -0.267374674169075 -0.11182293291127839
Ni 0.6866703557468318 0.6733145790289736 0.2514691289946374 -0.14222879889664536 -0.9121482116468678 0.8276543055678456
Ni 8.435479065508938 9.225176706208538 6.753988233989372 -0.847244054774315 -0.5301912966538224 0.14374780664433306
Ni 8.85221864509317 2.9260207963101985 1.4309525265705947 0.5341682790236993 -0.6099224912368786 -0.4313799455108635
Ni 7.244251983740396 0.766638342081029 4.750513342688889 0.9005656490155909 -0.14906896174693035 -2.3622169702710156
Ni 1.249344383484754 7.95154164043619 2.4398419250766046 -1.0748946708808906 -0.9204148225310341 0.4207245226795464
Ni 7.776697910449337 4.183188837869584 3.5925782485340854 0.08084011137651884 -0.9634754011659343 0.3332620208905035
Ni 7.958035549874157 4.290406652601326 12.626352211082326 0.6384594223343069 -0.5590483300948307 -1.4257641204405123
Ni 8.562497383912682 7.446701659739135 8.810278737407415 -0.2491473525277709 0.5518312435211012 1.8976654231041898
Ni 7.258551335518245 0.5539951409168318 0.19696127511891057 -0.8841100745627289 1.5527521911280033 0.42508099987602915
Ni 1.8993000150585375 6.550387323554505 9.014564559468838 1.3045546041080114 -0.18626999627725985 0.3784805264086708
Ni 0.2722860706656254 5.2583816892879405 0.9522311771431811 0.39199655861723454 0.24135228196338435 1.8122042680158919
Ni 6.59735659560442 2.019951934167558 6.526160396338532 0.40779881575681376 1.3773211944477766 1.802963209033598
Ni 3.740983661106456 3.9572317561774515 0.5424909936361944 0.268010507980861 1.240071336822961 -0.5286224095048058
Ni 5.967793479081976 5.712563711648438 4.680515738769476 1.1158680279694588 -0.7159658413519024 0.5784956401861651
Ni 5.67587722186425 3.0677301047888914 9.295100536402218 -0.7207046415884685 -0.6381688876770816 -0.8849785932106113
P 0.5056451161729543 6.074555900444997 12.342123904715352 0.29322428824232727 -0.8390952004149357 0.7198908874379215
P 4.2480550693102455 6.0552654373459625 12.908421042094822 -1.0537018388533594 0.663602754369154 0.1849530772380492
P 2.5058384428584324 9.101528298733331 1.2349348265116749 2.0550814712642347 -0.7272776668202958 -1.5599451093320165
P 6.716906462761135 7.902805442115637 5.688512566272792 0.43784781262339434 0.3474036024982082 -0.3294084514723682
P 5.069921697576318 1.0675695664259612 12.448420003268803 0.3415255464508763 0.4250144083041519 -0.389610060662929
P 4.235786771956894 6.282643346348506 8.295502984191598 -1.0825930679664129 0.4873510615598446 -0.46437259838680023
P 5.06101420328413 1.086340881084653 3.4063405764618238 0.4001050466569819 0.3363486302356272 0.6734325959753822
P 0.2978846427081869 5.989770763056466 3.185125050524817 1.123000268138866 0.004541596624095404 0.8096241875390121
Ni 0.9243574598304879 0.3434075854190426 4.548972631854117 0.2553177430045409 0.24459829970450778 0.2969045653073919
Ni 1.9742031163458165 6.6509472872355415 4.547280390095948 1.300842959584379 0.47605029183504466 -0.10859465578196781
Ni 6.4820418867768135 5.790299359689163 9.221050842287923 -0.5597145029239199 1.4354643784474117 0.3735962017331759
Ni 9.075279424960238 2.7232432370859794 10.051060814773471 -0.48041191123785004 0.37361265679340816 0.6258602455130576
Ni 2.5703767910736146 5.504366971336436 6.679086043488831 0.019858943707456122 -0.31121506839279306 1.08411876058232
Ni 0.4976912155948681 0.4741956501290615 9.273758981570465 0.10341979644924769 -1.1375773946220926 -0.8634312060571389
Ni 1.3267885797694978 1.1131453347675886 11.295576206976303 1.3586760685427632 0.674865985987799 0.6481511957007741
Ni 4.457754607739028 7.459170330174724 1.4688503627155811 -0.21306731897576206 -0.7619963012484038 -0.09995652049099558
Ni 5.85348974353293 8.061400736706515 7.847618141333778 -0.6367882052794711 1.3883838800198411 1.2980286300640356
Ni 5.327610589200951 2.863103648487664 4.61871703706052 1.1708055605476029 0.38533534454697504 0.3216087529222913
Ni 0.935414410823041 7.513908613095025 6.910339350059193 0.4868887772114453 0.12882795210970716 -1.1885418014851012
Ni 5.415410430690417 4.787286357213133 7.337828034718723 0.4332941318144409 -1.1416559355668403 -1.7548046470505003
Ni 1.0549369543776326 7.6399614975570795 11.100194236060121 0.23502042620808558 0.435681658210011 -0.4389495303280053
Ni 4.705871130753139 0.4024356738726971 10.351339005027656 0.5996115962291738 0.5767010101795874 -1.001472706345314
Ni 8.780721886203928 7.613211691078391 4.670571769170078 -1.805436610274755 -0.6828099234252241 0.0024479473198603004
Ni 7.362472102260444 6.446102242117329 7.161335780737097 0.7464629814994951 -1.8278028937850972 -2.586760408207178
Ni 2.6027916910591964 5.517746428509467 2.2856375333469368 0.18256812194564043 1.2018058655838593 0.7021446191980939
Ni 2.6202879042854685 5.408798118976585 11.507981692802028 0.8227578967074927 1.317116499933422 -0.42641797351989785
Ni 1.1125624312556253 3.8751516553991245 3.7931189155311453 0.7617620737504107 -0.353613587963662 -0.13891876068680592
Ni 1.7091186364131494 1.5506053126286408 2.458171508167637 0.46578824778740424 0.9161557901443641 -0.33662373827388475
Ni 1.30113171737574 3.5933997781712588 8.080631998667617 -0.5059375663127803 0.538228565136002 -0.27810388766112104
Ni 3.9178311219156847 2.4044223396441997 7.045642184626714 -0.7841833788684043 0.746392790383192 -1.4295361858884348
Ni 4.698448218842982 6.94155201155135 6.081408659857515 -1.9117406702503332 0.6401216405280782 0.3420708774313851
Ni 8.472885076815706 7.471502382599698 0.49774313043890234 1.4293947752145642 -0.012179315675011283 -0.5842217440366648
P 0.300341945325807 5.636494803337232 7.856216878921973 -0.026709905191018516 -0.33713538780298064 -0.058075306876177395
P 8.771076654654411 1.926960608274669 7.886943180296337 -0.8576467381648779 0.8331284413085395 0.1536241852177806
P 2.1469429289691786 3.590212024590209 10.449903434966958 0.13616099543601065 -0.8851634555279079 -1.0404100068404598
P 4.148415000234026 6.400362532162962 3.6703339338830343 -1.7729638344580305 0.8230206634505762 0.9446562115769022
P 7.059936071684139 4.17247798583726 10.434173237224584 2.5857155118824307 -1.1829270264014855 0.7498246988828764
P 6.582601850457849 7.890109074995688 10.04151668055181 0.028844177925201935 0.8859481562127323 0.49776042981862656
P 2.717022563669247 8.914780586088103 5.808045128481495 0.09455154742534039 -0.3527504686324183 -1.833080597244269
P 6.979103748736108 4.078730706952293 1.4619056138425812 0.6011941102249453 0.4865601902274329 -0.009777133991421872
Ni 3.0374555536363 1.7950786886929815 -0.2689917550362955 -0.7285691319382098 -0.3602316075008119 0.868668286086362
Ni 1.510457833242171 1.1849244375454393 7.039896941886927 0.7212201477723063 1.0541119298075845 -0.7800724420238243
Ni 7.159129855259011 0.8342478631748674 9.01441792280411 -0.06817871385876645 -0.5496941425734405 0.039235805572171135
Ni 2.7073409006502316 1.7936942928520687 9.206907235042179 0.43749120061492397 0.1449755084038471 0.4061723358969843
Ni 6.751006318210985 2.080938214106714 2.330760640680055 -0.6591238926621938 -0.05140123729011148 0.45220382423475025
Ni 4.368306242254792 7.035463232049056 10.384437905853057 -0.17323321769795974 0.5481280836379012 -0.5148641793784487
Ni 7.639733800872719 6.691923582553084 11.496690669617953 -0.061200996989352656 -1.5549260588508707 -0.3614672796801258
Ni 7.790332387908852 3.9830798837860724 8.225865141033475 0.6895151033595416 -0.14511897596024684 -0.7939931658699745
Ni 3.229859251921048 8.647309844903337 12.183386527393433 0.4629165826665641 -0.135271907962838 -0.10128680926664492
Ni 0.27360944379512947 5.1783599665362345 10.335983140634376 -0.31694734289087995 -0.5292998951878045 -0.31817247354723266
Ni 8.675207242671203 2.966168275696668 5.779558451694503 1.903998564411069 -1.0109647049961492 -0.15964030950487343
Ni 4.282136709025348 2.980048665575293 11.397513280204354 -0.7360566985645065 -0.0008883161422242766 -1.0102771920108213
Ni 1.4705744820095599 3.7258008461932888 12.552422740817372 -1.4538734770822186 -1.2110016731505142 0.6979606630237334
Ni 2.966186491431417 8.427473250086818 7.837473798652143 1.6399871502872725 -0.4652233764228697 1.1164830358456383
Ni 5.609617486715302 8.05056237453095 3.7374789537407773 1.8097018133090121 -0.4913133886417022 -0.6060779206798078
Ni 3.3973984722736126 8.679797607827913 3.5124763765494844 -1.2779485714847088 0.23093931416017646 0.037963623727966876
Ni 3.651507972020096 4.126710952280769 8.695371150251445 -1.125953437229919 0.7619649337898361 1.3354489796940225
Ni 5.4809415364494125 5.186320242621481 11.331514940849052 -0.831720248107103 -0.5045491706056859 0.6522549334565024
Ni 8.230643128258098 0.1507251863926373 2.3768965428652096 0.3453320646811601 -0.443227845988385 0.5749632015528743
Ni 4.653956286718913 0.8103706780660725 1.2752207454822355 0.012088298623101762 -0.05048515323374531 0.02462036965184147
Ni 6.286131659552911 5.800554818352767 0.24459633227389566 0.3562248003342639 0.02458540264884798 0.8128786899205678
Ni 8.215241724527944 8.926220067510382 11.534935515509906 -0.08026624115091983 0.6982743376094103 -1.0881278817417133
Ni 0.2247475569048092 5.383860778105406 5.562781189529054 -0.7443875870277051 -0.5343731959456539 0.6458742267411391
Ni 7.369330326393387 6.384278038379725 2.836244547600482 0.16336172422051864 1.1661894019318304 -1.2214727478851672
P 8.988262860064971 1.969640074791229 3.495280722946568 -2.119811050232136 0.152939243335614 0.8530092393928665
P 1.854407336769992 3.7227861420923536 1.598860615551824 0.32894308180017545 -1.9696478269797628 -1.0118892736929475
P 5.28194374218558 1.2435973191714913 8.026604129402521 -0.36686505365692945 -1.4739543069924939 0.9779057176586513
P 8.712840950662331 1.9155666661892623 12.256489914087526 -1.1230514330917756 1.2555750888855148 0.16867362335173533
P 6.6329592491710505 7.792500060343965 1.3341878112244814 -1.0222459343369235 1.081091286609906 0.994864714110493
P 2.0707282947799825 3.3357655337508723 5.9666222073376245 -0.27460590181019157 0.5420739070240213 -0.007041994448445936
P 6.976999831372615 4.198307897711131 5.800313459867344 -0.4748984376187885 -0.049082102238631596 0.4043116285391618
P 2.5143998381903927 8.835323551113612 10.014549196042873 0.9864654343032043 -0.46516732637395375 -0.05060908040611929
