# total energy = -381166.0219783579 ev
CRYSTAL
PRIMVEC
9.22743412270458 0.00000000000000 0.00000000000000
0.00000000000000 9.22743412270458 0.00000000000000
0.00000000000000 0.00000000000000 13.50528256191145
PRIMCOORD
 96 1
Ni 1.8239130407868727 7.727339203585877 6.238778793255628 1.339928098511299 -0.5490788775869446 -2.441103043244957
Ni 1.5670766454389462 4.317959241584803 0.26791946621278206 0.7277494642503918 -0.21200185382572523 -0.7657267148251136
Ni 5.389734917235339 1.4280561262066456 8.84613511419274 -0.1591469148082227 -1.3108468648746263 1.0128002155429912
Ni 1.8337310304631749 1.8435121104038517 1.2732345491531984 -1.9921596349290336 2.3168729949185773 0.6633474438252382
Ni 4.127569597796136 8.657658317452848 6.37106328573633 -1.9340051380754886 -1.8177791910005083 0.5229677823221897
Ni 3.4268474943856964 6.678484473758588 7.733975574051286 0.014332100351955963 1.6346752511560558 -0.15361467213608382
Ni 3.4923438202526067 1.3571802063723628 2.60512881839213 0.47645575480357955 -0.8304753199564083 0.9547259371080784
Ni 5.695679715832588 6.843932363698529 7.962336108364374 -2.1494538127992335 -0.015382653103657377 0.4743001419131574
Ni 2.179944350627513 0.5866101192648024 7.024070328417298 0.14806880261719013 0.9316001497238923 -0.05484882951907973
Ni 3.463895641519487 3.6491732869240647 1.2559414152694035 -0.2647441785247634 -0.8909386674487882 -1.7040379580205942
Ni 0.9292671864016533 4.273399963251285 8.322671093378913 1.2956714426857685 -1.5085104477008084 -0.009014544793784475
Ni 6.51397778207709 4.712053716288928 4.238160393163129 -1.5766336257312912 -0.945621660813965 2.521458501675574
Ni 2.09702662954551 3.6080281591358774 3.732535770320351 -0.4211459264876812 -0.7241152099319142 0.7274977532509019
Ni 3.8210619257306027 4.578071375969466 5.772617136999918 0.5968270915055012 -0.7491132746381486 -0.0950768238011911
Ni 8.47504740044719 0.9281691217668036 12.543287366455996 1.6657303206896474 0.8925152679072886 0.20733195915388164
Ni 3.3091977120803846 4.596157146425812 8.104357389103003 -0.28766813431078847 -1.9214183025494134 0.5120974152665891
Ni 6.601804497997244 6.056573883341848 10.310053662276214 1.003794155389639 -0.49724518074510493 -1.0683560984314247
Ni 1.154610349827381 7.762541863938408 0.42950567506293696 -1.0431500314794422 -0.6906502454052493 -0.47242323660541863
Ni 9.080597750548062 8.703684757777467 6.874134677617236 0.48706541199862563 0.8940728422023957 0.6712672128929471
Ni 3.2619255681784147 0.24209556968261367 0.5336381894389117 1.4370317229345315 -1.1358935791617664 -1.90298503554489
Ni 2.9462089170743946 2.01245719779428 8.88625968779089 1.8801508112591943 1.0074626053801616 -0.4791338158563748
Ni 7.512884412169581 7.8138463964574285 8.48531476615473 2.225620172849167 -0.7423211914169796 0.9007685090550164
Ni 7.800125202238763 0.8255637477023213 8.758121081364287 -1.0028371907930085 0.7367424117776216 -1.2237031798775828
Ni 3.7431177915240945 9.013366667106768 8.848228818946078 0.7815726807184346 -0.8092151250260516 -0.4639370535112784
P 2.3316895012166 3.5242246043988703 10.771326624048367 -0.3797969312272491 1.2139728399636962 -1.4535189219562776
Ni 1.4057441910212147 7.995580707241988 11.389058109648946 -1.0432225365885905 0.8065766589619399 1.4334257507508281
P 5.930130356523833 2.9930565990166746 5.731141667077885 0.745902995230967 0.3154872134055857 0.13152298244336705
Ni 4.221661741338667 2.499573433707804 4.372659469781344 0.6951293642225255 -0.006600793145969276 1.3253890243548594
P 5.216572892549731 7.919500514684553 0.3348525035389031 -1.7793558540273031 3.692201584416358 3.4265215243408855
P 5.252356881238359 2.7486587845744395 1.9443153666264337 1.1748838443820349 -0.49614089193733263 0.3954654910024415
P 8.868615911418656 9.039074297969716 10.02909029549349 1.3144379246599944 -1.1027602869429072 2.50426322084321
Ni 3.6225060029348604 0.3376419568087773 11.472021045157089 0.1944417334547748 -0.06618070959213118 -0.09829353096627587
Ni 4.125078190641436 4.503393753365788 3.0930469183121114 2.3460691568665593 1.1048968736699358 1.1454621966868082
Ni 5.745996912923637 6.708851958744218 12.472331167946729 -1.7998822561154293 -1.0127763042835911 -3.2622028355237367
Ni 7.617901837457171 6.639720023918225 3.8655363116721824 -1.2816848985986895 0.9827874712309846 -1.4334144378969185
Ni 0.4156073141132694 1.9175807223697137 7.692352465186754 -0.03399075512314791 1.0234098727380376 -0.8784359069960871
Ni 7.702720409923871 1.560589759402818 6.19549382354457 -0.6366097707200777 -0.2693989036879554 -0.1852677802649906
Ni 7.312778280477581 2.182472667517839 11.266633130297123 -1.4103107619999196 0.6094301249814924 -1.1772289475754436
Ni 8.843434244288366 0.1558642770848589 4.497933880723431 1.2616464918905754 -0.7212777404831191 1.0130712098161907
Ni 0.16418188600799682 8.026907845353874 2.517506028761306 -0.9824866521611145 0.3963692337636335 -1.6687166570114809
Ni 2.724307586495716 7.988078803476167 2.150918534531859 0.16273051839442298 -0.73890290976405 1.6313780684620227
Ni 1.52206522284402 8.852514039252164 9.052144958097989 -0.8891669202603459 0.16645373288228105 0.1833667065875358
Ni 4.300270250786428 5.874267471655099 10.251967888579454 -0.6473238147034723 0.884033969909155 0.007533332262567671
Ni 1.159085655271936 6.725765845094464 8.047433349335044 -1.7715008767592588 -1.2229431617831066 0.6300650276230246
Ni 3.8944107978517732 6.022109417701821 1.163887611876774 0.4229904358955877 0.6231479887882171 -0.06393587942201247
Ni 1.8162450432107382 5.615954686882165 10.181132569454359 1.490615826808575 -0.2054727944579558 -0.816086398224588
Ni 5.303523002248787 7.340737405213667 2.9560905760446503 -0.5111769603348486 0.40781912747178795 0.7484532724566465
Ni 2.461482586542602 6.24568091381754 12.806572815361033 1.146931582143483 0.019729874328759566 -0.9627552351704581
Ni 1.0580913911674936 2.109631304261515 9.936362889425698 -2.7757529456219228 -1.2120347424007192 0.28047033101076857
Ni 5.553531096506052 8.256486400942592 10.188628014016444 -0.04026913193269194 -0.5156956741408087 -0.34841815980565155
Ni 5.751505690965697 4.433588215864636 0.2988627430741651 -0.5150858084709516 -0.5361631979665411 -1.8087836723701172
Ni 8.13240509720459 3.946647301195332 9.980012342776057 0.36832209781843017 -0.07026927783920801 1.3017569867582162
Ni 0.28594341286195585 3.070197946473334 11.902448540867265 -0.00898086334237163 0.36380801199816054 0.7709059450332079
Ni 8.97416852787281 4.459341983897117 4.185853761321884 -0.06269635058795654 3.5877916561396987 -1.4553621458126034
Ni 7.633911435284599 5.707223235649368 12.479015521068451 0.6253938473996004 -0.44693511963664323 0.82937874445812
Ni 6.691162967945842 2.040074907475833 3.6744361554727303 -0.241621476464371 0.3955256548164156 -0.07273522288119733
P 1.1369305864629122 0.5556945247051382 13.35858743942434 0.14884630421316303 -0.5514322083104697 -1.0679148971289478
Ni 7.0029487322057795 2.7204689739906955 8.254117718658845 0.5986011526867885 4.068372488855244 -1.3536295072577913
P 3.65556789862113 8.434603557635882 4.0652659640608055 -0.02353253590430141 -0.03515057975920398 0.9215126835809033
Ni 5.550836685805413 0.41346747219039864 1.9068649033743286 0.8658848098039539 -0.2838369334901563 -0.5362675847548892
P 7.1700944699844795 9.006547593450012 3.422549355672143 -1.1467086674993991 -0.830726516735266 -1.5857682410427076
P 8.7251200867418 5.956373178553348 1.2491158824089141 0.4530767137580068 1.783017876259923 0.32629998775037355
P 3.284578918418379 7.726213456649307 10.647672550500227 0.9091991563208729 -1.4934520107057891 -1.605403755885448
Ni 8.232467390484496 5.2258095538899365 8.218329116253265 -1.8405167418073398 2.904414804467411 -0.7353290763698626
Ni 1.409739669902642 4.992650753945574 5.856727965286005 0.5889446034336309 -0.19233779973789455 0.579415323786957
Ni 0.44360519407176185 5.476915712782052 11.9210178288603 0.9004715466398879 -0.31633773433133905 0.6726255266930544
Ni 8.663776106132724 1.1383608387183886 2.027372421960422 0.46259776587456464 0.2847447900164064 0.49138537953021816
Ni 6.591534364059533 6.510074577534724 1.223528208186747 0.7865091987881035 0.07115348021637423 0.07565136808672777
Ni 7.08123428146682 2.221827673128204 0.6396208043130995 -0.948318748030154 -0.3438238555667498 -0.0826285707355093
Ni 8.239397193348127 3.9479668242439323 6.330047342022832 0.2613053280465435 -0.5441333606562112 -0.2625191458489866
Ni 6.178745108261247 5.07825365829431 6.77944921007453 -0.13061486880680087 -2.1560183533906288 -0.34615481769277157
Ni 7.012452989129268 4.443932169273597 2.1584545798031334 0.8566386086153376 -0.947847207710374 0.532553883348728
Ni 9.114554707323242 2.4037280777230765 4.204558692593342 -0.2118380745543513 -2.2010702514239444 0.24388764679072836
Ni 0.5480412910232538 6.908838133795435 4.288669520879429 2.71301982825876 -0.6564167781436759 0.8486190807449707
Ni 4.38939803488737 1.714521811827698 6.8302019420459565 -0.5286936290623734 1.5510958864715028 -0.7366969032516668
Ni 9.008180849251428 6.866198161714428 10.147423830651258 -0.5253707353367275 -1.2214375237718575 -1.0984014957535793
Ni 8.599414754636289 4.025698727470596 0.4704210397468573 -0.8535936511414267 -1.074696953047788 -0.684539247411505
Ni 7.891744393494405 8.170080709844008 11.744895643377554 -0.7276754164793467 -1.6104078939682585 -0.4299650674412078
Ni 7.2114887384881365 7.595922089892365 5.943431702499763 -0.2649922899798275 -0.059386569488433204 0.5526629953937773
Ni 3.7823343856258655 4.150029171924068 12.142734610760854 0.8789308443546348 1.3517284335803366 0.36878926726283584
Ni 5.1054653608839855 3.8521860602965488 9.451968746514533 0.9376687245154753 0.2663801714662896 -0.6852537569800263
Ni 5.9215857527266005 0.25478513679055603 12.064930733549721 0.36378384362844446 0.06081867394926946 1.8584116198098897
Ni 2.5809317184596425 2.1256593569567563 12.314859471875392 -1.9012024897231712 -0.23769643037835192 1.222951646423539
Ni 4.90021032107227 2.238760014346263 11.01224754139471 0.08919362554753671 0.11176405464888493 -1.5453265880878935
Ni 1.9008975218671251 1.320030557465603 4.754940060855233 0.8761980188045039 -0.25661589299067417 -0.0578837596906616
Ni 5.077709239693838 6.583617225767928 5.338273518339909 -0.1353125313927863 0.6722938543852486 -0.39232334582903405
Ni 3.0147041589608516 6.130605585572085 4.172160249404936 -0.6688118093739192 1.9570476217172488 0.3589514552368076
Ni 7.6170529135377905 8.798542778334221 0.5428111814851636 -1.1788538847733763 -1.1868222476908334 1.2379537762593262
P 2.321511641617952 2.9461812347726757 6.308938664218782 -0.09334981380775537 -0.6281112463307634 0.3930028883945618
Ni 1.5266420300615442 5.465510604473866 2.413772139530083 -0.5884296114704253 1.0349631247932756 -0.9583951584295495
P 6.404863376135104 4.169489830032452 11.522854978546889 -0.9485838287660825 -0.30534678253747416 -0.2819895958687724
Ni 4.723182001579923 2.1257700861636315 13.121043762887705 0.869680015180328 -0.48069833213001734 3.2941500778542943
P 0.41933427466802353 3.356552902887511 2.277449721971984 0.16209519880326922 -0.5277855154258071 -0.06054356591101186
P 8.93345708947822 6.325369033032338 6.060198419380242 -0.5546707698524254 -0.5571583121609694 1.8953272618893167
P 6.092505510972976 9.037754774921115 7.367941725856218 -0.1774901932021008 0.46117183206131546 0.2676670085985132
Ni 5.755279711433373 0.15308497399228163 5.173536140810753 1.3382820782674436 1.0865556521585868 -2.042760744915353
