# total energy = -381168.3694666202 ev
CRYSTAL
PRIMVEC
9.22898261029154 0.00000000000000 0.00000000000000
0.00000000000000 9.22898261029154 0.00000000000000
0.00000000000000 0.00000000000000 13.50754893001659
PRIMCOORD
 96 1
Ni 1.2314693209838585 1.5593381642204347 11.972308099543325 0.01222919507634023 -1.049230176235251 -1.161703855356651
Ni 1.204576065081382 7.025609307494789 13.525109375240861 -0.8353167072091099 0.17179648525143315 -0.5707152249097978
Ni -0.06229009656423318 6.306911500305543 3.0119542170458593 0.43931205587374667 0.9449220636437791 -0.7450758713439813
Ni 1.2315800687775544 4.703957163334557 12.985860832668413 -0.6066389353896003 -1.336563295804124 0.5529764128691379
Ni 5.427287919893414 0.5942735838702342 6.098982517641577 -1.262217276792381 -0.5565474180498479 -1.039662587151474
Ni 7.605401694441009 1.057992131142111 5.582521256520331 0.034442240838269716 0.36412837145205673 -0.12074723198410174
Ni 3.8476552224782137 7.800686970658033 7.42522149438582 0.22157741332930228 1.2312858773208473 0.9830512664153329
Ni 3.162910843039555 4.100077131259489 1.855072612217878 0.6171308360598599 1.5974222803418683 -0.18219094111187978
Ni 9.061033778848085 7.947473942219079 5.073813263856075 0.5057236505297613 0.8591770587664752 -0.6345279484903846
Ni 7.998316408508284 3.348856388654894 0.7314448782436385 0.3350432811606423 -1.648214166182755 0.537480631226384
Ni 3.638803341533449 5.1794712735333235 13.086505658884361 -2.577065035296284 -2.017891749587815 -1.0876835951154429
Ni 0.8738600806485414 8.819188284364763 1.8146173660790634 -0.4279948310887145 -0.3482402394668906 -0.6681782895549783
Ni 4.5763387890657015 2.710533792740415 9.581471808661293 -0.9746869536110375 1.5357471719295746 -0.985131031762497
Ni 5.3853606509967245 1.3737617779174152 10.978314349683206 1.098164697152425 -2.595257389934595 1.991909980812073
Ni 4.338590962949127 8.183145247203857 4.567050740767743 0.17722845490028188 0.3464481805634743 0.14732678224484305
Ni 0.6172454449775968 5.568731310408635 5.3679003384222925 0.6699384667791947 0.3185080025097805 0.6957425723264921
Ni 0.47958132292224614 3.355778125760885 4.404028142650884 -0.7750703608235426 1.213654023171697 1.2277256707734145
Ni 2.0432414197916615 0.5242486768146265 3.6028822946481984 -0.17372995482872014 0.6943410639932752 -0.317543324603666
Ni 3.490530503740316 8.658419403849615 11.46736922345785 1.1252224726011653 0.5946023159400405 0.18876473767465554
Ni 6.289782508213918 2.422598758114002 13.061205325414544 -0.13003688481614378 -0.636540350934723 -0.13869764581493532
Ni 2.8185774944735282 3.2588184323801648 11.596663581004638 -0.6534468968820746 -0.4693209435310111 0.24274761964901417
Ni 4.7831510648099025 1.7449145505234542 2.289597118173247 -0.18341530043728413 1.2951500229646598 -0.2521617138740625
Ni 4.400480521659493 0.891644330519534 8.114740949529331 -0.6803339510809057 -0.7572284475461153 1.2004663208368294
Ni 7.3790424331094915 3.5298921154163843 5.5313142454102096 0.4665359245867062 -0.5180217511708239 -1.847295712402386
P 5.789220938674274 5.075017646112518 4.238344828790482 -0.5228217436626286 0.2846023509012712 -0.42043475935326946
Ni 2.2023029384873323 8.797066412574017 5.60591672793858 0.5393732202634065 -0.9986722607820413 0.9514107566919162
P 0.87033460921589 2.373925102784674 0.3414529830316536 -2.546087098857531 1.0474116349692737 0.14184570452561376
Ni 7.582762999613015 4.351945301072286 7.523056095336738 0.13433345530896867 1.2143376795022829 1.7368359783872216
P 7.958530263623048 1.6319518009536829 10.811955474281257 -0.5622889485193155 -0.1452544730968466 1.3336371232962645
P 2.852475548327268 1.518223045810849 9.707564632071987 -0.47807246447139595 -0.8349737220473943 0.2933451300909077
P 2.143708126639417 5.122030084536408 3.7504518839513623 -0.30101215971786227 -0.8111943602396093 0.6968723150555611
Ni 7.212976116462558 4.323390828264371 12.181823544351984 1.9786628859941795 1.3558807651858131 0.6262860201965665
Ni 2.0342893064679135 7.310037328654166 3.5496356783375127 0.4351072737637797 -0.2339693592357519 -0.09724734908994864
Ni 0.08659462278906917 3.507004238052574 11.12692496824711 -1.8362798209078568 0.7225985161770716 2.375331396165787
Ni 2.8203863751038942 3.2734371411480176 7.75048314997914 -0.636172426072343 -1.4139786977698101 1.6386172665229393
Ni 2.0749245177714837 0.9342130137213778 7.531674119482837 -0.9785613489647792 -0.3471377504313312 1.2094559259299495
Ni 5.219654264679303 3.0800899513206725 4.5453174091532125 -0.5272838931990403 -0.9405324192165156 -0.005985528159473562
Ni 7.994329487935233 4.34958268147344 3.1305235736714834 -0.6586731782780204 -1.0481158601251497 -0.39075934377602384
Ni 2.929389891049039 4.192551538995527 5.75313561589504 -0.49386160898485265 1.0268222408536962 -1.6584823808779825
Ni 3.492597795889305 5.425709763833247 7.883775502878347 0.1377016004502532 3.4123467755024004 -3.6429562171269843
Ni 0.08630667852545995 0.7290176557651377 9.575784909455011 1.1212043525807078 -2.6615381154397 0.42596623069445994
Ni 8.082161717318854 7.5347076861318225 10.381632001300085 -2.024665320866223 4.310883052792788 -1.9873010212851516
Ni 8.382685084495362 5.547864580279774 0.7148779312050195 -0.9321840472518204 -0.7086117149796763 -0.2174929588472835
Ni 1.5100461670429715 7.2081309004883645 7.267493563705903 -0.8098931249296827 0.061375832004320105 0.44917300782822644
Ni 7.136015628826748 1.8816142438753705 3.411236929250646 0.7916390638155011 0.2605537945924996 -0.6933257353548834
Ni 1.174092734866598 2.7811816561355616 9.523781437128562 1.380125753776107 0.03174309673955178 -1.9370644937271029
Ni 4.295611590012327 6.3605595773683765 3.1255925281571755 -0.5371402171678298 -0.859008651509411 -0.503019878445353
Ni 8.204510342404348 7.633263993538325 1.0169951437124671 -0.8774933405771599 1.7849086655247322 -0.16128787241062545
Ni 8.37214558612864 2.123644318014852 8.112998517575184 0.6157799784589201 1.5757576508842412 -0.9724261826013187
Ni 0.9304475887357189 4.9469931966001095 8.226597144060426 0.13997162743135247 -0.28686312191098984 -0.3098048183088277
Ni 5.044801956399165 3.8634829279939127 11.703926510792195 -0.14595946958367123 0.6735290123439304 -0.4258343331022859
Ni 5.474346503231343 6.399791983285133 6.339187098981638 0.8397886269375342 -1.4405237952481902 -0.37051190638089737
Ni 6.6392748581696095 8.141919381000575 5.333658043509815 1.321299684776834 -0.858401099832399 -1.0646115437873278
Ni 1.1174083224599367 8.087256115828863 11.175430656089333 -1.4985983307934192 -0.238408368843712 1.8630771436063591
Ni 6.172639029432128 2.2352780940602726 7.337084708569536 -0.3532243229450433 2.5708501647348236 0.37246414501126174
Ni 3.360124976663448 6.5133177008061915 5.639144757640459 -2.556403907402507 -1.3360686155558925 -1.0747506891038587
P 6.088489164188895 8.131878247705485 7.596605550926717 -0.165455887745386 0.5148037584541586 0.5424379752316593
Ni 7.945415879052898 6.948999521205682 7.073741221533289 -0.0665910576566724 -0.5732559890537805 -0.2120360494977703
P 2.6508499609211578 6.431853469560083 1.369408466726887 0.8967485892623459 -0.1604409510292979 0.8094457529796188
Ni 8.787034508261733 0.1500540314750744 12.921281025469519 0.8364297377676305 -0.5075373066997323 -1.4996455411110108
P 5.651801384663334 8.234855237877012 0.7185796762093034 0.9851014640761422 0.22162086497272798 1.3846228703155121
P 4.093256912964386 1.0086078441365678 4.221838793038396 0.24112036845823637 0.5089015340371107 -1.0670870019110137
P 0.4353680349840187 3.3479888642709437 6.710685958442977 -0.15462845811257883 0.2192407947763256 -0.21935418042573837
Ni 5.976606205607658 5.985327594361206 8.730118448386591 0.45712697256798046 0.5570978912366792 0.37215561263190744
Ni 7.293803547894916 0.7264206200029698 0.9059557141598806 -1.2934119572276306 0.09852235914763033 1.5868555605696153
Ni 3.5147381256456676 1.9756298917403425 6.00802258598433 -0.39237682477478875 -0.7531666187719158 -0.5632636537277589
Ni 6.761909581722152 3.258883035259821 10.172481101312341 0.92177390766209 0.36488993220842963 -1.5149999120798943
Ni 7.561933185415387 6.021468291037287 4.682796951552404 0.18066627693723722 0.4409917575690147 1.5081772327311058
Ni 2.3666618933147876 9.103450183833596 13.356872401837489 -1.8856259754411526 0.07558014852916016 -0.3624720667955564
Ni 3.436282542794963 8.756421972287638 1.8856676131246386 1.0910687095375917 -0.551356874987844 0.34273885003268717
Ni 5.65305652632522 5.377008421555495 0.3999601195428925 2.0413062718570134 1.029703161945917 -0.5458061203729438
Ni 6.740027663484414 0.5752018908975274 8.983871176488778 0.4181986709338991 -0.5416859275569833 0.39152836073156444
Ni 5.855254310665425 9.050282013876778 2.995569080968558 0.6540176817838801 -0.5041218532602803 -0.6403520113713295
Ni 0.682283009723768 4.208443847390883 1.6980340865537185 1.7985298558525928 0.4238867224576119 1.4176569179523455
Ni 5.874210641353033 4.1022090262881346 2.1957060615761823 -0.5270388670677698 -1.0068242004652146 0.7352923095946563
Ni 1.4123666130032282 5.631368416726449 11.005478014781955 0.02198318913931053 1.060830736588657 -1.1372176972898285
Ni 8.258702929452854 5.2777230245071625 9.932628144217265 -0.675355781140024 -0.9562138345075146 0.08197551053254269
Ni 4.554632221501315 0.8879628892774275 13.375755823560912 1.2488459976917974 -1.7468344843608306 -0.4681348936427099
Ni 3.090980151034098 4.634952058879233 9.726556955792546 -0.37487429711465114 -0.5650981358333365 2.805109287296853
Ni 8.915788047415973 -0.02882119041106525 7.2259040755799875 0.026319868841451443 -1.0736885663879314 1.059777355623478
Ni 2.538994689288345 2.8455445822384693 3.664395310859999 1.3975215806550512 -0.445153345145872 0.326139036692477
Ni 6.208705894245744 6.210966995033702 11.233540023441547 -1.5692676722845231 -1.6740856346328779 -0.8428639234287485
Ni 6.615897844716976 6.808783585403923 2.594422114236558 -0.036082090434537854 -0.7380210213797289 -0.4449209174200918
Ni 8.415641782102686 6.546542038914948 12.096847685147434 1.1139710680570623 -1.5050556563829887 3.4449686753024795
Ni 0.39649186780365075 2.0728018517256466 2.5506444342868675 -0.47349255841019744 -1.3202486178045003 -1.2032338562796374
Ni 5.031964441313255 8.163432139925995 9.774603040290932 0.43675972176553807 -0.5234349517665953 -0.7364698748425251
Ni 6.047900097799364 8.19473684961069 12.069103517030062 0.2236965165548341 2.0510438108597517 1.088935979465305
Ni 2.8077980425537987 1.9224063478866764 0.7647882702306178 -0.8589374319518434 0.020997171076957387 1.5486294272088812
P 3.7566851389398774 6.4963640593879175 10.649230049410816 0.26416645164442243 0.3142769951475684 0.6721375313130424
Ni 2.397938916051058 8.660966603104619 9.578149374850417 0.43517797910071504 0.10089471603454882 -3.4534517730728265
P 8.763389854307668 0.22514749588882912 3.393650179611744 -0.7548324365101129 0.23837340184071848 0.8568666654657436
Ni 0.6388098862067412 1.3284843882614266 5.6255024752536915 0.8246481717516702 0.6931321312868385 -0.3757381877768432
P -0.06950531532351807 6.877521049357816 8.837867745568131 2.268878726427486 0.020799967464486757 -1.6380418536354435
P 5.101301789149667 4.140943067133259 8.172526379584985 1.8076274472784868 -0.7158609403429219 -0.9894468855290315
P 4.384016016330043 3.201183434744281 0.2270006756366731 1.0240865870900877 0.47458322037121486 -0.004715403197798331
Ni 3.9030660352573725 7.27309371047379 13.244300961138777 1.0312926179202238 2.02743825562567 0.7459037665619154
