# total energy = -381157.851783482 ev
CRYSTAL
PRIMVEC
9.37039228154220 0.00000000000000 0.00000000000000
0.00000000000000 9.37039228154220 0.00000000000000
0.00000000000000 0.00000000000000 13.71451627781061
PRIMCOORD
 96 1
Ni 4.636095238682613 8.570572991934716 6.964299426115941 0.5707975002109589 -0.390679639578024 0.10339691363111225
Ni 4.847210174666766 -0.003991787071870792 9.601094054263788 -0.23349447648186236 1.0567015449116317 -1.275555388662184
Ni 5.05522351083686 3.0301974255905564 11.483726722789772 0.8189732328540799 1.6986311851827263 1.816923270758116
Ni 8.835614534957875 6.46995595291193 7.7738675777032125 1.026608067960361 0.9045734846234035 0.2667938619649405
Ni 0.5151073252522695 1.1075147638160203 2.4205850099313553 1.0184746402199492 -1.102395447404321 -2.0774264146183383
Ni 1.8975325291433125 6.373628321224532 13.913513457849241 1.5480642987340305 -1.6441253408253618 0.43963961441649446
Ni 7.560079268827969 1.1330584529191183 6.058949936705801 -0.7054906528521915 0.14653025448547669 0.6149389706148635
Ni 5.371146283438089 1.7891170915340517 5.1557256522437855 0.5820656169256104 1.003464539964362 -0.9778126437242127
Ni 3.632329457166484 8.86561853074222 2.7355660581177417 -0.06420301704047007 -0.6767444339574346 0.9317240768962664
Ni 3.043887568576479 5.17584856946642 2.6794458422676444 -0.1628037948345196 0.27483858664628796 -0.9431986531947693
Ni 4.735702507635634 4.12474356661909 5.3712212465755895 -1.5014887649673367 -0.5304167824010672 1.7219004401233118
Ni 3.7628777611225965 2.540725619284822 13.315355409600029 -1.4237797430206316 -0.9764802980660344 -0.8216554076719333
Ni 0.4820729446344919 1.4808124477812519 6.7620657478470925 0.5682989021588213 0.4411467950896403 -0.6876567099945641
Ni 0.2615585682470681 8.400163039613021 10.568007957384955 -1.5687539658728982 -1.023820477912895 -0.6456027182473074
Ni 8.538142064573814 8.338131043331837 1.7365454432053573 1.251788111039257 -1.4595674421432026 -0.04437286968842035
Ni 3.4793390639213326 1.9760095637135424 10.485172753408323 -0.17118610536094392 -0.9010294760258869 -0.517895767115921
Ni 6.853223734164652 5.078771306404022 2.291133041861179 -0.45948878793193776 -0.771681903967284 -0.279459373247751
Ni 2.3735390818756237 7.347493181270381 8.990523984523024 -1.1024214155462497 -0.5058619758798385 -1.1163627082176903
Ni 4.066506579173839 8.139656766408608 13.68350781121511 -0.7213780135064093 0.27367130581106414 0.30590933990916347
Ni 0.8128421666175808 1.3937615043594687 9.230349802169647 -1.0903333740334642 1.7165461177899342 0.6177404446194006
Ni 7.669028818791918 5.727258668131463 5.752238259624875 0.6098929235505238 -0.9533671090873387 1.668785048355571
Ni 6.177028122738802 9.090592276771668 0.5086904806822764 1.6056058445939252 1.294300787590487 -0.31621046472485537
Ni 5.434864950313021 5.994511623710869 6.727875060833378 0.5702812226961728 0.6208375954874856 0.3398209050549438
Ni 1.264225202759605 4.881646365955793 8.033223166747002 0.9453151853171398 -0.4796318385387159 -1.754931659546668
P 2.784730631847065 4.335305649464181 4.706094879440821 -1.6825911010007277 1.2199514261446345 -0.547782013152392
Ni 7.818758315555821 0.6334038414232386 10.305526405507418 -0.3422194871941074 0.7944611066453285 -1.6643424392031854
P 1.8515613850714858 9.291840189782393 8.284432136822987 0.001039497008107887 -0.633585124961141 -3.2226590117928433
Ni 9.20075997771999 0.4758922339476234 4.497826668603228 0.7393235422412364 0.4068367089538606 0.35496855932965965
P 8.679663097781477 7.940479710071318 5.146838772293169 0.014639347179729626 -1.1264162357989504 1.2646937633573314
P 1.836156460315252 4.22207383027055 0.6773378622335048 -0.06734310533134855 -0.25839458215765176 0.16803084756141384
P 4.381070644907883 6.385144533222958 1.26314292246195 0.7441782992303764 -0.332369333872905 0.710220711338009
Ni 8.798826375229789 3.461254206999477 10.937998829947222 0.522274612909907 0.4438559664906872 -2.2292783384270445
Ni 6.244626131979356 7.366786818784423 4.975488969635069 0.8207223543347026 -3.294771770598693 0.48117989975212616
Ni 2.856086168354802 4.593497435798283 12.174293704713575 -0.4390559739988826 -0.7654600914272881 0.5480206115257594
Ni 6.0001057478468 -0.17788377713043751 4.299994263544843 -2.6952650753785004 3.0189713342597684 0.5137604047913087
Ni 0.9687861074802289 5.619517898759701 5.420388631422568 0.49455734950029673 -0.11655839071373474 -0.18079303232308863
Ni 1.1857762793659377 6.885008104464618 2.924565931500199 -0.03393779039802543 -1.480199002350625 0.7612244560793858
Ni 5.017526423066586 5.913485842465643 12.895032412441877 -0.4744050429221378 0.15781379781909596 -0.5977478035475576
Ni 6.939871750722372 4.583911524590481 13.478448022662512 -0.4395069454933721 0.6065466327861102 0.25771529670244
Ni 1.4421127280469177 6.473666628218177 11.393608850005021 -1.2080279352341712 -2.245712572723668 -1.333202606862007
Ni 5.197447323458585 5.557101716398831 3.7439120873351164 -0.49524306271341156 0.9069689814387734 -0.704384050051574
Ni 5.8912967537656655 7.762320443410569 2.468846277853804 -0.6308458716531071 -1.1631267038461064 -0.08360456149553344
Ni 5.817439322543869 2.249784312255441 9.491706906984684 0.5595275837240945 0.9148715241153017 -0.6740054377597167
Ni 1.8432779583777448 8.30713378597562 4.633312232202929 -0.9184965224623988 0.9284001547293559 -1.7285647395173651
Ni 9.331308281676103 4.738972774509068 12.881030235396112 0.8473325007230632 1.7634494672096923 0.014690769242955344
Ni 2.217587644699225 0.7044323512436326 0.09954167620770758 0.7456641397472835 0.7433827999122746 0.07291005789616475
Ni 4.421897443668777 0.9851280714552118 1.2082717798904452 2.623805890996249 -0.2886071011852901 -1.308532872029469
Ni 8.795509256395416 5.7696971743486065 1.4505160957606589 1.4516718414452094 0.8646128850700657 -0.8652435766755292
Ni 2.7785649137876964 3.1063131213295385 8.416187347292848 0.5066803580160758 0.3305924444781403 1.1654237274103993
Ni 4.73407205939501 7.055914687572251 9.017513525140652 1.1960566218049078 -0.17522325154479498 -0.6376143007251921
Ni 8.251632953049116 2.735770332667429 8.183657317003405 0.27428657079755986 -0.37901583008685047 0.25790967210143323
Ni 3.207054207737245 5.765855313551735 6.993868635702785 -0.6802321353957187 -0.19103759286923228 -0.2516420939251667
Ni 4.639852765949797 4.052338546186354 0.8961234012623367 0.6234626918151585 1.4367337320781384 1.05664189531829
Ni 6.244429353743419 1.1369003137159892 12.202367399707295 -0.31537099954269554 0.029705240373916586 0.19799911178872998
Ni 5.779910901832971 8.09115561644616 11.137859924914197 0.4114513249077365 0.6448432143734636 1.5676051969804357
Ni 6.768196795455367 3.915052930247436 4.533332958680066 1.3387759871847265 -0.4616626556548049 -0.9474564000298585
P 3.7477164665632374 1.317430289600174 3.9311156565352317 -0.024566376485454466 -0.8730664151540578 0.5978282790765058
Ni 9.021054596348304 3.4877724168900737 1.2169806223894986 -0.5783195196196169 -0.5527432138124094 -1.1425918171175484
P 9.4164008131307 5.281555963733496 9.548402464915092 -1.4505097028163083 0.5319617582906838 1.8984439531414272
Ni 8.902369208901554 0.4829378318333972 13.61405727543909 0.2526242553327779 0.40214367435356546 1.3118292833925536
P 7.791153140171476 8.958928896145245 12.106008845725679 -0.0961705710860021 -2.3169850950164093 -0.14077869671368012
P 4.10861712166442 0.5017357756007211 12.093131115742409 -0.29615483162556094 -0.5502975804853942 0.211789480704603
P 6.2845814842668135 4.662594707788835 11.227456803893324 1.2866509843547131 0.9447032627647537 0.6850005033186396
Ni 9.375171087505743 7.33618311790008 13.20252558023124 -3.213050285058486 0.2598958492935266 0.281636840515044
Ni 0.9189159432191877 2.5709638748738524 13.120142966197266 2.0518750485117954 1.5566432986522933 0.8212116352662953
Ni 7.155156511229959 7.5597325643170326 9.413506298983984 0.9112681230347596 -0.047180257230228416 -0.23105372825085368
Ni 7.440925361771845 0.40954798318175584 2.9308740795208172 0.6125028503695451 2.022078019755021 -1.7471484160568231
Ni 1.7881332003543653 8.3012304388975 12.47546466889404 1.1663662938293267 1.3103488421922853 1.0750044569858774
Ni 7.078347406469103 5.0820696844540185 8.236691862706163 0.6401288396169299 2.2167539807077885 3.2264781284286177
Ni 2.904540466356314 0.5580865030986305 6.085597458008586 -1.0334230339996655 -0.026570808509992952 -0.40284764239912557
Ni 3.896911850972455 7.352684378542251 4.752477383729678 0.22446604773100695 -0.3724350915455392 0.7049995721483858
Ni 5.630546850364378 2.684523657794046 2.7487726888667905 -0.20265563672413486 -0.12502091965879114 0.03062415264376016
Ni 8.074757430118051 2.7624946911861508 12.888065525850479 -2.214709182363618 -2.339817776640209 0.8486419635631063
Ni 3.571037721868111 7.5239470365530075 11.33720096311477 0.8356213829337222 -0.40425197894581993 -0.24184079156402868
Ni 8.953316031224938 9.10320482465603 8.001775193526566 -0.39490576184422954 -0.5730796113769163 0.6790337442122435
Ni 6.372934912202658 3.578365368558728 7.043583251453514 -1.3480286161312462 -2.4318920661696506 -2.1738288992094885
Ni 0.7951883477363494 4.17242012206904 3.0092386693847972 1.4983538188827807 2.1361347270928244 0.5115163459521385
Ni 4.50745849473275 1.9032578387698689 7.126583374332645 -0.1425735838305738 0.025152845116543775 2.2724795564048668
Ni 2.8281061772829568 1.9406925555588919 2.1793189630055156 -1.7588855019880933 2.0006825847983802 -0.8902138734676217
Ni 1.7208350436638113 2.365621100477194 4.104096844473174 -0.93567406268295 -1.1610747064130842 0.29265556022305084
Ni 0.9230229861149647 0.8874276773123458 11.75825016566745 -0.8078637532044797 0.6822972454548636 -1.56995724215238
Ni 8.555055622472233 2.651108839253456 3.2158623763934857 -2.34202661136607 -0.1614781340445606 2.2918520473942077
Ni 2.214795267827353 2.90313490752819 6.171491157995215 1.0481973640953626 1.1342321322989433 1.7311006185653413
Ni 8.466355490025451 6.333045152660513 3.716208522832802 -0.5243055272970067 0.16207745819145633 -0.5095875043605417
Ni 6.966567998064532 7.039460278891019 0.5518476959801996 0.11310694183002455 -1.8650514937239107 -0.451395469400842
Ni 2.406963270808401 -0.12648623894283545 10.267427327912301 1.4849198048650618 0.5872846992327048 1.1150092795135893
Ni 1.5534423576264877 7.72930855173404 6.709140835732929 -0.46261704914827423 -0.25240442601248786 1.201179287743454
Ni 3.2509638655278237 5.654788054953414 10.033745676423019 -0.1444232354448029 -2.7544325868775914 0.6357229972397503
P 1.5902961100998865 2.796303066198615 10.672581534197345 -0.9592652197393285 1.2872739626506926 0.9971087729496635
Ni 7.1044158375347 7.986525817280645 7.075826770970667 -0.3603053981615408 0.22053585943866535 -0.5132842364858387
P 6.8462146808084094 1.782979484651246 1.190341534439683 0.2955369955359039 -0.011420840242431944 -0.3902548933357795
Ni 1.7449731739387857 8.311247388145928 1.437514676600516 -0.6461385361461194 1.2764205648759566 -0.7861273899686525
P 4.4829268079859 4.650000900688849 8.60610551910968 0.5402864761062953 -0.18939234395632543 -1.3476280382587178
P 6.417341200779174 0.9069846228468567 7.995219667152198 0.08760699778670718 -1.0215831039419438 -0.6291754259292196
P 8.385217264073974 3.2986216801933983 5.85766173100867 0.2638440353079972 -0.2387076452516857 0.5034284267376814
Ni 7.224862858712698 6.580292320919627 11.983305434108933 1.2189618085378555 -0.8030313648128428 -0.5424348899078658
