# total energy = -340889.5053329733 ev
CRYSTAL
PRIMVEC
9.06989956825384 0.00000000000000 0.00000000000000
0.00000000000000 9.06989956825384 0.00000000000000
0.00000000000000 0.00000000000000 13.27471481764067
PRIMCOORD
 96 1
Ni 6.2695135677456 2.0911288049353374 11.104564491872159 1.603798101961225 -0.8705742448598233 1.5644913339418023
Ni 4.509309113738105 0.5791883593393489 5.935005699549445 0.5572907239737757 -0.8318737429658318 -0.047194141187299365
Ni 2.785230069195765 1.7049234169273757 4.610481121009246 0.23261644475228324 0.0018026004263775408 -0.13289929396560338
Ni 3.655033425386637 4.396225607533854 4.925211166488926 -0.18436429461411474 0.2565079066579002 -0.4268108380829423
Ni 3.60065030835097 2.9670634131469082 2.5800471761291086 0.28653890580235164 0.5219051453856302 -0.03368916472232908
Ni 5.306489785121674 5.127087174220158 2.357270492130866 -0.7436617646052741 -0.41478424593571145 -0.17929922138638152
Ni 5.2088976671590705 4.654672392045416 10.856990702807954 0.04829380200938135 -0.023968337890139364 1.3188553370013996
Ni 6.003030852331168 7.863330716546405 12.318377342911381 -0.8931230766946167 0.297754572012513 -0.0824557926030709
Ni 1.8699955867154243 6.632998857659107 0.3521678693936435 0.9960505068884782 -0.06768609049306408 -0.20364551144122994
Ni 3.066297182907954 1.986543794505338 0.3086069563684764 -0.5519723970846558 -0.44026439248468696 -0.08534699810793689
Ni 7.93460198633731 0.21171866260233077 6.905971086122076 -0.18552489058111918 -2.230223733059449 -1.295280635005253
Ni 8.704854126286774 2.271764922160545 1.296231934230484 -0.24486235199917183 1.439186307383689 -1.0780756397120337
Ni 6.739452267373521 1.0122824064766112 4.709549818600503 0.21847794846837212 -0.9823385566190243 -0.3244765613883896
Ni 0.5723260734238742 7.568014790815697 2.2342273293527537 0.26853321325355045 0.0571669361292951 0.45954509509116986
Ni 7.55698579309799 3.8232709900788633 3.303067814750481 1.5820524827540172 1.405025345231264 0.47889444615205906
Ni 7.759534787367589 3.902242604493398 12.298983176941173 0.6950517169070545 -0.9394016480461821 -0.10598807139705617
Ni 8.41546991478911 7.558854192382405 9.489058492543103 0.11701527574549525 -0.690389535544695 -1.5107460218995465
Ni 6.972630312048298 0.7081323986924122 0.35530151964978474 0.5224862147000808 1.7779306915450026 -2.3402121838651504
Ni 2.019213572284269 6.539379355650743 8.96803902626522 -0.1161585841721548 0.14261626414305115 0.8896163490929389
Ni 9.00415173787116 4.802938038173176 1.1930872238313825 -0.04241677440331404 0.31115053370344475 -0.09090418048074021
Ni 6.274066657263929 2.1581100122916417 6.844430004449225 0.9559857776571086 0.22550837295259227 -0.2915589847247624
Ni 3.4661799792697825 4.507640252241347 0.47891427211266036 -0.3619588746045637 0.7198749465983215 0.15505911789209423
Ni 6.064089415353869 6.0270298062465075 4.493278066479843 0.5091984964522391 -1.9794128767863268 1.9052064686762413
Ni 5.668405982432252 2.989484204559878 9.08832131165413 -0.2847342484934451 0.5266835406108801 -1.3445920796458712
P 0.5582160308667716 5.6244713895502025 12.28007969253061 -0.8025515969629468 -1.048590228658407 0.5545794956901997
P 4.2899535958082184 6.157255422390288 12.410159283293423 -0.15270398739635638 -0.5261045281789585 0.6273661406346228
P 2.1734834918405834 8.703865507247935 1.2230351247886988 2.1724770131672844 -0.406337657830255 0.37569396480246914
P 6.417479907191876 8.051177403825541 5.65121852299553 -0.37979513145503624 -0.12626404803727287 0.10849078321425187
P 4.8280707295183785 1.0534234703314787 12.556247246565903 0.764179939163284 0.9397891132925879 -1.136576464161404
P 4.097036834742735 6.329256995349659 7.998825037274244 -0.16018538337506605 -0.1830301491837235 -0.1275701684432061
P 4.716538176118179 1.2330981782161625 3.4156234528073894 0.15281248794976263 0.03893730049514585 1.131220342055813
P 0.24044122014545125 5.533799604859482 3.6004344447443244 -0.4346766139842643 0.4881275347145529 0.35352514201491375
Ni 0.8015442000036259 0.0053675664879432525 4.243236357778312 -0.6679232361213788 -0.35361178819144906 1.5034044939328108
Ni 1.7025561731738217 6.750581033985055 4.854085015089042 0.9686695437723639 -1.0412530715670454 -0.8560120307749323
Ni 6.2883154692824474 5.693611232972966 8.911063731969914 -0.9705719030013996 0.7221082068042144 1.0889951148380148
Ni 8.477018252381512 2.1121256221363995 10.158369000667177 1.4964020944730487 1.3082600779840565 -0.23669472858671495
Ni 2.3609401734438467 5.283415960949104 6.891050194555135 0.24045162452598592 0.4959485734208685 -0.599434190111045
Ni 0.8536444233505209 0.00949255675275669 8.62675957114798 -0.43775653846116863 0.20565688544430388 1.4962362583191458
Ni 1.7978898861761394 1.1553328604270015 11.501943088998907 -0.11776835186143587 -0.7174830493273773 -0.6586145571259432
Ni 3.973477594686549 7.26956067987913 1.6592065888055811 0.06918478652577763 -0.8191228710580668 -1.1380767028560141
Ni 5.688840465868102 8.040465852588195 7.86273301017338 -0.6230973380559398 0.4971266528893697 0.19288981558662263
Ni 5.617224539898519 3.0320583125260927 4.377217819279743 -1.024382521063952 0.9301042819046562 0.6532329810990557
Ni 0.7346192260238429 7.482304241118057 6.942184473611786 0.6077388533219985 -0.11290562445249587 -0.09725377684785186
Ni 5.274146523722544 4.818810362191258 6.911148184721801 -0.7378754969408001 -0.30364008425901257 -0.21086876866254653
Ni 1.0324538628287332 7.634243196518573 11.588029132533316 0.5519752252981331 0.2376969445989842 -1.3246207787302668
Ni 4.61335900010121 0.18158664268640465 10.387278750666004 -0.04079235142601362 0.6518450996125935 0.030230773860083417
Ni 8.351245956862233 7.164413335683919 5.069866085650059 -0.0874010524234882 0.10851520869428408 -1.0216903189437694
Ni 7.475864612516435 6.736794786837922 7.300469083187026 1.1684810261794845 -0.6939381721279017 -1.3565973316368636
Ni 2.1230639208597175 5.665331286522464 2.520496937383098 0.5848506358699154 -1.1978309400965113 0.09353081947030989
Ni 2.5536483268222354 5.195156769509132 11.299463932954987 0.7654526352281203 0.3998484505614856 0.5057043672560516
Ni 1.313611675535311 3.534104456167733 3.851725078598592 -0.730589247692032 0.03581135327165445 -0.3416299332392245
Ni 1.3876764743533994 1.283463329800395 2.444485738145421 1.77519400934013 0.5126787416913557 -0.5262389968742938
Ni 1.3454742322641804 3.573603868224159 8.174808296087294 -0.5177659264062761 -0.909695379231001 0.853508290516472
Ni 3.9403271122373553 2.68235019986028 7.122282745800266 -0.7445629362633048 0.73368819833233 -0.11968022417216806
Ni 4.300928174129291 6.989736142390071 5.806944161411788 -0.7046061933647091 0.5459516448118725 0.16474523483160658
Ni 0.44935909780104855 0.1599413276754608 0.14259423800861346 0.07444089271839438 -1.1342010219506917 0.9110524074795278
P 0.1800375038622399 5.6163810392507 8.065079745685493 1.141255614804628 1.2625785167865418 -0.5115328010123706
P 8.814046645631736 1.8092000507764525 7.801762425175237 0.7663280958545382 0.8814099020227465 1.7584152472198942
P 2.1871881098927672 3.208495066311088 10.351848095497871 -1.2928676546883862 0.4169154333461013 -0.8441235068674624
P 3.9483086237435905 6.228653670773339 3.657993840563495 -0.38748427256917783 0.6306101014932172 0.5977146363167771
P 7.242115164177007 4.1294617252368155 10.068286759439983 0.2860668512619396 -0.16666070668676458 0.965236349721099
P 6.260915303077519 7.937132488280764 10.109611035263518 2.155252164648566 -1.7053736461128823 -0.09177218490799034
P 2.5066027584326416 8.577630646857271 5.641182679266382 -0.40017266667012374 0.7487252951711105 0.8845481905414122
P 6.723752271444779 4.178602440396796 1.158729537766871 2.4340821318424335 -1.915039395606263 1.6454098639647405
Ni 5.382014837749426 3.244946992156042 13.12756474717217 -0.5594064847651979 -0.9059868200311624 -0.38083231447029897
Ni 1.8639731734879923 1.2489070129381716 6.930064366991579 -0.27085723340103673 0.06055153633081184 -0.8427459097936453
Ni 7.05857667913135 0.6271563365018792 9.121733007207165 -0.9765510034029697 0.3250370618775499 -0.17139976403364676
Ni 2.771416612350315 1.3925923598492855 9.176425407813698 0.18346595116956144 0.5614188872095363 -0.16608709357148171
Ni 6.4690150758037275 2.1261658264678225 2.1608182842640984 -1.3900738661277543 0.3222854672743417 0.5487214942475259
Ni 4.238173539911516 6.848109662651588 10.238973196980712 0.2472974438032257 -0.02248943935176772 -0.3668776520624198
Ni 8.313569594593027 7.029543931027419 0.08962239732563987 -0.11931949839863966 0.8085468953144332 0.5385000736298339
Ni 7.889696914215298 3.956353624545898 7.811147050124672 -0.15132793298443614 -0.9974486727875854 1.0436807071719316
Ni 3.5571873502397433 8.286641063158921 12.44027951234008 -1.1788461714638923 0.022774317582038194 0.5136128234698509
Ni 0.44139572609369104 4.982512977164032 10.206317024050941 -0.3168946352760736 -1.5806368333534133 -0.861752018582503
Ni 8.803053927511785 2.2025071700450756 5.641514637585846 0.03457825219550174 0.7060411260390227 -0.48645117545339445
Ni 4.026844882985058 2.482476825925157 10.978786754413218 -0.25356065110411813 0.3145410474422325 0.9846409794999559
Ni 1.1650285829271898 3.3046087906651507 12.333232024212416 -0.07779026880660152 1.2682393146167448 0.6748477311553539
Ni 3.306858125725999 8.417220405380819 7.857170440847501 -0.6987731316226997 -0.04648914470047478 -0.015457729315966928
Ni 5.669712047951455 8.032475271182522 3.4479476674176985 -0.2903603364309709 1.0458062381553666 -0.5642812963589959
Ni 3.26638823442961 8.566837466524976 3.572663319652345 -0.45254218141077546 -0.11922925267767852 -0.26578238998129067
Ni 3.6582350998885698 4.403735484269266 8.941277380980791 -0.3188242481986186 0.10102995606083245 0.46686219757787334
Ni 7.6915196114752495 6.142281018416658 11.132520642912691 -1.1547366800101984 0.10275362362015852 0.36298423054528456
Ni 7.774708729128876 0.005723106545948282 2.609769236590396 0.630697776111017 -1.3561687287398774 -0.16641850876897146
Ni 4.798629835939697 0.5531831436681239 1.3470913953341368 -1.0160907133688049 -1.088959119393757 0.6355895569856795
Ni 6.370896903673666 5.6626103166907935 13.10222254114993 -1.632790118318201 0.884787817356044 0.22055025761636857
Ni 8.042497510062509 8.81715762113928 11.419134907121714 -0.24203670962491863 1.0110467231869942 0.0708662879932586
Ni 0.05919379169806158 4.722478960250661 5.773903424745805 0.04976267324542398 0.5590964097239468 -0.10464801242939396
Ni 7.572286713451421 6.46087937600703 2.7616982151015295 -0.5198459488637563 -0.058486683381983144 -1.434575290974239
P 8.528344813306267 1.7230722857046221 3.4331864060808823 0.03153072361842957 1.3977236693635284 1.4658573889169724
P 1.6645714343236928 3.3957159305289393 1.507649476171443 0.8672670348634612 0.06686925101872354 -0.44072564839182166
P 4.879460779739207 1.0955078037279924 8.337117774506252 -0.06423901248472808 -0.23932599556197492 -1.1462926630079033
P 8.709280237212958 1.725711626441343 12.367719409838905 -0.8984105503458011 0.585851566330604 -1.387319443311069
P 6.45145575049001 8.029128478289564 1.2485759616086518 -0.3520706689565743 -2.7660169492810813 0.9362155370087167
P 2.0036133452493545 3.222000146575615 6.026654312409737 -0.009492512871467521 0.9408376091617604 -0.6365071837039425
P 6.937067236348357 4.130178247292489 5.882025695956978 0.5010691824768855 -0.3208091398391314 -2.090813634558522
P 2.5696385595330224 8.383516659065853 10.122979160046517 -1.3452068304117348 0.7733610914419197 0.5708013568657008
