# total energy = -340873.78942869854 ev
CRYSTAL
PRIMVEC
9.21187070200703 0.00000000000000 0.00000000000000

0.00000000000000 9.21187070200703 0.00000000000000

0.00000000000000 0.00000000000000 13.48250392254657

PRIMCOORD
 96 1
Ni 2.4110505813007173 7.664985823480252 11.139892334327364 0.3057293626878735 -0.6347369791773971 0.15928703993051277
Ni 8.477997905081951 4.324872012181469 2.879768070393361 2.5613381114793308 0.9608477337350999 0.2080194721392095
Ni 0.03185741280355275 4.85028027539271 9.173577057666593 -0.11150128790580151 0.5156519653870668 -2.1603113243390277
Ni 1.816498015830139 3.1177024025924895 1.8136930011701378 -1.215609090015539 -1.0969141125747752 -0.08240334209858066
Ni -0.14189228837743506 2.050147906918047 3.5596234807016285 -0.2751836286905325 -0.834549490025782 0.3559838879680514
Ni 7.225865154095712 7.524044200169852 11.87908416804931 0.21513731413091333 -0.49394619827885905 -0.48131591110935823
Ni 0.642712226037034 2.268174465121351 6.242129470872338 1.0262267733615422 -1.8652818645671618 -1.3446818111462002
Ni 3.149409661901927 4.404407304708397 6.499375569026231 -0.4043679356983939 0.5591815132385853 -0.6977500896748242
Ni 5.916913583986693 1.8514939130168193 0.6461869437045298 -0.02936302654314943 -0.1941655969752527 1.4268684092482846
Ni 7.33891323260978 5.123495151586381 10.585747640141172 -0.5048299350708984 0.38048341577131245 0.2697658001090709
Ni 0.663198505519387 5.0235002940024325 0.5582716123066561 -0.8819318359644877 0.4342197289525038 -0.8045035784829951
Ni 7.215372833249272 5.839257513103903 1.5486812959279646 -0.09821665498175343 0.6374633769696247 -0.5345637146899052
Ni 6.612188744834782 8.643793155823166 5.716501043948867 1.5901568570287066 0.9144866299720574 -0.2244591057524715
Ni 2.4183463829779615 6.995826316363208 -0.06723007550614135 -0.07679730876571289 -1.30417613772267 0.854955821596276
Ni 0.8459168841157345 7.519032942452149 9.00512602457241 -0.4770244828228558 -0.337581988422096 -0.09369408452105155
Ni 8.818910819818637 -0.18946699514779858 7.421929691113767 -0.19667499366066774 0.006307173164950428 -0.7424070662625666
Ni 3.474883481170101 5.154447037489842 4.10395292654552 0.12472061480955296 0.9351626702641701 -0.593271770054075
Ni 9.358339550394481 8.908616017713845 10.864822187353647 -2.2465296693083245 -0.8071132481917004 0.7300464878146846
Ni 5.093980317528438 2.820997255847085 7.7209847861014245 0.0381122334906892 -0.169484806399121 -1.2683411303019316
Ni 0.20851806515879456 6.394456966497225 11.134714341748097 0.015064093421974057 -0.4480242389357639 0.5731384896393097
Ni 5.6254592035999105 8.271071651198191 10.093393411751 -0.8397888840478505 -2.105714462929754 1.1133833138743923
Ni 2.8435018562227263 6.152580874780807 8.813243676899646 -0.6275818561898547 -1.5796320462379827 0.7407217081403437
Ni 0.007681779063957042 8.04594274060454 13.150147313539005 -0.858476947375657 -1.3408236137423746 1.0688284100821528
Ni 5.200838018861813 4.930009017206534 5.57424672904881 -1.4309415508763939 0.04309785963073868 0.9129072013000794
P 3.7111126960832967 7.557464867448947 4.851530326260894 -0.327560599630352 0.23112957579411159 -1.1828936020603886
P 1.8876044465708566 0.15780026806990105 9.873534612444661 1.099026530932088 1.1738530891246752 -1.1280841104196766
P 5.069476741188199 2.509000403566043 12.264238934699256 -0.5280788782965099 0.7104968478175313 1.6477678226739556
P 8.244780971921859 7.853580454462856 1.8621631017827085 -1.707877900591975 0.3088367979686036 -0.2875418931455693
P 8.712080754097675 3.4064761285751315 7.4979036743876355 0.056561955555444514 0.2990648061835043 0.8364798742792756
P 4.660828940425279 0.46452424550238935 1.9737980793153502 0.4203969641367985 0.4911074432784832 0.13237478892070106
P 4.910323249297102 7.4143123951454415 12.093361494835142 -0.3576491914856163 0.3636547742497479 0.00997947981021507
P 8.047370580579253 2.66769330191691 1.65113480182966 -0.504165562014022 -1.5621164059517225 -1.0525882940742066
Ni 4.066571154820448 8.640089983759717 0.24458346054588917 -1.9414032303117728 0.5265511287980739 -1.3294469964743167
Ni 6.957247001433538 5.368604609955212 4.353366170954262 1.2020177244843493 -0.12336821454671656 -0.535085134411014
Ni 5.392988431974993 2.057609522269774 10.266657647340585 1.6943438706612821 0.8234407817071303 -1.2181125731636828
Ni 6.8642992250151105 4.5585126913985725 7.027727946146624 -0.1525944584016856 0.7027845667749381 2.4253025858775907
Ni 1.9277129320540907 8.612058260901314 7.10532045512086 -0.35517707579603996 -0.21147760589113904 -1.0967287360368467
Ni 3.602495527426243 6.747197923347019 6.798296170700142 -1.1243693805722506 -0.04780914906347895 -1.7215620829472866
Ni 6.087554278771128 0.5754112191256974 11.970158249946081 0.34277690235947417 -0.6547424757650466 0.20321639432361133
Ni 7.3152295127711495 3.0248559567529125 9.121224153509882 0.9110179546971665 0.04072884517792986 1.0661750316197056
Ni 8.466575185284245 7.054846772608289 4.325901899337423 -0.38220399800684496 1.075061021255426 0.012715904904771648
Ni 3.987229311580417 2.8387208952751384 2.6063164491200124 0.708512984618283 -1.418789488894892 1.6186112557146575
Ni 6.176780459384496 8.244145352836341 0.6197424261857607 2.8540548639576198 -0.36591863058326013 0.6640858646531596
Ni 2.7454691271201592 5.1353600411827065 1.5271227546839563 0.3509751218995504 1.1263007932670086 0.893995451997241
Ni 1.9884560081396316 3.246042186642195 4.272254727332667 0.21519644950362293 -0.7841975199357913 0.820299407864671
Ni 0.5357163466415897 8.76186170392574 3.116885309652121 0.036540775238511264 1.5047054721324216 2.6629419377657624
Ni 7.266913250401016 3.367850754291438 12.603363825312767 -0.13457179657201984 -0.21481849733891392 -0.3833591946572107
Ni 4.900927141076409 5.728632156611446 10.526801800049606 0.19551928278966973 0.6787738056826373 -0.5721802394910984
Ni 4.5503601857365 6.555591010611311 1.4800418041887193 1.042342190866166 -0.3725860153011067 -0.48281203603891043
Ni 7.365738200392778 0.30290381460982013 9.381786525153434 0.8329230101659527 1.2712161378568816 0.08252135573368369
Ni 3.3658794139392536 3.0837935061607515 10.87005360878358 -0.7876006320800695 1.0050444828569722 0.6816272159710326
Ni 1.0435391484868466 7.020910240564138 1.9367479349392438 0.16868107955090306 -2.5474878358598 -0.4496129235791225
Ni 0.3519128096644601 3.559393183931513 11.042953054289303 -1.319372128736818 0.938243880292655 0.634092660725179
Ni 4.546399081290522 3.9044422286594647 0.7356517117717373 0.7055832125659978 0.7190254541138327 -1.989906834339115
Ni 7.809022635380999 3.2857453498100266 5.452189440887843 -0.3754844198948243 -0.8669585024841069 -1.7460436130284187
Ni 4.935397961627227 2.398292140236345 5.399459771215224 -1.2504753057651044 1.0027744558758729 -0.4564518008778268
P 1.0774848924018026 6.246680135049811 7.181402217283144 1.347026657229293 0.3289273980708916 -0.9061333729113555
P 5.309971052283926 0.5653647528261991 8.634936863231623 1.3521935461422132 -0.829616828610855 -2.0613554771984046
P 2.0299554861143605 4.516681586074878 9.886814445396574 0.1372215754900411 -0.41444048944304746 1.337362651776968
P 6.439466167248507 6.671881667648598 6.1451367619836095 -0.3050557336596166 -1.8259702114517327 0.3911745769365715
P 1.8240333261483026 -0.2510207158641446 13.277502348599699 1.2670170121738695 2.5420083008024674 -0.63180335047037
P 8.105331671681805 5.459700800341915 12.814729279737264 -0.14279521292307665 0.22249529715788133 -0.530096680057487
P 5.351977183152908 5.179991555231 2.938106848198901 -0.12908994752184216 -0.7649481847878761 -0.491626806117063
P 1.4200283082709029 5.198682441093537 3.400220347111727 -0.9741933018040707 -0.3113251116080961 -1.3900458411032965
Ni 3.2642724789645006 5.314503292719788 12.000250668303472 -0.595394987044665 0.21650154146829165 0.17960646821415518
Ni 0.2286100765707105 4.95714718859689 5.244423985573784 0.13493535055902567 0.1549022805992558 0.9249044828712717
Ni 1.544241174200147 6.94786010508365 4.712930360509024 1.399456335783919 0.6467543153532475 0.8254004765366624
Ni 4.809084789154533 0.2264839767890085 4.118270937337112 -0.1721214726910197 -0.1960813259407268 -0.8582229223833221
Ni 2.431298273329231 0.6229693445286125 4.795430033060873 0.2802888111275818 -0.9997243561956396 3.431242583965639
Ni 1.8351244185970428 3.287025799851866 8.027968538290603 -1.0822356846269943 0.3934186357757418 2.008065507526013
Ni 6.374393511884803 7.544559036451699 3.2434858924939176 -0.5227836913358416 -0.8667841816897718 -0.32166994517752984
Ni 8.124538422309397 6.626817195672488 7.588856159589786 0.0468257021042871 -0.09850538986676584 -0.2998628766047674
Ni 8.042801492660171 0.8941916930672479 -0.13042074566446502 -1.3906883597833017 -0.2640736348203 -0.9114555564552174
Ni 6.753498842977366 0.5504470492452277 2.7097270683983057 1.2125661894241568 1.1737952393035462 -0.228489052847471
Ni 7.262869239117796 1.5811807761265981 7.180862401653994 -0.6564561160220436 -0.4086503651238317 -0.414411435977325
Ni 3.556740165139788 0.6924268503953066 11.258214208877067 0.47175243579063914 -0.8920151883424187 0.13185105520674711
Ni 0.31891680962945856 1.4808266555812715 9.098842992203023 -0.1491293826712206 0.7568862337153481 -0.16359800860104085
Ni 6.528314661158887 3.1746041285525117 3.2839471926289683 -1.3864714934884768 -0.6170588451713437 -0.14047350676843548
Ni 0.5508772436118027 0.9147046869749341 1.324431197809072 1.2742286994309602 -0.5891214953311272 0.5230780826478089
Ni 1.2648359208257844 1.6154581473905196 11.699659033265606 1.6051008799330486 -1.7712823329905494 -0.20672055082212784
Ni 3.229746387188855 1.7319146181022897 -0.01409600470520094 -0.14170172274858178 0.1660472414724818 0.6389800707244673
Ni 3.510708446729195 8.284944728629922 8.985711085664633 0.7487029265736073 1.0293406364001756 -0.7783297483011047
Ni 3.588226339549915 1.603851190176722 8.927183464507598 -3.840417454134373 -0.21022342176906378 -0.8181630782479588
Ni 4.317751236049513 8.997013129954798 6.329860564854118 0.07263829229201683 1.3353440786850423 2.3565011508331613
Ni 5.878748803243229 5.61566698493462 12.830503687303064 -0.023342788490998505 -0.31760194575574335 0.3661590287288404
Ni 5.212831874649404 6.431221542878388 8.25088844226531 1.9744123382479417 -0.7238470438721921 -0.07709067163641561
Ni 3.168100547764463 7.943055355587948 2.7209719990894827 0.10349692954408628 0.9768176268007951 0.6457389867148556
Ni 0.3516659315268968 2.664616537068173 13.431216230780679 -0.42299429255032955 2.3806944602499125 -0.003889307752077173
P 5.464905507346515 4.180171945582791 9.187059551776207 0.7326247900648221 1.5392788392319166 0.8920347287264443
P 8.16832244424367 1.6251121879937418 11.201506853391022 0.2578117130709882 0.37655682702339666 -0.30615539448169854
P 7.749320500696378 7.304460835800571 9.60764593710189 0.2426815422977692 -0.1263820616723759 1.1730899857064054
P 2.975876439684847 2.29465859368458 6.538515886887902 0.16290998139508073 -1.7081887469641743 -0.7546925684981389
P 0.18181745763165763 -0.32615089177231205 5.297465016479598 0.4633012196994924 -0.09700078029678133 0.9467316060486922
P 2.0201079962242416 1.2651491244331405 3.0115328280082174 -0.7484216478877627 2.166839869486165 -2.9553617278289233
P 6.690286985516192 1.4152012879692915 4.902696741457972 1.3049191865362817 -0.03756073186259338 -0.7506299683929911
P 2.3965142491710565 3.701937672761914 13.022858603948105 -1.09837089962596 -0.333486992417116 1.0823770953008651
