# total energy = -340873.1670321032 ev
CRYSTAL
PRIMVEC
9.22575097475548 0.00000000000000 0.00000000000000
0.00000000000000 9.22575097475548 0.00000000000000
0.00000000000000 0.00000000000000 13.50281910475422
PRIMCOORD
 96 1
Ni 9.243741337465847 5.2728304422049055 13.021822040784302 -1.8344939326520278 0.7964681097730284 0.7170685874977779
Ni 6.537441051608363 1.2727108188892544 3.2417970163025833 0.46983182172915855 -3.753097134350149 -0.08263885514815444
Ni 6.140503109550907 7.609279591301407 7.351042514198883 -0.5559190404372297 -0.26176324151956853 -0.28422748406035564
Ni 3.262972882854692 1.1851492149829834 6.91120206169518 -1.3311601225106817 -0.3317278436341642 0.18854079458930753
Ni 7.827902215657839 2.4049503511831154 9.143258146537015 1.4956055667136823 -1.0351145627694753 -1.6310535952430683
Ni 5.739718029275253 1.9283941769360984 10.126925260174572 -0.12298846260979464 -1.459838436416402 0.20441324284518989
Ni 2.6836787441044363 5.30690114110132 2.661216807845813 0.10293488639302918 0.2576145094585176 -0.12506848506727491
Ni 2.02549520750332 0.13373833342599173 10.4292263697897 -2.147311312534934 0.7934192956443755 0.8974754401260414
Ni 5.735944697066037 0.5972428375596166 13.017933386686051 -0.21449016746521768 -0.37613850853905545 -0.9332492552915412
Ni 1.0630279473707918 3.668103291909173 5.531092428835461 -0.5874081121844463 1.2003007417932425 1.0930775124375047
Ni 2.1099477332812158 5.389739160432729 13.346281559446114 3.243473120324717 0.6521050381421994 2.037586399803265
Ni 4.992828895628641 6.389746001883835 1.7668983261070093 0.18034617459365715 -0.6374973155313537 0.7184338432764208
Ni 6.219724634442189 6.260806904191911 5.280466596409227 0.660923664875094 0.32291590176948903 0.3029754540918202
Ni 8.993834191052079 4.131586576815216 10.198099162361455 0.31049721639016203 1.0143451914326078 0.6908528483343586
Ni 6.593598198692702 1.1271930464297018 5.7261543299745465 -0.7677843686850906 0.5080093612401445 1.204242757160126
Ni 3.485830126976479 7.5418116733405425 0.17680967511778578 -0.6286529777668464 0.44864567456984666 1.793187617704073
Ni 8.796384665522417 0.7208411479265647 4.827757143664364 0.06654914867514346 -0.10125184226365143 -0.45031920561752764
Ni 4.138865694451086 3.353053116817481 7.404554638436323 0.2205057775316783 -0.021562813772440282 1.2667827846758766
Ni 7.0581516707289875 5.03050686321406 3.251317068886176 0.5697695731670768 1.4111561407193505 -0.7746358443892852
Ni 8.369684450342886 2.935587878511847 6.513611859033343 -1.7134160568013845 -1.406464905891268 0.4816378132251511
Ni 4.046534377214339 4.080863397142191 0.8648809550562485 0.05861575276067969 1.0133751142098548 -1.5776633525473862
Ni 8.77237003534983 9.082936495395854 10.300031718791676 0.8525772940617703 0.5411693929318808 -1.15355242989411
Ni 8.540093299331689 9.152978397919973 2.3894861471511173 0.37626397837332615 -0.6082623299256363 0.793500285393956
Ni 3.1981619812171873 3.337203276388551 4.981622375739804 -0.530090766520216 -1.8705212585892301 -0.8153577475886796
P 4.320446928049572 6.019645769842536 4.015265538933914 0.9587504848864392 0.937179700694199 0.1274171878051096
P 2.1706624014202074 4.870080276940101 7.420906359726332 0.1467336287455344 -0.19675726896182888 0.15602842378389903
P 4.539927547260423 5.814520419378724 12.893478004039796 -0.1397343146095658 -0.8890314231237464 1.6247343378932597
P 7.6541075160069765 4.254344421254879 11.922422492187074 -0.9166371006561568 -0.0601851541303286 -0.2323832456955546
P 0.6079557797633846 2.0525543355464237 9.877068855391979 1.365339596605868 -0.4695500288226816 0.448544373105292
P 7.151774593122923 8.365256089803953 5.505828631960849 -0.48083742881104286 0.17330675124837247 1.3410089902803033
P 1.1589388560431757 4.070705845156014 1.670649754943532 0.44423520420697693 -0.2420318245289122 -0.37814139790169715
P 4.499288113564593 0.17257782307776823 10.587236731844603 -0.3329663440269556 -0.51225142434595 0.03949908653588681
Ni 1.8389412940496581 8.555860108000514 5.220446627329782 0.03211539247730598 0.29754091333981014 0.053190982200682586
Ni 1.6295075178115104 2.7444395409990423 7.838683428419915 -0.2687898093490467 0.6620580355898533 0.4186491282077564
Ni 8.556173783538688 6.811621149226156 6.590645035758302 -0.5487618605671583 0.04073835825962661 -0.2566133218875129
Ni 6.087658007119643 7.940253412831011 3.651796776799666 -1.2842662861726206 0.6639125723000888 -1.4422358928432903
Ni 3.2263743281506376 7.979047696302286 9.23754901331224 1.650053790494655 -0.016957453789944992 -2.2436685457104457
Ni 3.2631758493793925 1.5789134986542042 9.368485486122244 0.5487559470298872 1.6906227130559528 -1.0710696407078455
Ni 3.500591328772922 5.655182471737253 9.504526567028481 0.7994135655545974 0.050119542364210456 0.5688730294947364
Ni 2.180626212632806 3.8398406490596564 9.974776017807969 -0.8274362760197684 -0.7259358080804208 -0.06708856611838122
Ni 0.5645403175547109 1.3438505857969836 12.57721464267546 3.209849518733001 -2.0562965746182584 -2.2040285627213203
Ni 1.7044206169284548 7.100996058943161 7.10307738839646 0.10515349131090278 0.27684738954620064 2.0885716326018806
Ni 0.43340549109556675 2.7967956786207986 3.4291895505333057 0.02942473301902029 0.28138307263302503 -0.15997275314362772
Ni 3.8942172261773007 0.42707478067511756 1.2911217278298672 -0.6179638734841163 -0.14857968081533765 0.8931508446087586
Ni 2.995481454800912 0.542523062500205 12.56766783541361 -0.22381941528594357 -0.45224984698133724 -0.7039050535326264
Ni 8.317485150490215 7.349224118652583 4.206290251381673 1.5980105487451706 -0.8778867193608365 -1.415114611146466
Ni 1.4566722962774166 7.790307279832525 12.09415154616155 0.03228045730026054 -0.6903864502209013 1.110505735216281
Ni 7.934653381899485 6.580128602053449 8.95504267530614 0.9492284043286168 -0.9913962959459184 -0.016707542562667998
Ni 5.754700649098642 3.0174664197264884 12.254686073723644 -0.412259936851961 0.9354449773912793 -0.2590810667017151
Ni 6.261212837241314 7.359566185661216 0.04943803254162207 -0.008225216123269706 0.9616743434014534 -1.2543766977020396
Ni 0.6513315712422303 6.34008378358993 1.6715142078237362 -0.2621525065381872 0.22097706074114204 0.11385487573964262
Ni 2.007643379080748 0.627794834977803 3.0474104401456836 -0.9340005316352689 -1.1032215428500418 0.7436589363917967
Ni 6.633167445258291 4.427677833349603 0.5829899746500392 0.2987087083956662 0.673302498155421 0.44836825253874396
Ni 0.5693856820443931 5.434760825911878 3.9230689176635596 0.14619009753723855 0.009043084038874749 -0.6321507065074597
Ni 0.7295327280593324 1.731608905487277 1.3920329936107958 1.1265535327077632 -0.45234754890146617 -0.401704787043934
Ni 6.411749418311657 8.230292576628857 9.788369716372271 -0.08933452200077517 0.8669713579999133 1.9578590618749507
P -0.000988077945249356 8.213704676110105 8.272434885182586 0.8121878345011302 -0.2188088494452296 -0.17318359540694692
P 4.308785578630382 3.445098435769421 9.99521935972093 -0.20159325689789154 0.8972630670049193 0.17123521343132447
P 1.5510056015078055 8.689273694986984 0.5335344131812839 0.09005571643751588 1.2179523934367347 0.8418439668046662
P 1.0859816161642595 7.76191041787662 3.3271084595100087 -0.18923859198728055 -0.3384762181015913 -0.08788004894243574
P 5.9865806778185044 9.004056323296115 1.6422805702409942 -0.29088715546871835 -0.3792739688442436 -0.07114011047993554
P 7.910297398935356 2.403059072202946 1.987263694850535 -0.36950506238293784 0.6254581249786325 -0.06393510809106408
P 1.95614523631341 5.607513015685867 11.32211393752936 -0.23918407066747194 -0.9894324873513282 -0.9435514085484975
P 8.255617263460877 4.9907438758748945 5.297453049376483 -0.9511533892654715 -1.0304264132651868 0.8718274005406339
Ni 9.157406758458906 4.697927760989092 7.774896585157039 0.6795199398200426 0.7684225164897218 0.34700071063283466
Ni 5.114147522893151 4.288082993110873 5.365426538498876 1.3063124673393827 0.6187987106805859 1.0627948022935634
Ni 6.055100331407365 5.815627509513457 11.408842456109245 0.017341833712557233 0.03499348535604941 -0.23688550444128237
Ni 8.79393061572376 3.0978411635081167 13.434346889363688 -1.009666555010016 1.1013505510795742 1.277319165430826
Ni 8.442660141724048 6.533372495363218 11.321843623021463 -0.6741417062272648 1.0190469677836516 -0.18713054450534225
Ni 3.3510511288238383 7.936101824825761 3.196779041123883 0.4457894360679741 -1.3667562744477366 -0.22070220981320054
Ni 5.168939258811321 0.39741583596561586 8.300291118122697 -1.6599180848832444 -0.2745639928286626 -0.4874636758783089
Ni 1.1621217401805333 7.003553675584397 10.026180980488965 -0.5458089485864213 0.24614841780044702 -2.935963268697653
Ni 2.9486054133460846 2.571899543500878 2.507473355685193 -0.039434294736222404 1.4621012643086497 -0.33735110335821256
Ni 2.5334189355677768 5.761536930680619 5.395848452826231 0.5030705291776304 -0.24469703006590113 -1.2812210715883934
Ni 4.238983545635456 5.841385806648249 7.239576989133498 0.13300033831984193 1.0196491201440245 -0.3331224099888456
Ni 3.8989315850010393 7.420004081266525 11.47654563072374 0.35751497990059716 -0.22063716090322 -1.30438799662316
Ni 7.838991568507417 1.9149430317990903 11.529423023283933 -0.5844261467379871 -0.10239264073631399 -0.7077056582256392
Ni 4.7759591639855365 4.166653656832889 3.0542024381222714 0.706131371759984 -1.1684337178813167 -0.0894399372303879
Ni 4.132001735615741 0.18068725831468874 5.11616427208859 1.4882936064333014 0.6797305131689519 -2.159480600907617
Ni 7.324379170878947 2.954131638268628 4.322279162222555 1.2605781985270612 2.1034498352652933 0.8558572503646228
Ni 7.491337588947832 0.37680366280710875 7.965745085758353 0.8995567481351023 -0.3872243340395718 -0.7044547553885092
Ni 0.6732270463819156 0.765564821644448 7.094489136676268 -0.10709904507304781 -0.3942532158618952 -0.22081379569040036
Ni 5.522663782609691 2.2265796789753556 1.524765720164405 -0.08759671337406204 0.9875195865993315 -1.3297706983623228
Ni 2.4804908013764084 3.275833579919842 12.292615904314715 -0.10717592105757025 -0.7381534331925351 0.051259055285292364
Ni 6.512347008554411 4.139280853251611 9.61329171474023 -0.9112300707079727 1.5789501896796099 0.7264855099363037
Ni 8.757987089349422 7.8303285882031295 0.11900388630780549 -0.052093635371445776 -0.5513792435853472 0.19427821129371703
Ni 8.017980366040403 0.8271522458396544 0.3009984335565916 -2.2470492892572205 0.2133509116544519 -0.05155910302421443
Ni 6.555827973596057 4.860264077745467 7.325265765561846 0.4819782272837055 -0.3390292623915839 -0.1811100493428752
P 1.6310851212535051 1.6316478920719943 4.989413522562989 0.4772329992892362 -0.39681172061769077 0.8706706612283713
P 7.622952154465361 8.633227256916117 11.93069983609443 -1.4133282086700047 0.09602890330181525 1.2462000754285183
P 5.206534194636634 2.306336297431758 4.5184887468013155 -1.669262759322938 0.44059426502027993 -0.23760978420181655
P 5.8190594889311305 6.309786416902732 9.174409817778182 -1.82866806999887 -1.6056570095468348 -0.752131235528866
P 4.0341718707098195 2.1923982710654686 13.327944456514484 0.2665627197907409 0.12615143371880855 0.5729263736285036
P 3.7474263000628047 8.046165035720485 6.639093145204451 -0.005656941175461226 -0.31223759612003643 1.6170583094052409
P 7.584028710478367 6.3306458401913295 1.3823376517558699 0.47087954626738254 -1.2253710544983092 0.7147044581409755
P 6.1085174304082415 2.252107332332078 7.728540876065536 0.5203221171692265 1.094713505379031 -0.28114910224534806
