# total energy = -381166.945452997 ev
CRYSTAL
PRIMVEC
9.33488871265224 0.00000000000000 0.00000000000000

0.00000000000000 9.33488871265224 0.00000000000000

0.00000000000000 0.00000000000000 13.66255321597422

PRIMCOORD
 96 1
Ni 6.196293705194996 2.7751410362143742 9.766976354210051 -1.2190011464162231 3.2916761623925055 0.30248720160149195
Ni 0.2636340577171525 3.9261421392100266 3.2382028541611128 0.24545396283658372 -1.0866710946905285 -0.5717074136197379
Ni 1.2450687757224526 0.8211024048479687 6.811110940625614 0.20185910896476847 -0.747780414759338 2.605842621649609
Ni 5.493460605336555 0.7314398660657727 5.798578908126437 0.5559231542022878 0.033932133971070595 0.15510514063868125
Ni 2.8329613363900017 6.576634407544976 1.2020713452027627 -0.2574137063016212 -0.9016097740093891 2.153503300278259
Ni 2.3174794513402217 7.697801206478422 6.67565983962329 -0.6466728113830348 -0.13479651098831624 0.4455606078866197
Ni 0.06721026464877332 5.2039857089132076 11.684543575698157 1.2747364923053144 1.237954033369642 -0.6706979706530385
Ni 2.6065249428865793 8.939005338307961 11.35151862334821 1.16452512685553 -1.057667765479643 -0.3614127722931066
Ni 4.164191134169452 7.445731208796395 13.238658775346092 0.299252239603962 0.9490723383667269 -0.33749405669398
Ni 5.835714962075207 4.762660179141952 8.093013319905218 -2.4881971685192825 -0.3455485515673404 -0.8981734946343306
Ni 0.10788797534385167 5.894067350902758 7.011157603971384 1.373201515852448 -0.9956905524458981 1.3392999780089967
Ni 6.300247024981207 0.31897594496145487 13.172750727661235 0.5917177953033939 -0.47855814585856293 0.6067610627897614
Ni 7.958309943482175 4.421964748804548 8.35176803133535 1.0989722806553845 -0.6527776387291919 0.3578908751827772
Ni 5.750580777767535 7.843714850657504 4.513014452037196 0.7750364222618137 -0.2662215344012383 0.5826472004606933
Ni 1.0865997063357147 0.205905239450101 12.898870696183545 -1.037757399708961 0.6233750171973585 0.020237152982481278
Ni 6.7378759388548914 7.994846697580884 10.09584821460841 -1.287044620248706 0.113263779122863 1.9160673226501455
Ni 1.8650547389876269 6.935663559152147 12.766768019732885 -0.7172336523207326 0.4315712355860632 -2.2946298672496614
Ni 7.2976985448982505 6.637376527861865 8.410572228772603 -0.869034154066213 0.9629521816726127 -2.2874063529180284
Ni 0.31578714700536925 9.006263210888749 10.538023219245014 1.4149914553050404 -0.007774244628780159 -0.5511414165429281
Ni 4.337166620487563 1.156359329069403 1.6626640851068064 -0.033234850793729856 -0.5392444079950262 -0.19114326520916114
Ni 8.681241058561495 7.593549170256044 12.279724872895093 0.5198415779883822 0.30519405900969376 0.9662501356975939
Ni 0.7695028744555246 7.602641351781885 0.9167831463300722 -4.67325587500632 -1.4565147713598077 0.11258243678512223
Ni 6.990076624977742 2.17856697363381 7.493103901617073 0.07555315194596665 -0.015473413045250772 -0.3528731102532116
Ni 3.107061671239365 1.374216959921647 5.5556038924368405 1.1716578812455694 0.25904712813998615 0.33465118792854626
P 5.694664794872474 3.070627600915588 5.960903286517459 -0.8154978727109697 -0.9582673746024336 0.4237987907294959
Ni 6.633427869971278 1.92267900650202 1.1851649284045584 -1.2062857557320839 -1.9326473384960137 0.9444757201349798
P 9.093488410249591 5.904653114609435 2.2910047736960344 -0.7225134126624331 0.10094768075967131 0.10967503333034015
Ni 0.9198776619109925 2.237143399788486 5.087032623220542 0.2513574728052123 0.5220483558317138 0.10686044669968046
P 7.443668198409115 5.468405764253024 12.2287778512179 -0.8106228040068556 0.4826428574508979 1.1243372417827346
P 3.698006795975902 9.231850129526821 7.462759912635656 1.5776852069242568 0.8813903616387208 -1.7682728567402644
P 8.711103367289592 1.8909590549365076 3.794473535080671 -0.7224416788842332 0.564085635408422 -1.2185362909646629
Ni 8.130146573387398 0.846782683469724 11.648351278989905 -0.051295307839866494 1.090863021284689 1.5439549045513474
Ni 8.558291240412773 3.1152577034567046 10.317495810244527 0.15503366397079751 -0.6994786423301566 -0.8069155303585974
Ni 5.831588941300646 9.127290041979645 8.086126972562697 -0.4436451360314618 -1.2930895408912053 -1.6461655111838425
Ni 8.649586451216395 7.899938884877363 3.381058388824933 -0.7898045817099236 -1.1679390376330852 0.3703805230093557
Ni 4.7153322937867 3.5334233745363655 1.7912288387666118 -0.06828387197806304 0.9463760224814862 -0.31540905186948265
Ni 1.4676591951102218 7.148704387471193 3.143944749706256 -0.4098461852041458 -0.3344789240167401 -0.05845583014404771
Ni 5.402762827405267 2.326655646863735 3.741750084097147 -0.173359715973495 -0.6994758141166793 0.4535204861636448
Ni 2.417745490117493 8.97384314267597 9.020249674523418 -2.0136573997914935 0.7226661361902134 0.3580929638912543
Ni 3.3430103162569895 6.988209647251697 4.331479806334029 1.259235825566554 -0.4850278127433066 0.47850929489849847
Ni 3.35574310434862 5.574468768869666 8.409042240526109 -0.6756234329791139 -2.1930520091051586 -0.2727619066229173
Ni 0.03799112974729894 3.172527245203149 12.506277952506393 -0.4654745732017274 -1.2778416135931994 1.6207105614458475
Ni 8.823448751954377 2.4533020809100283 1.4844769304664391 0.8023801043820891 0.2948641378385954 -0.7601381649937424
Ni 4.239187629424698 9.326403216462392 3.8214028218011507 -1.005979850187048 0.6555441457307355 -0.7065226936611316
Ni 6.774141981183324 5.989255210265186 3.6924413353745607 1.3352787726647455 -0.6080651263131657 -0.621446175605762
Ni 8.531388091380457 8.917749796896933 8.510008395950647 -0.04437184124715584 0.7336619730800849 -2.3127579443089394
Ni 8.749843155105035 6.8392901689336805 10.07826408489565 0.8524132576800804 -1.3734146603045185 0.7483702258245369
Ni 2.1770173821211922 3.809848096654655 1.5402071490777591 0.4755856934938003 -1.300647041523489 0.5164284385417751
Ni 2.601698805464751 3.583486382260274 4.4192753673901795 0.638769754485874 0.6406399749253934 -0.984965195608594
Ni 1.4522379590930863 1.9235378162560006 11.114377913052506 0.7324255295698224 -0.7547326777074551 -0.9465601134678344
Ni 2.426053540998395 2.7193464068715056 8.716422386831095 -0.6356432930417504 0.12543101061301626 0.2476337440967219
Ni 7.046067286981844 0.8474603963842784 9.555124790702495 0.8572127359512527 0.36729134256107066 1.410373754027371
Ni 4.297474674031838 1.0635612011963136 10.019310529240313 0.12344894718598094 -0.6420561385466297 0.8787380116175383
Ni 6.745801259301954 8.114865360699715 1.780981931517211 -0.3606779510096111 -0.2681259505128028 -0.8863343359075573
Ni 2.5547629854319687 5.339677650042191 5.955001769925429 -1.9119730979761134 2.4296194680853898 -0.6514987720167683
Ni 0.6420293692765929 5.031803688128665 0.3994958938192062 -1.185309410590733 0.6861937522957925 -0.057162308143604776
P 6.034828136557954 1.874492311392787 11.713835522730948 0.17263209377885108 0.13024128751746603 0.2527427831885131
Ni 3.7380161286450564 3.80468590324214 6.6970283331867435 0.6893839770983159 -1.1765694596145737 0.5147443659711328
P 2.102749008179104 2.7703802430129585 13.014429149514855 1.0488671364688775 0.8521620609012227 0.5302851419192094
Ni 7.238683378977955 0.43747862216673794 3.3246728610317713 -1.118129827420442 0.798390780717038 0.8882225540692057
P 7.1341606309853 8.301684486856455 6.167222061533879 -0.2973588792359911 -0.33745446170529625 0.3797089994991331
P 3.42805115167836 5.054412788391075 2.896338695767204 -0.02534953450838215 0.12419302444085709 0.20054913190409332
P 8.470505947734114 0.06007840973527968 0.21501422377547677 -0.8084751615362336 -0.1467590826668311 0.6926942724184715
Ni 6.982431351189586 3.707481707935583 2.489794961032176 0.6017952341440539 1.2905521191813323 0.11159179073707877
Ni 9.076069508065588 2.9185062557974044 6.987808247040597 1.2197089711165252 0.10721962981131211 0.5101675452337279
Ni 5.170436119176171 6.171966985424624 1.9119784236651902 -1.2601750495513717 0.3995023800759765 0.4446926034593696
Ni 0.024264176016549743 7.738678683790187 5.680561645129926 -0.7582684587748554 0.3470932703466409 0.3898576578973609
Ni 6.998786076069743 5.4590055314023855 0.751283038827047 3.1866203730017313 0.1181398762682417 1.729240425428151
Ni 6.460993807193721 7.339677539068384 13.090652249136113 -0.07591824859486926 -0.6719382708180427 -0.7738413735124479
Ni 3.0199111509875634 5.029488635748369 13.23764780690744 -0.41234684013881245 -1.6531475989286302 -0.8294952154313263
Ni 6.501451214517125 5.361745326764049 10.311333850259711 2.388570263453564 -0.4259551749508664 -0.5067775457155723
Ni 6.987929600592789 3.3497781105139044 13.2157462912032 0.3758356325866559 0.13460856334722623 -1.2228896828373519
Ni 4.230916918098317 7.453955245679626 9.161301708703878 1.4693988264113276 1.3316702293778808 0.4964800204443062
Ni 4.229049940372271 3.2032670334624873 11.856254184606874 0.18859555908664294 -0.8118587332964856 0.12756296935435452
Ni 7.3489657532554595 3.687075641389906 4.813153525231716 1.155911674154906 0.0032233920333041262 0.19313278483536414
Ni 7.256092946273329 5.8057406346835485 6.218661031841884 -0.9182486681176508 0.45535702515175125 -0.8847435943816697
Ni 4.573049921284777 6.873586549761136 6.776448632163854 0.7688035539782243 0.19349042528509902 -0.6912403135807644
Ni 5.228853852224133 4.969073236533538 13.264617233649028 -0.42167737351111895 0.30504802035013273 -0.7115893095507616
Ni 4.035238982631493 0.6573619238517412 12.867720172824477 -0.7070343431902275 0.9833695689867 -0.011953058596818123
Ni 4.657241281840796 2.2279672042649725 7.984682870840293 0.07226959609868845 -1.3888489925817178 -0.5486682724120873
Ni 2.2582402480927994 9.021731121349035 1.149499119415049 2.7496071404644904 2.3465103581690365 0.9899335953574628
Ni 8.519990192362949 0.7019061454174598 5.744966775745316 -1.3239070404926943 -0.07553695399605057 -0.20117493841355033
Ni 2.2993510976203204 4.34237548834323 10.970852133385037 0.8218616101454684 -0.021874688585904262 0.01823323517857505
Ni 2.1908890266257095 6.753474537756002 10.151987301341734 -1.3780732421224524 -0.14423503069339677 0.3832239546309271
Ni 1.9934001227646219 1.67993456256159 2.9834369406426764 0.9360093345351816 0.059904646775432314 -0.22523557890717985
Ni 0.7872176926091067 4.649259952061952 9.319432855122201 -0.055800651909387766 0.5831115416916215 -1.044584964153756
Ni 1.6355191624589687 9.005367061580246 4.655528329777149 0.3596806200933483 0.623279886380391 -0.7344075929968579
Ni 4.632905227181793 6.147070837447807 11.20450906324394 -1.913201571066576 0.9048889589812933 1.184066025101935
P 0.5147789679359239 1.5497408708358102 9.125874872863301 -0.36886511480609374 0.11912229478616904 -1.0009903673922569
Ni 0.2467705814066469 0.3889764078218031 2.2815373296472576 -0.5668385155632109 -0.6562997929498374 -0.5656018149426323
P 4.571014915563387 4.400074434966665 9.964932935991515 -1.604783862913262 -0.6509398141895048 -0.7818709286851437
Ni 4.810949558026118 4.613283291281056 4.66509285666768 0.5149901634333519 1.2390051003419758 -0.4020171760780302
P 4.080961267142346 8.222851352374185 1.8891891600522164 1.5839702686020203 0.23685876496840497 0.5189388636684548
P 0.6490174669051811 7.438281967669474 8.524449468661608 2.3490806899993735 -1.004232271368322 -0.9857198143864315
P 4.9013672892985 8.436078878465837 11.240387707694218 -0.6202410995540674 -0.08212823406032307 0.6061383416040981
Ni 9.113511746361429 5.632606455258722 4.59914373547285 -0.10129709367929006 0.7832007032401608 0.2564310306733777
