# total energy = -381181.76937355095 ev
CRYSTAL
PRIMVEC
9.08768318181183 0.00000000000000 0.00000000000000
0.00000000000000 9.08768318181183 0.00000000000000
0.00000000000000 0.00000000000000 13.30074293368409
PRIMCOORD
 96 1
Ni 6.261331775920833 4.1591326009924074 10.456072645087412 -0.07504253085813528 -0.04932352882547634 0.13617616494466225
Ni 2.2838619574620975 0.9910481784105605 1.4988470010009447 1.4061224349501849 1.17636248581009 0.39999628899325956
Ni 3.3585895206435468 7.2122123956120925 5.158134319536709 -0.45458260887957197 -0.6072063778572963 0.8805161865638835
Ni 3.309988592129786 4.058713704194155 13.300117556073303 -0.7832734654596253 0.5048062809218145 -1.151102682802037
Ni 3.371557644239122 1.35539156397034 8.049942274666696 2.3710253125912653 1.139336029184412 -0.45061359692949493
Ni 8.220200015075317 2.283434836362594 7.038181449235087 1.1453578098984598 -0.36915102147762874 -2.067072325077524
Ni 4.686772561807192 1.9916111608887925 3.6077728788624084 -0.05678332753763124 -1.2327637474179542 0.7769004720537459
Ni 6.529627440190048 0.9631489916982856 8.087263571080367 -1.9377898019289013 0.3898905680178253 0.18758511554425758
Ni 0.5850841136248698 1.149037546812156 11.135541434019672 -0.8378885817013442 1.0488727928958324 -0.15494753201489445
Ni 2.8528417880990773 8.063164853385379 2.730775121702352 1.797130918622537 0.3614343695596614 0.8898773160638094
Ni 5.3522726732490815 4.144646834341148 4.176193816996846 -0.8174493400103856 0.9541890907680017 1.1978610220034982
Ni 5.87920379479235 3.488443422575695 12.861418748467976 -1.06298429259655 1.6359240359614922 0.4311374904827543
Ni 5.189157851653439 7.850585773394001 6.902114298457602 0.16538338263623775 0.9439910671890774 -1.6224627682502637
Ni 4.862037615531275 1.1546809979353883 12.762940071983426 -0.1511538693004171 0.12571794572581574 -0.8743293410268813
Ni 0.4572031476651107 6.0289506347418165 10.720212511935285 -0.8103602943740882 0.4079775074265232 -1.522001540208708
Ni 4.615915897704389 6.09038337160663 9.817597485256261 -0.055416786207407795 -0.46388640277900106 0.6618559468813763
Ni 0.030990816458045495 4.445785384857321 7.557122679912742 -0.17807640472287398 -0.04227973460481751 0.6223481185947412
Ni 0.5947552258395938 8.072597868306337 5.209262532683916 -0.23038267032575807 0.6482856643961092 0.24014669169105737
Ni 7.317365975236761 2.261170013090583 11.602051277812482 0.16863351414241926 0.7710329575293753 -1.1311948881345162
Ni 4.26049661681935 2.5112176099597177 1.2746965742861982 -0.15179330265662888 -1.3237440325522687 0.5126905687658978
Ni 5.909102271757622 0.20112859945148756 10.679338840249356 0.7722976831744118 0.5773628121333025 -0.5732112518587742
Ni 4.8522683563404945 0.24266476322579486 1.8014523035481802 0.431082983095735 -1.1484385057063125 -0.4462460639894186
Ni 0.7616532498548841 8.90562032758343 2.6756701384882735 -2.377594995388983 -0.0594719301133879 1.8620528161069025
Ni 6.755592677193538 6.027278501075674 0.5455672330060893 -1.3231015138722633 -0.4969865277670795 -0.7750572481974201
P 7.795950623389377 0.322321939514972 12.019482180967406 -0.1480394920411515 -1.8728378225375488 1.0290876398491051
Ni 7.507407601467083 3.15859688156308 4.356591594061349 1.6238935871595195 -2.3161751975206046 -2.9812036285926915
P 4.346384308551503 4.82585046195203 6.078293118185781 0.2293182336169857 0.9788539405045334 0.3040406621315409
Ni 6.957702746405588 1.5662894226126078 0.6784373369153726 0.2500266698089307 0.3089681813401453 -0.23361788943360412
P 6.2764536803798645 2.996845212412663 2.350267474447093 -0.39190785555817026 -0.7940152773571616 0.4572005061183932
P 8.622884335077796 5.766880033305796 4.565719172061417 -0.18137564429943603 1.4707167738918026 0.46444227528247106
P 0.9625946430372275 5.544322677415369 12.881423464985803 -0.5282611695106451 0.4517528527402607 0.5914784255990782
Ni 3.405581929271942 6.334314957838188 7.637552309254213 0.8835125501880461 0.2030148198357665 -1.3192057783622828
Ni 3.562462600351421 1.2040362041355068 10.581671693853863 0.9805634669964727 0.3547487300093697 -1.5897321107864621
Ni 1.6037034133925543 7.634008112896628 0.936122222550955 0.1493972916206266 -0.5809914100248252 -1.281629619880722
Ni 7.818642567760891 3.980914050303671 1.3112308773548258 -0.11033554973247449 -0.027370678703468994 -0.7442227793150666
Ni 2.221166032664709 5.077679244682926 9.093105588594808 -1.0502272500411978 0.5165832189520845 1.8533138935720082
Ni 5.248936630218046 8.62703740619425 4.1564953553950446 -1.0326187929308153 -0.5160327457652533 -0.4764665534368568
Ni 7.054986392579823 0.9553244966626933 2.954453897671051 -0.13856960487750328 -0.0789421230228576 1.3359076644979961
Ni 2.4952323756187105 8.67876449764906 6.9807482016445634 -0.7646473657180057 -1.2171864618049877 -0.9138489963880585
Ni 8.506443853206664 1.64975070299226 9.183138172528741 0.13406374658734976 -0.9848412684362201 0.3304458915979471
Ni 4.353627191877133 8.29775430152566 8.970127427596374 -0.8549308818956115 1.8327232139048504 0.3588126156660982
Ni 7.05232370147015 5.425192241385659 3.005116821450289 -0.23267069502898638 0.32617966012242533 0.15409212599313463
Ni 2.6536761281687142 0.3112140646229806 4.642703660789657 0.15783822329912817 1.3169630050746932 -0.12070866543668243
Ni 3.6938977591200297 2.7682808980802767 5.953704619765388 0.937847930405817 -1.7742475862664606 -1.6405952161849167
Ni 2.6343193634465174 5.899623818421822 11.608422652341465 1.603632008697006 0.43716492762375675 -0.261786124337704
Ni 1.4843730483375444 3.8130645458816135 11.488170796233481 1.077910317778763 -0.2620195805047488 -0.7375183707116976
Ni 3.9460082600229387 6.459561404505475 0.8023524380278232 0.3019935497945251 1.024488450514197 -1.4694312223111596
Ni 7.926740556667246 6.845833369067443 6.569794998909349 0.514616582144017 0.1322788867727851 0.4705620150269638
Ni 3.9488345294260387 3.7229874323011347 10.892669471622204 -0.4662497608048551 -0.3682156541475529 -0.44021502730399026
Ni 7.1567320910914285 8.953185260238818 5.429961457407353 0.44603986151588343 1.042439635675979 0.8270110155568917
Ni 1.604721233884989 8.085511465804103 11.902421919117847 -0.15376842410512873 0.6102893876579941 -1.2727991660732856
Ni 2.7348564001233564 4.805594016615985 2.241041704084388 -1.9437429341885428 0.66192742354926 0.8385830366652075
Ni 8.713888392321028 3.6612911526302443 10.09038246491175 -0.3488063963830057 1.4156758829665745 -0.4533988729841159
Ni 2.2934949014083554 2.6652810993190643 3.5387028532311464 0.5287679339437344 -1.0885888805385315 -1.1981394724758656
Ni 4.131633272330732 6.280016052103385 3.238398552011451 1.821975488470043 0.11678747600540532 0.9883603373330719
Ni 1.9810421855968134 2.7578118873009476 9.310120366642948 -0.42376459505745084 0.41018325682859036 1.2055920720991689
P 5.345402384925147 2.134642203124784 9.586989351024334 -0.11085414124010586 0.9438378294406647 0.1536943763340837
Ni 5.952786763785603 5.684618327077943 7.758216746168951 0.06608660721642812 0.4721586700901223 -0.3051884025827389
P 4.790853794841617 5.516932400949312 11.997043782950705 1.200745028419513 -0.19356652993867307 0.3849597063751112
Ni 8.51697647776677 8.359941316076831 10.194141085200803 -0.6702117750452393 0.01673325359428086 0.2378509536783452
P 4.573767224098027 0.6683627315768618 5.969506282910438 -0.3401430642810529 0.548739491969655 -0.2290176716574314
P 1.6490236883548066 3.27371056172086 1.441680931289686 -0.46128856014483777 -1.8803019921250779 -0.7172760755228937
P 2.594715241071242 7.347682485618568 9.609055154039341 -0.7295759759361693 -1.0454280288803415 1.1339045737561957
Ni 8.543876019352547 7.2872857446121255 12.520215330050041 -0.274432866567437 0.754132839339927 0.545796350180931
Ni 8.926767365850356 6.332906366978122 1.4217298321013705 0.006080658976441141 -1.6070289501936967 0.7491862939679291
Ni -0.02933867569443261 2.0795890197036244 2.248769869680518 0.3105776919191103 -0.2056579138855684 0.33312935196738114
Ni 2.4675876440295443 4.602447951545565 4.739227576667753 1.0440041519496213 1.18728736025271 0.059708728714542324
Ni 4.871670559477533 4.587462362331056 1.8486037466285186 2.7786917165352722 0.5075601895178677 -0.473127718871611
Ni 6.043045631025445 8.061747174842345 12.817579765829533 -0.05187380605115583 0.5985530730576725 0.32280662988513437
Ni 8.087056371908693 4.8061574529600115 12.23696224838352 -0.6588675536770137 -0.23062923911892538 -0.22690988128580922
Ni 0.35742765882100386 0.7387740992142252 0.2753077204474533 -0.9349621242175897 -1.2883255438436587 -0.7351601548921661
Ni 2.338397142954072 1.3643065809621127 12.381674511968622 1.0227015338171033 1.2230568045428356 1.8608009459776726
Ni 0.6152743052134197 7.287867356322089 8.464685949967933 2.3060640772285317 -0.7993680570286427 -0.8708773779225387
Ni 1.5779034814459263 0.24763209073619535 9.126371052099786 -0.1672029523434798 -0.8744069883423522 1.6977683229617986
Ni 3.9354483724139278 8.117182040948167 11.488250767843603 0.838766099210291 -1.2568578122526806 -0.7700523387836609
Ni 6.5715216586733005 7.779065708434521 8.814734410218785 1.562469161305451 -1.0837382373144497 0.01989751025487541
Ni 7.73765313714858 7.7621353550648235 3.5141761056683585 0.018187983762936417 -1.217900714263193 0.4027661384289128
Ni 6.809437198779931 6.531953887029899 11.08389431417498 -0.8126326353480328 -0.11577291869796191 -0.5944387937789827
Ni 2.2613608544329145 3.959358066303177 7.091463443245751 -0.949480886659055 -0.303009135543233 0.3291719099815299
Ni 1.2245561922776298 6.394838926406185 3.5245905903498786 1.2443591655650377 0.950768495122227 -0.3854842114200135
Ni 0.22441033444763642 4.235778119145934 3.221626324325401 1.192877709856294 0.2695889082115744 -0.45440828808523676
Ni 4.334852038864899 3.8609657228068253 8.289036487254297 0.1620563751455338 -0.24107074616722354 0.3741767568269943
Ni 1.4014752043019183 6.050233988253265 6.360574726543005 -0.5425595884111881 0.763366442123053 -0.47162568040478775
Ni 0.7882837960248028 2.9110211344612873 5.265259017597172 -0.5069971179255461 -0.48777092270608247 1.1568506410294075
Ni 6.0072583354968 6.414577373813045 5.20615000126732 -0.8565478486737442 -0.0016082250273843272 -0.7070536264639371
Ni 8.465567455215846 8.916443757998517 7.474099425852156 0.8637631354752608 1.092248074557674 -0.009541620941848085
Ni 6.206596661403559 2.559382329691006 5.974148271370578 -2.4842278994588898 -1.3261246169693033 1.0651851569026105
Ni 7.457225416116862 4.67125988698053 5.861198368527519 -0.5895264440790299 -0.3942984672775338 2.0798717908350377
P 5.868762047061924 7.198453643598286 2.0854769294987 -0.12482860114232695 0.660057974440689 0.7705560178929569
Ni 7.775085303294463 8.426299577110392 1.270401735315442 -0.5773049623121735 0.02144685701986629 -0.251256942671606
P 1.1576072318511381 1.7272141126129217 7.663103238687514 -0.22667179713307414 0.39823045534208834 -1.7904535066023617
Ni 6.768160942738514 3.611999560210903 8.203432331230752 0.2601061655321198 -1.0062009650589188 0.3219669075926584
P 3.363296940421057 8.683390128279857 0.10767813795322546 0.013208785380790155 0.44072204884739585 1.01066645702944
P 8.190256099695205 5.94685250680739 8.739744667902059 -2.3744950163074203 -0.7815760231525443 1.0364713339076859
P 8.961182421250808 1.0230549978244472 4.501636466843086 -0.4239921376872246 -0.11906187386187883 -0.5762199567781109
Ni 0.14055646616375939 2.978951564648341 13.009589784190764 0.15308990998086539 -1.0109917015793428 1.415590779451936
