# total energy = -381175.71845825826 ev
CRYSTAL
PRIMVEC
9.15449023014681 0.00000000000000 0.00000000000000

0.00000000000000 9.15449023014681 0.00000000000000

0.00000000000000 0.00000000000000 13.39852180187450

PRIMCOORD
 96 1
Ni 3.805127851256242 0.8720054525599295 5.997110978335237 0.09533187723479065 -0.7851858519909897 0.40624278412360365
Ni 4.890886983594673 8.366325031876006 7.20670289694683 0.6683343555168684 -0.3461658734363651 1.2031047869009408
Ni 6.27496348166708 6.939240739768608 5.936040460074953 0.023151498415798836 -1.5188640230209907 -0.18417891807618603
Ni 1.8876283751879153 5.998992226030894 8.710579628445991 0.5059715048745093 1.8677323829901833 -0.6769863747649115
Ni 5.699493931086505 1.6745484658736483 8.17706419010104 -0.3804870153157383 -0.06993940530361503 0.1909766577243098
Ni 2.8031963838770277 2.348996362368721 11.249599401606943 0.5558632474986297 0.8016337131343678 -0.24436047266208882
Ni 8.805960259789236 8.302518236553766 4.675949628258759 0.1353241013570121 1.174788456454751 1.01067442744924
Ni 7.866947602201951 0.6307498539138421 8.637222869152424 -0.8351513852758391 -0.535781132036774 -0.033810777901857894
Ni 7.983649040762627 4.622770280381224 9.17930050199736 0.5012015942896917 0.5293050373941272 -0.7285007405941195
Ni 1.7339244880343432 7.262613944641317 0.8766211464195381 1.4331372729761318 1.0267713330111026 0.5016024292725362
Ni 5.360988354238523 5.021292693690126 4.722991806038155 0.3334216863968193 -0.5146538631398555 0.2679529152700482
Ni 3.202570164756226 9.269836577230915 3.8674964761989803 0.6459613871383069 -0.07754781377849225 -0.854196060612116
Ni 0.5741421495301119 6.064144731383601 10.662382809454275 -0.8159514153086206 1.2617585919884078 0.7962143418910094
Ni 6.476032700097162 6.5576999054156255 8.314211266634842 -0.25768752878829815 -0.6949568432004031 0.08788313426622929
Ni 1.35223718184131 4.140099794962993 9.823072617940742 -0.4851293713181774 -1.3688681785844168 -0.07222640156557884
Ni 4.000274114654259 5.073372587318277 1.411346808342912 -0.39607972754767273 0.23872152920875658 0.229436761472721
Ni 3.474247964580917 9.221958594514229 11.853163166558309 -2.143952166254714 -1.07960801719616 0.8371187934148552
Ni 4.721611308945674 7.1373347489476515 2.716818278002922 -1.5531597109790671 -0.07451519759975554 0.34097404482278054
Ni 5.559933730987863 3.759858898190464 11.346122513302586 0.9493975829166295 -1.0789418443670709 -0.2909046389702151
Ni 8.387307122963318 4.92593952581689 2.775007878259203 -1.0418511101623604 -0.4873996554095929 0.8913158482825487
Ni 4.046778923870467 0.43442632310141527 9.557366291945131 -2.6242833448533 -1.645464885572392 -2.677527805999737
Ni 1.281207493906553 8.084092105077636 11.861764725365308 -1.5857679839323915 0.15185115247775782 1.6178458383035428
Ni 1.5152420308381236 4.399574659613431 12.287744200540779 -0.16659102979109375 -0.03005671017606436 -0.794977898380747
Ni 5.320305800664344 1.0386958992320279 11.039590823688746 3.831525550961382 1.9861108576317923 2.277870645513451
P 6.656678251330124 0.38412514688088323 6.60003118263938 0.39853513106670074 0.0101946811448147 -0.27557572192262864
Ni 0.9127768046871398 6.911191382398832 6.6107501749841155 -0.7773051636913322 0.867564511499222 0.7447650249717819
P 1.9043170104637321 8.909625704585368 5.498605971558488 -0.6337501897840957 -0.526975360819686 1.1578618559027416
Ni 2.6000674051962296 8.409991949191225 7.8461879652217155 -0.32715359399992044 -0.6506721623504149 -0.5561905489310616
P 2.286150788496817 7.967894163467135 10.108340258175167 2.6085157976063975 -1.0694639867836226 -1.0391072288686363
P 4.343851278964009 5.44547514247797 6.788146797714945 0.09957316900964787 0.0019869485230417394 -0.2923503702778062
P 4.070617215838776 8.25886047372855 0.8293189811240514 0.2431098880844394 -0.44356286073030055 -1.109747774004334
Ni 0.3028341911015501 2.2054631136086935 8.553669838893303 0.16474729171413563 2.669273536410745 0.8383747773091432
Ni 8.066652801621556 3.9549502346484613 0.7610356401902519 -0.2728842911333945 -0.5331658059011141 -0.028275707016241627
Ni 6.26747510884447 8.405542867049673 9.787057023370188 -1.5014355431318982 0.4179690714215963 -0.2747969347750751
Ni 8.276519484944703 9.127292013391234 10.99031128855257 0.6132399856458859 0.6327927109668328 -0.06967946677400903
Ni 2.3038189542029746 2.810446739959555 0.3692536778706999 0.04124897934745799 -0.4175003593152939 -0.23549145230723315
Ni 2.53947383586511 1.589805351914112 7.7991457874423205 0.07132857234165779 0.7184433563581174 1.206852169758515
Ni 5.592358934579164 8.71450690465736 4.769405070354332 -0.13755401912879536 1.4630291754395577 -0.47584126114803216
Ni 1.511708397696892 7.124518462943185 4.26429418359128 1.9197409148469906 -0.9882137844528787 -0.581736772831282
Ni 2.5665436628045453 0.5450354485649671 1.425013546468675 1.1080163931355238 0.10903585708444448 -1.6399555257183887
Ni 6.126962841785496 5.424694450170727 13.345878743845581 -0.44690889438439807 -0.5900614906468934 -1.3257466648045941
Ni 5.763007782728643 2.4688744089605033 5.848923586857588 -0.4533399947217225 -0.11760457259006199 -1.2032914489904503
Ni 1.1196582088202465 3.1508198327681893 6.500212454542589 -1.1100748183264495 1.1142523467429069 0.47548207803640047
Ni 6.5528571802039375 4.461275922234936 7.092587601812055 0.28967256633532695 0.5521940261771587 -1.9143081738671937
Ni 2.0204508706442095 2.555146322750572 2.663894340396476 -1.7261599867306145 -0.45718585083037394 0.16725540284797
Ni 8.871771888422174 8.52049579801974 0.7323509612142541 -0.3211531534421114 1.1163372542963936 -0.4187591714230594
Ni 0.48130921275475586 8.176726389419922 9.006057271380978 -1.5533021500942024 -1.807947806732383 -1.095325685041733
Ni 6.11919983426279 4.628372828263176 2.4200141494664735 -0.4680880995651745 -0.4813231101982098 -0.4042527502767683
Ni 8.06557257180118 7.882528544187383 7.117066708080587 -0.8974695265887705 0.4360462406382813 0.0795249921095211
Ni 6.210277855304535 5.9443765386718574 10.747395980868905 -1.1708520975148222 0.7200531240473986 -0.49268867172267405
Ni 1.3345049347051292 0.8149336155330376 9.976392016514179 1.1532369555362203 1.059315585495711 1.3580885714704094
Ni 7.025805597238779 1.043794950163805 1.157299640815366 0.19577562177484992 1.0898422933296588 -0.5176746522440504
Ni 6.192838551848457 2.255117067386 3.3480221946209223 0.12983171078387318 0.5123987485570918 0.30062469447145646
Ni 4.432457587704892 1.767851027986168 -0.2462054313908126 0.5480758902437272 0.3462113819623199 0.7083340358382575
Ni 3.906843389681694 7.006224143121955 5.0469151957600555 -0.5793160792049312 -0.034438641293843913 0.9921532287166009
Ni 3.5271242988393463 4.69718712961716 10.392375704055166 0.3205821114299898 0.569905841634625 0.49606401595281013
P 5.851577473509513 3.3405008656343003 0.3751262832077468 -0.6378901800943982 -0.22331882150044116 0.7840545666000238
Ni 3.215697703420802 4.332408166460021 3.7396613468964244 0.26790380719966767 0.3140491954074785 0.2278593896832721
P 3.973671166704986 2.6042601616176904 9.318349881553823 -0.13090977433940035 -0.8319665597899543 1.1547351373483017
Ni 3.1163623323961795 6.695877777523787 12.467592395694464 0.8023027141769344 -0.6306764359547784 -0.4968723707867185
P 0.34825144690537985 1.6272929884771778 1.262911330186176 0.2672890564338042 -0.42747726802234765 -0.40626798093458416
P 6.706771620627583 6.552106512023676 3.4075117324576567 0.5019965793871612 -0.1860511953982344 0.7971599936337304
P 6.928731385244944 0.04415759797939072 12.606628958964924 0.15755848727518026 1.1473043921018693 0.9973933940696177
Ni 7.642836532433839 7.117890612180875 12.52240582003757 0.5645828867598148 0.11989696816866448 -1.2456326329608225
Ni 9.329432307151686 5.882821747890403 0.04068346902317985 -0.7955491975031848 0.7429367135137914 -0.6996848448036918
Ni 7.176982845151471 8.764014386594615 3.0001433354586724 0.8587026902332179 -0.47594127706100614 -0.00930713633353881
Ni 7.654517661677912 3.7279555005293443 4.857606750637074 0.06059370242265694 0.5083050381036923 0.3279354664712675
Ni 2.913352362085422 4.015479722549558 8.19956043383488 -0.13362280239518923 1.092995751356976 -1.0570707553255922
Ni 3.528158756209707 3.1371613336834288 6.289721435001224 0.36750474412345735 1.178685477516312 -2.147894438731914
Ni 4.137664700622144 2.66399320888851 2.044533587495603 1.7027500924471062 0.3788731338613991 -0.4050395078441218
Ni 0.8910358063785622 1.3278953929228254 12.430906692455677 -0.6928665363302776 0.2555730535484566 0.3074304045393802
Ni 1.0879379009591907 4.50150990579896 1.5501554248122924 1.9606505085771588 0.012373433963688368 0.7539351215068242
Ni 1.2428867987531966 1.7523067039607503 4.626522705833532 -0.31288268590320306 -0.7447403423814336 1.6522078607231803
Ni 6.579533364073235 7.128042941594413 1.3070368874505556 0.6701940344334264 0.9320436650192142 -0.23342479958619156
Ni 8.317861161799113 6.18851763256695 4.832323880146261 0.01460438017673614 -1.873940054462792 1.2363900313166318
Ni 5.423769846680404 4.088202991134906 8.909132277574194 -0.04434664443617523 0.7953345103892174 1.161869691510554
Ni 1.0606117482996664 0.08919951969308967 3.0011347667260178 -2.1491949027108923 -0.3276955825463195 -0.8696815578422248
Ni 9.143138435586756 6.93766616748806 2.522245085679105 -0.17786146049859045 1.4981435026441876 -0.4996152236391783
Ni 7.767310133007223 2.352172970399828 6.851320102328964 1.3393637413673964 0.23706856698636591 1.0307287749969538
Ni 2.1770475766387896 5.356383645766918 5.787732229329261 1.7159349665684964 -1.7737277092072488 0.47589911096916104
Ni 5.389944006118615 7.862947090070557 12.135349405457664 -1.2009532877755766 -0.6189516913186823 0.7708396105716466
Ni 3.900554255049502 4.350671374016386 12.65309440387412 -0.9121322708072679 -0.21265671380090473 0.8070610547975263
Ni 7.40719995975171 2.4997433492512626 12.496398829387505 -0.009385812090274158 -2.0071059718262205 -0.08224059126847126
Ni 7.809622185801971 1.1264416859126107 4.747752870598785 -0.5125231899500979 0.8980143433486469 1.059103212374589
Ni 5.05791980819289 0.4565655417251317 2.484943285263104 -0.8718865359133436 -0.739958604722074 -1.4658440191805338
Ni 4.1846638522985256 6.859221342650718 9.344637915046988 -0.4863398466865108 0.36442404831560465 0.14969322559449058
Ni 0.476397828868044 0.6319857100642727 6.94099657095122 0.28995281657990707 -0.9140608552885484 -1.435594476267373
Ni 0.8579478177110298 4.082371581002873 4.210994911894703 0.06121051007104941 0.6907644023856103 0.449078134121575
P 7.9023113970842775 7.129617513874963 9.94959499337684 0.9630038608461543 -1.1274205086937488 0.058661775507266714
Ni 7.370124275238789 2.5138412638561762 10.194465700125187 -1.6721912458236428 -0.5844258896276708 -1.6800343960171453
P 4.137298521022017 2.238492513540206 4.311054403078578 -0.0014945822676554904 0.21796141384326978 -1.0139366431402796
Ni 8.543510185887762 2.5413688152957703 3.02498404408233 0.8477287077202174 -0.44843201589714377 -1.3594450854983038
P 8.646507352913659 5.003468901653913 6.903936449071303 0.7785274661342075 -0.23308284286574052 -0.46369408426253694
P 2.483979317465768 6.1128740816705855 2.508725734842393 -0.325061230247266 -0.3448762080906641 0.9130372991200404
P 0.11248121866920428 2.8380932997691914 10.806617292148546 0.8208627365673089 -0.7839321820895467 1.7581900185829655
Ni 7.8990432441531375 4.731196059979014 11.716350228909626 1.1328601916520813 -0.8937632813817769 0.02188908676360746
