# total energy = -340870.5823118672 ev
CRYSTAL
PRIMVEC
9.27656326728638 0.00000000000000 0.00000000000000

0.00000000000000 9.27656326728638 0.00000000000000

0.00000000000000 0.00000000000000 13.57718803105965

PRIMCOORD
 96 1
Ni 7.002348831432453 1.0742260240604709 10.914701347156157 0.2387809216917823 0.42496941399882937 -0.30108080817226857
Ni 1.6324061112257782 8.693085972358508 2.698452989470929 -0.17186307682331048 -0.7432213346337457 -1.093652153994052
Ni 2.814592778360651 4.6720575905340205 8.43243866416821 -0.17972705295241947 -0.23077836310227998 0.12900124446277783
Ni 7.657172154510213 3.5075242232591397 10.657522545964097 -0.0868562356636117 -0.08218891209492943 0.19883652008836078
Ni 8.452127242004703 6.968090483359435 13.102380270625476 0.18279952123015614 0.47910681927318133 1.258708235197858
Ni 8.351921805805212 1.1470099393003539 5.3489637724224535 -0.7137114981000869 0.7563992667766005 -0.36384863542810886
Ni 8.175796975988181 9.407919383084344 9.043832828746474 -0.015924384539740318 -1.3034433733217035 -0.39821425739217226
Ni 0.4332377674100322 3.7206718169969415 2.4687402367420663 -0.5493226181666345 1.086106223325994 -0.8557484927009004
Ni 4.298694472948651 3.1261183253381875 7.260821713197538 1.3723913612463268 -0.7873219244973859 0.43997822870283587
Ni 5.783686717608411 0.39880130932266367 12.78675169972357 -0.016048311712114297 0.7224578768341494 0.1841282673439087
Ni 9.41023852389622 7.925645171456103 4.649073977432016 0.6096227006082727 0.10559237862053428 -0.6928721927572326
Ni 4.2493153267822095 5.991379692156682 9.834948346712824 1.0245367872536288 0.05459866118148662 0.2429113989203881
Ni 8.595580016064039 1.769986820749447 3.2174544394167452 -0.40693518220493785 -0.1787826867612792 -0.772931717213985
Ni 4.0564091940504525 2.070111471495806 12.92043254205799 -0.23959081918758734 3.1143893434504624 -0.3955187128378801
Ni 8.586813663795152 3.4738874049237056 5.742132352541235 -0.447022794254443 -1.030293744342064 -0.06702968785598779
Ni 3.2417414096550248 2.572734221371838 5.209417359146639 -0.27439892800570803 -2.3336227035730905 -0.522224733508578
Ni 0.1247976053686141 1.733882436590178 0.6537862033066892 -0.3128574890922225 -0.7979482938629806 1.3205941740693772
Ni 5.337957130129295 8.578715224080085 1.648813568641631 -0.8017357859298709 1.3577635840308229 -0.24904065174657752
Ni 0.08694180606821715 1.6626477074126274 10.327977274878293 0.22157715621898616 -0.4043100858772649 0.2919323089037811
Ni 0.6446794011666188 4.834026384835367 7.297331483170723 -0.35593298012545793 3.0256160932697957 0.6888101068727169
Ni 4.676343362754365 1.1953593869463226 10.57724038465126 -0.8140302870265077 0.4679798561220843 -0.3807140437248798
Ni 8.928942592926191 6.867922153412934 8.421441298438298 0.08886503856352437 0.25553474411135346 0.6833657959286941
Ni 7.6529605947958474 5.230506698033506 7.019894523158774 0.7526086893859169 -0.4761688196907799 0.035487137163016304
Ni 1.4879421917724647 8.425438569541646 8.375808028511198 -0.26889059659296916 -0.7769552365510812 -0.6413966505857599
P 3.6619604482035157 3.01951206049792 1.5714776438162 -0.517211853675019 -0.30161405496791927 0.2436063681048837
P 4.020212044258709 7.302343610293347 2.8344149387079085 -0.13245860688375896 -0.16134700778333505 -0.19632789473389414
P 6.698532108513588 9.413299789767894 6.443787477517673 -0.25705015231461537 -0.9469246958961047 0.5206797576189613
P 6.594495451692878 3.2938571419794784 6.95438528881758 -0.048173217271117036 0.3047783116285138 -1.3578211767416357
P 8.260380679678883 2.2207071992557172 12.443167277818999 -0.12864231846146232 0.5645240084974213 -0.3171944259046795
P 0.7848584760559122 4.038301342591333 9.4441694092866 -0.9548269814623168 1.0195712157182375 -0.29149316448383344
P 7.557226462081649 5.245052349205586 1.4011933382197954 0.08134301915486636 0.2900888279371391 -0.3864607164006699
P 4.358825155918944 3.2164256685525974 9.480529826591498 0.2311933391525115 -0.4535037739930964 0.6013224082726935
Ni 2.319233577507412 2.5527432275734756 9.54216980640216 -0.15911786134250014 -1.347682031425105 -0.29727763237609445
Ni 3.3073823711943326 0.7900988066344248 1.0780340532735695 -0.8839784340808713 -0.0060271800306863944 0.47464621239866644
Ni 8.67683343354889 4.646250191579477 12.997130239331993 -0.04532083542398647 -0.9050411682884414 0.7675365143403426
Ni 7.397242852315269 4.209787890784614 3.4303172426628485 2.310667380328498 1.6150389649823669 0.15531802798043573
Ni 3.4316975952740765 5.322994033611078 1.8273540155283101 -1.0841208174648491 -0.3304952567786437 0.05515119125084695
Ni 7.602394048533726 3.113817602472003 1.223859772211616 0.9222071385447667 -0.8123091905703429 -0.041450039614670545
Ni 5.621550945168609 4.0508525326652 2.0495175010863567 -1.5020302392931035 0.8078331570768604 -0.8952858886738903
Ni 1.28767974438544 6.071742559569773 0.7681309772080206 -0.6781297443407354 -0.5994377896554709 -0.30010533163287667
Ni 8.54641423085229 9.217100477083275 12.403358761955003 0.23700171830417247 0.12179855606675152 -0.08265196777427701
Ni 5.412253125178521 5.536883752408679 6.796373876397618 -2.4849784044716685 -0.035405890303119664 -0.9464325867510346
Ni 5.506317476508168 7.764910160066674 4.83668319254945 -0.7783549451120853 0.9534678963312612 1.1441236803810424
Ni 8.601841696256102 5.685633444082338 10.52917758280964 1.1707579951391192 0.02897453285547913 0.35471222034447947
Ni 6.157986768081778 3.1818611938924137 12.933533832332433 1.1498605828648196 -0.6665875480290907 -0.5922492423268316
Ni 1.932243188511465 1.9190148093205304 2.8366543010758547 0.37126806782063154 -0.8245769521941025 -1.0809329066551705
Ni 7.546150245564135 0.27208994895609034 1.432257765566698 0.6366491085984455 -0.3723314760881394 -0.6937728501946309
Ni 5.756088941947099 9.230217537515239 8.761128636122596 -0.5802025955749427 -0.7890522769249314 -0.9618219247229112
Ni 9.066866535290016 8.956967090496887 6.728487986552414 -0.9975330049712757 -2.0625692950008476 0.6849082007151495
Ni 3.1976127982866682 0.7802239050574613 7.695523322288026 0.03255890777262779 -0.3340022414906377 -0.37989540447832637
Ni 7.476780105599332 8.755276052369748 3.730128345571443 -0.5513226793157989 0.6468445610742085 -0.31797681259665883
Ni 2.215586536343097 0.21327282734164296 10.26314615731049 0.44751438917888087 -0.11171983167451083 1.5219676016469788
Ni 4.519328253227185 5.150255149379385 3.9673226465594134 1.700328627489807 0.1229360121053044 0.39191711152955083
Ni 1.5329149703963434 2.9325350034893627 7.003208768845496 1.11992908541271 -2.6400750604699175 -0.4000569670278659
Ni 1.4467171447005758 0.975959389579706 12.502988123576825 1.5526228646389904 -0.12637023459783397 -0.47049130969002845
Ni 1.7381032728677903 6.55553388605338 10.017317231251747 0.9260861618841986 -0.8473343004952762 -0.08897328200661452
P 3.626663125046779 9.450127745860469 12.343632537142302 -1.3801321815340104 -2.2400152652285743 -0.24123503965922968
P 0.5230608740229228 8.594049383128201 0.7016885206041285 0.09315492418812989 0.1636671712760794 0.0920002417583964
P 9.525917267592542 7.995980073998646 10.568157701575633 -0.8391975303207548 0.6948097760995776 -0.3620249519558088
P 6.446775458539693 7.837369395592894 13.449670679547424 1.2235849091321638 -0.570513907532269 -0.543325005822303
P 0.7396639875704182 7.011087354011598 6.494865162414731 0.5566266080272155 -1.2005539954546292 0.41129731582837553
P 6.186502923504593 1.4848994790272847 3.2552805537147504 0.9553440303080515 -0.47754770231617755 2.0464407648701015
P 0.9935292003704705 2.5706098883881605 4.729165041541954 -0.6498303831754099 -0.0031223476790655904 -0.1913265848645608
P 3.7025732421010695 8.161724429541723 9.348789641288457 0.9118777315943006 0.8213417330862565 0.7960281940221323
Ni 0.9679815451868562 3.413923700091867 11.63069432828793 -2.031375385896547 -1.5899249435235587 -1.3526638009104122
Ni 4.862199307418023 6.503575855304134 0.4338073483934287 1.8207979232221738 -1.544652187728688 0.02838035091490596
Ni 2.4232516812016267 4.0049613742798185 3.7262999079191994 -0.33183634418757046 2.5514547909273477 -0.3379774240883018
Ni 3.68298114052235 6.648522156046317 12.059027576709008 -0.7176473428193834 -0.5438615950520633 -0.31445594392759396
Ni 4.908814037736709 1.126332479821677 5.612633384918788 1.0823629542334778 -1.1027775133340878 0.6311564609149903
Ni 5.978967650531527 4.45037555860852 8.85505569431618 0.6574429054153451 1.237727776291449 0.3971169105629354
Ni 5.841739450411264 3.342160206809209 4.596801471188678 -1.111953523406401 -2.0826992329815037 1.932372230457756
Ni 3.2275204381966076 3.9203683940258682 11.333489939651882 1.1307472590741365 -0.2135601994517806 -0.9054908542313502
Ni 8.492879184350969 2.7177454580567537 8.263511519774914 2.152329848795448 1.3980316875222503 -0.6214382051859619
Ni 6.472035540262634 2.134537203249692 8.738115338018197 -2.270444528252709 -0.7762458691888825 1.195698981355173
Ni -0.33356016765932267 5.534555335033557 4.731419246411097 0.5276906417191558 0.5859394980587199 0.5295876016315525
Ni 3.0213395434576777 6.576582408061956 4.772314047831374 -1.7065255003291384 1.0302266385495547 0.807938315196157
Ni 6.728680939067963 5.71649657000677 12.05138368859307 -1.6476302686548272 0.46070851927165174 -0.4483055176216086
Ni 2.9436483262598676 7.7585464376788895 0.5875932862541549 0.2943524883094995 0.650188794956093 0.8111830473856998
Ni 6.923006385976587 7.410675315897649 7.329169575892467 -0.7294327654900857 1.0305994485079413 0.18583110896762836
Ni 5.573785921007234 1.7774173479106943 1.3506193707070764 -0.8254141033834171 -0.06370627990970963 -1.179735001826749
Ni 8.82438644856362 6.661565003972302 2.5912743606782906 -2.123915045098181 1.7271876566641804 -1.2374853212633399
Ni 1.7628902498651098 0.4526276399099562 4.813004764860207 -1.1521714903861835 0.6640750660198821 0.5902669217894801
Ni 3.882974567575197 0.532146340067524 3.496926677405196 0.6535463985744163 -0.7266487749870453 -0.09438879659523099
Ni 1.8941072370009937 3.162000071979517 0.24402185153813039 0.7657693951375909 0.7771742945404229 0.7275098374357599
Ni 1.5035732008445017 7.6077187958377905 12.371003964660373 -0.989178205248677 0.4326282160956678 -0.7408674896895885
Ni 5.545065681192974 8.00980215323742 10.885374420105512 0.2988133522943306 -0.36856583839812007 -0.07105474985498085
Ni 3.269942161927424 6.881994699859391 7.82002593294537 -0.18331219920051656 -0.18620520447759545 -2.668557741290643
Ni 6.245019484469821 6.853580586632298 2.7655782011298364 0.8910577095251558 -2.6884891901072474 0.11567881632225885
P 6.740137494678625 6.005656322994584 5.068106543541151 0.2955048567463878 -0.5711284011878165 -0.7389306776781919
P 0.6293127741471354 1.0671294531761335 7.958322793151745 1.642147648273701 1.7789930713712458 1.112776790638645
P 3.374489029726746 8.648159576550867 5.578703427184733 1.4004528953692332 0.41768342186037744 0.8817438883233976
P 1.2756944246696704 5.779920432929926 2.9365424788122825 2.4591730133727907 -1.2714817328134425 1.0802266246167653
P 4.7780516021999535 4.67372737191857 12.519415989431824 0.3688908258377066 1.6936044213920962 0.446652812509534
P 3.319172883081905 4.49166554162314 5.928492942245557 -0.15642180256757576 2.466242261514746 0.28164841047926975
P 6.846391250115486 6.480449383128116 9.539861797466182 -0.9900662642805852 0.031450762310113574 -0.22381632996215003
P 1.8442086032926925 5.0155594510256885 12.486342258485513 -0.2880525142334007 3.1010376047339046 1.614845103804006
