# total energy = -340872.8866835556 ev
CRYSTAL
PRIMVEC
9.20777225260978 0.00000000000000 0.00000000000000
0.00000000000000 9.20777225260978 0.00000000000000
0.00000000000000 0.00000000000000 13.47650542757527
PRIMCOORD
 96 1
Ni 4.8124053756813305 6.797499803913369 7.034021693234633 1.286582593010623 0.5890549037592501 -0.5907559456107568
Ni 3.234469431982326 0.5290491330450191 2.0218260735993967 -0.40155334906773427 -0.35150296937856235 -0.022395336976064658
Ni 5.200687926943764 6.546891864486073 2.4504865480707285 -0.4378503837265556 1.159112954701023 0.10851212337049053
Ni 5.954242806423152 5.9303394294619425 11.435771472453085 0.5700655071409407 0.05609812854514855 1.741839345139084
Ni 4.732095185444167 8.771342334361664 4.611457714745905 -0.4891912000923768 -0.5672516918412295 -0.3216879428996589
Ni 4.473080549882208 3.8713618360770714 12.131334881039024 0.7684466848594379 -0.08769878616956508 -0.15990307624795685
Ni 0.1469219775832667 8.14433907774625 13.32321010893813 -0.862841909212572 0.05463105708131881 -1.449665095427826
Ni 2.350910015016294 4.014376955861939 8.961175293321022 0.7708460383295498 -0.08389792436623617 0.6734068849437692
Ni 1.1217921103856763 6.825804496046945 6.994333432173037 -0.16164088487467002 0.03801633134277324 0.17389887630641665
Ni 5.185780543546153 0.23062799425467304 0.19381900359976764 1.340424578531743 -0.30200769086191215 -0.34883570695904437
Ni 2.863405414971612 5.122136421221081 1.47294155740729 0.5518844653565398 -1.5285578532699868 0.18431004433741163
Ni 7.251332486372589 7.6503697157131025 1.224654897383661 -1.0165367997672878 -0.24184439110845443 -1.0135026409266545
Ni 0.21207341223828824 4.835378767637501 8.114284908870522 1.0183774525204525 -0.5154506480095381 -0.24196857539114458
Ni 7.383694213574977 0.44989359745767676 8.490656285850589 1.0616375487606684 0.4911416389505283 0.809597962286767
Ni 2.8003782133924577 6.637505551957287 3.440201451418925 0.027542685504959016 0.7476526309322221 0.15024395589163803
Ni 8.241646815699282 2.7933895141961713 8.452235014261204 0.15185680890471265 0.09086818503648221 2.8559970752856554
Ni 7.479537915727996 0.31510378069262684 12.097859103966536 -0.15566358424531257 2.4575758440889994 0.41684652778137893
Ni 5.211958240272161 4.5395882894010136 6.139667083992283 -0.10119424955283864 -0.6027501418581555 -1.0416256244151159
Ni 1.736558237578345 2.7015235696884687 6.734129152426413 -1.554485371769026 4.137527707694669 -0.05205481171371035
Ni 6.780133945304416 3.752001483400581 10.541012642005576 0.30684419301860705 0.3629376935780652 0.29935842616452313
Ni 3.1063709033673965 2.209303684397475 10.673958141973502 -0.7786693910287106 0.45078946038572687 0.38069656022338305
Ni 1.4531153820325295 1.7217797629933134 9.010984737724591 -0.9284832013614654 0.6737737813648847 -0.8677555444641055
Ni 7.779342982699109 8.03099140039937 10.39785203941794 -0.9270948056543711 -0.7506248261866686 0.18676339097391062
Ni 0.7643353393199834 7.580031542906212 4.7356843750972795 -0.7411775647308397 -1.7625945754085641 -0.717118466899107
P 0.5170072083956081 2.9088089403166535 4.411749419965709 0.4159052469140321 0.27837359638273995 0.06051682643813448
P 0.1795948369088286 0.7647386397479115 7.465000684777935 0.48877056761519055 0.4408585744252601 0.09929934652297093
P 4.51454314867124 6.252206318928841 4.842876656643477 0.250119229522737 0.3606069885623596 -0.2874737589117953
P 0.44557331068179085 0.5992188036183225 1.0169514938918254 -0.441260437849369 3.651955849522433 -0.15744355896387077
P 7.240909288098286 4.570821053134614 12.840077374156774 0.7342777522872128 -0.3876459949580227 -0.34913909713207614
P 3.3859096634465122 8.587859055199093 7.758329925471382 1.033704055575194 -0.7430943221375783 1.072597904426914
P 7.306394964888782 7.47402246010405 12.450593208605648 -0.9911738955224672 -0.4642193606383876 0.9115092925112883
P 2.4193698022684504 7.186021757256308 1.3089216673897892 0.9026541561135034 0.15326063123077474 -1.7473571896335198
Ni 2.2241374056164696 4.246237870831215 11.708671428684347 -1.424295763425102 0.1675320535481244 -0.15991901708755685
Ni 7.1502035229038015 5.162309931884317 2.5504958464245386 0.7615129338540821 0.9543006766452017 -1.74093971614295
Ni 0.9855723265782241 4.7848465131062525 3.0930868502310562 -0.9279491832348665 -0.39252723430972397 -0.6126558310076415
Ni 7.894274396886254 8.453324293727503 3.2587540107178796 -0.637765738701392 1.5049821228325757 1.1680817338585365
Ni 1.3402373010743331 5.838841795847325 10.162915728491406 -1.2317448192351366 0.8612056591607298 -0.5080756957017056
Ni 1.306279036731905 2.3345109725016884 2.2088534243306785 0.5450741273029258 0.17085314750155736 -0.3573409162165781
Ni 2.4389547340082403 8.9694107248904 9.70371767709717 0.4446779481713503 -0.4070740217756473 -0.21009460950068334
Ni 5.301734020461608 8.470947969961616 11.551629188536339 0.12853767456279797 -1.7966568071995963 0.41333131553926883
Ni 2.9845889065688724 4.364290719837253 4.344730649082747 0.12994998152929232 -0.601299525454558 0.8812805755337338
Ni 3.1041978690981953 8.550153227519525 13.128205144262628 -0.9908090559838808 0.15807013680427617 -0.1789832328078595
Ni 5.357137186553905 1.3887346379212884 3.2065864558213337 -0.2473331821371676 -0.3093098809502802 -1.218766661807914
Ni 7.445229756037137 4.8045327303416405 4.760549043489441 1.0792454916504188 0.39715496288972246 1.390321463362186
Ni 8.36648579291041 2.453410936561823 6.262437995538739 0.431662766858605 -0.26681443079023076 -2.2506709451702074
Ni 5.229112320117592 4.491155406960349 3.6092377358002423 -0.8874522515620846 -0.6831914751343588 -0.23489829880792445
Ni 3.6608169140450855 2.164406586530425 8.442693920575842 1.3056182694858354 -0.3783028631802259 -2.1470603728663926
Ni 6.705164263016984 7.342590717906702 4.923345220564666 -1.4008758418392648 -1.5487181302679456 -0.10911684683402498
Ni 4.843389529562098 0.6961987448765087 9.881040956572898 0.10946137465763728 0.0509230121021123 -1.2351093648319955
Ni 1.4222325136473601 6.434722781997065 12.411510818963176 0.37958121567201725 -0.5278729329332909 1.5741247432665082
Ni 8.00984114736397 6.176104080645173 6.755772021281315 -0.5473595809029927 0.656380782699418 -0.40752859281456266
Ni 7.531469751652968 5.614890357307048 9.142906333409742 -1.1340763234473694 0.4027357994116096 0.5117433743612798
Ni 4.012351245949973 6.384899525935004 13.194509392013005 0.16828461544343276 -0.152569261590705 0.18729740910050968
Ni 5.590627877225081 4.842652907775928 0.5911426665102033 -0.02057962392356456 -0.14778803815197775 1.1614667996451804
Ni 3.018722118585516 6.48677431896229 8.609896937486827 -0.6082826416406105 0.005016993598617166 -0.7081337469019934
Ni 1.408015713174283 0.9908391723493383 12.315558465096698 -1.514232180675934 -1.4062355634892811 -0.7678499318157034
P 2.244523413548719 4.968145636822283 7.0238471048131625 0.4164894015522762 0.17229759325756777 0.23502094042871785
P 6.692761393692349 1.6733560883249756 10.256631514459627 0.577759533351089 -0.541575370121048 0.3233923271852753
P 7.183194971151882 4.223862984076306 7.159662667415454 -0.06534252996155197 0.03637288220207929 -0.06296323109609801
P 5.302461434475451 8.719060603088263 2.092981896588935 0.5812420925830506 -1.4009573458094777 1.3914440070024037
P 2.4993485127018373 9.017355595397726 4.028572578458665 -0.9521242378191731 -1.8204917048356646 0.46565763574681096
P 0.30896680043659963 3.8490053648668177 10.234247419932391 -0.09801739448675377 -0.585673645991843 -0.4032659608834668
P 8.729806073394014 6.414106579756638 3.216639501648086 0.08085476666453817 0.15717976377952286 0.4851185726849
P 4.20151572063838 1.1749577878024822 12.067819667526534 -0.24925276775738364 0.0890110772230854 0.30580829555492495
Ni 0.6017049021466456 0.5919198024946124 4.9839351248088315 -0.4611152677917672 2.0154378887306836 -0.23715804137637866
Ni 2.715381267040789 2.463797303746817 13.263981113443913 0.4154000251428394 1.0420262022876443 1.3284782048031443
Ni 5.492905789517328 0.07177366451268813 7.350827070253312 -1.526936258506164 -1.714230325172564 -1.1620563536000632
Ni 6.37678747851481 2.678761956495822 4.74096687408135 0.23359654927736542 -0.055290545042188645 1.266326156754432
Ni 8.143906312446875 8.579553644560027 6.238099090946456 0.39509525214721636 0.46014159102458824 0.8970077564610035
Ni 9.133603721027649 7.628897190646253 8.724595395034095 1.2041566252042228 0.4115770518523234 -0.5588534404752052
Ni 8.42146540147566 5.8143951603188135 11.530175079014144 0.5719899778571633 -0.4258469315077763 0.05667277010169594
Ni 7.366328354966023 0.9956824605934047 0.8773717939622062 0.8972062456250548 -0.22192168404259843 1.4267300838982075
Ni 9.038708419424324 6.013393535852589 0.8838319670269155 0.3225803728069412 -1.380143751498236 0.3902453802540828
Ni 6.503182569249222 2.5730659379527814 12.841236632692759 -0.013139622705751563 -0.454990642951268 -1.3728089083997197
Ni 4.884493025230373 2.4190659457816555 0.885203004326424 0.13863105424305802 0.7182970605882403 0.7467725423201139
Ni 6.049911560901956 2.266290587330037 7.425473559732064 -0.9149005775810244 1.5304147039730676 -0.5255519981095981
Ni 8.21272520281979 1.837981849761601 3.060905685947763 0.43345945374771155 -0.7770603946703779 1.5662813359626895
Ni 2.8289959697851548 7.685432912734785 5.856417591665336 1.4410421296455054 -0.03218892602771875 -1.1743431413872163
Ni 2.4626831632952353 0.8122083892031594 6.508491770773041 0.9151530599114626 -3.4392335725909158 0.7527809532977229
Ni 5.034386350943602 4.434582853782508 8.46673633489919 0.13720871997423464 -0.25123817361852857 0.8227956919239636
Ni 0.7151547857663562 8.135831096115988 2.181293640978368 1.2339863069711456 -1.0242660500907457 1.65367493218701
Ni 8.871568936142394 1.2656359296799857 10.331371923216114 -0.25614846643595246 -0.4692713212399983 0.9829733619895459
Ni 3.1865613925643075 7.129725437248281 11.093859262630044 1.1393676537532957 -0.08087379282793168 -1.0269297129658377
Ni 8.812768102061389 2.873091991459745 12.296462466067478 1.1029909148964745 0.7128882308678433 -0.747488594550532
Ni 0.7368584259186169 4.9810181025356 5.53012452604079 -0.589896425823939 -0.7826474018398522 -0.9037031662033082
Ni 5.179316687372513 6.789157562184997 9.445763776907295 1.3328575648177627 2.2394375383482337 -0.8084278532380658
Ni 8.39963377328805 3.317735317136496 1.2350154828061397 0.5522004539350619 0.8994773010474186 -1.2048911893774024
Ni 2.8584792567766013 1.8201648103086185 4.5006946590912476 0.18535725465500338 1.1971809652173382 -1.882097907683236
P 3.5322672045861263 2.6788079953574573 2.4508511758548828 -1.0111441679968072 1.4933303975262604 0.9572708150171191
P 4.105082721056425 2.580763635618256 6.069454136889042 0.5621616789128318 0.30663413389032995 1.1975293496956925
P 6.75705006008032 0.5149142817456531 4.95241323702416 0.10951845314781783 -0.017493528799073097 -0.13712335934928
P 6.57557407528506 3.1112326071561176 2.3489275816342645 -1.0986064126755337 -0.561720220500039 0.03721080472234237
P 4.210649830786886 5.167447868842851 10.357138953296332 -1.6484095700230126 -1.212464630849286 0.4820311920088278
P 0.9941815937040838 8.2192811367167 11.162738003523083 -0.5198536621732401 -0.15578031232883494 -0.31943128565499823
P 1.1628863982816244 4.122936591598716 0.4065010495888787 -0.15062216516666316 -0.227997200812717 -0.3888045340424981
P 6.973847059522422 7.5612937262205175 8.136669003397756 -1.0267682476873092 -0.364236872005463 -0.05253946465961274
