# total energy = -340861.47933224926 ev
CRYSTAL
PRIMVEC
9.26677453685672 0.00000000000000 0.00000000000000

0.00000000000000 9.26677453685672 0.00000000000000

0.00000000000000 0.00000000000000 13.56286123461695

PRIMCOORD
 96 1
Ni 8.489560881103705 0.9781265849266406 10.766145132791234 -0.5121362389243245 0.5001960358433127 1.5174702279972576
Ni 4.0384696058588645 4.730336258856513 10.048655848225048 -0.07530606893216708 -0.10245254743997195 2.1337040061641446
Ni 5.130179046169069 6.613919382865143 9.028728696759764 0.23788026425438388 -0.18807876735122447 0.45081080054196554
Ni -0.0006301406678699746 9.307919006401724 0.12055980992531738 -0.21812982110033402 -0.6391628761592347 -0.37418986945311683
Ni 5.916131260944421 8.271346874530144 10.803903532280984 0.5292996380774885 -1.7949228552276248 0.6970309521206125
Ni 9.04138803744178 5.006096935245848 12.72713084439571 0.00597858618093809 -1.9025960276365879 -0.9710251884887342
Ni -0.22177986141174305 3.4941948707607016 10.587847757494877 1.3086120620068367 -0.10016375140579523 -0.5536369292712724
Ni 6.624909777454758 8.386644083201293 3.539459357617726 0.39714879224213534 -0.7228360861091744 0.2889410874859411
Ni 3.2196388750599425 4.871775038469741 5.093301916936883 -0.7675280296999104 -0.16458556932529073 2.7369953652377506
Ni 0.41805941267871266 4.100677463261969 2.732333489724489 1.567313890992262 -0.18714494268304546 -2.5607336451261125
Ni 2.489157572606202 6.787208066529386 10.94653123906609 -0.16390011322249193 1.5447015529093848 -0.2415782819312614
Ni 6.0201137379174945 5.769827424704257 6.733811058347028 -0.4846017809494815 -0.4351586958270054 0.8947634405115171
Ni 5.602997682885682 5.459093941248139 1.3063242316572838 -2.791099346171006 -1.6444225603508067 4.997774859596871
Ni 3.955365171896248 0.8276072929539169 6.024202238839027 -2.0610546581285343 0.7108210639261694 0.55534388466005
Ni 5.742712842436793 4.224027498997517 8.259036891247813 -1.0871254086191278 0.5548769723259606 0.5971970732504103
Ni 0.6196080519420185 7.7094652678297315 6.629092799476472 -0.5711273727465519 -0.7255318877737827 -1.8266898632265764
Ni 7.7296853698487356 3.8471941128367444 4.66242377505428 0.8275501758898135 -0.9735060459290588 3.43091245431973
Ni 8.002981084213754 3.4567849019931853 1.1070589256375538 0.007095473394200683 0.991759592822608 0.3800111041205842
Ni 2.97719225309697 2.308390601898267 10.983463042267987 0.4452883280618396 0.056307930563109475 -1.4851249788973326
Ni 8.459351196144057 7.108042334220478 12.523362812633067 1.5036464347402878 1.796678918686783 0.3716457628750245
Ni 1.6723006647816376 5.094353695845754 9.519758398777817 -1.469655422506824 -1.0930592576050595 -0.7077758493419424
Ni 8.411812642817983 6.5248749464303994 8.033323284049146 -1.0194146355357152 -0.2392048966030784 0.9698843900160714
Ni 2.344892426762088 2.8954685685389503 6.806237388021606 -0.22434829120622007 -0.21225382193553122 -0.3423074189222233
Ni 6.589974037486084 3.285340306459915 10.481405878562207 -0.5421623529727695 2.705608880506669 2.7830944735886582
P 0.31799029458860245 6.300285398981918 10.627518819247102 0.16519389233325096 0.029893702235638836 0.901975384878924
P 2.719344251869293 6.864177895754798 6.498265403374684 -0.5470685320251353 -1.0707166282438012 -0.2708222663980433
P 8.118936233876356 0.2586884976773213 2.057200778168598 -0.4394092435732432 -0.6396727259161177 -0.4149014882398661
P 4.638428389092772 9.3039342933549 4.116057528945261 -0.3600580580374251 -0.4277153521750827 -0.9447701114469471
P 1.9553172256260036 2.742585322384262 3.7543085983603524 -0.489695393422305 0.5554274455127919 0.37557466561578545
P 8.55325142243121 5.734261544067714 5.876502826355022 -1.07565314631347 0.5304998290331767 0.3330347353710458
P 6.47117398804354 7.793950451196946 7.690562901148537 -0.6612645931542807 0.25845731707478714 -0.5576031130078719
P 5.768752478859067 6.230793856800198 3.273613203295364 0.6451535465250309 0.40687064751558955 1.3700678553194727
Ni 0.7082530903946272 4.493644303875119 4.889004752348721 1.8437169939121925 2.0302286738866133 0.5859857779156231
Ni 8.173786272304627 1.7132227410950758 6.376768722544637 -2.0282023874852038 -1.3592609945119558 1.3896318934943293
Ni 2.856316446160265 5.240342461751983 3.0136811044764524 -0.8952185257710648 -0.6400041411136075 -2.1193220264108596
Ni 8.221936432749516 5.619677877035181 3.4328682836151616 -1.0469984586912549 2.9726912202463063 0.9965251325320514
Ni 2.0935126341546058 4.6905169287118476 11.718081959548257 -0.16368234078473098 -1.430496492919175 1.9729663498300345
Ni 6.137968576358235 0.12427207980103375 5.810478911201493 0.9850060761488584 0.2576908712224078 0.8325977656160499
Ni 5.236885954853226 2.7086781943881406 0.8548349298706163 0.22950283882396605 0.7082885273123027 0.7246227456959521
Ni 7.3602005358882705 9.529580253099516 8.844328223759595 -2.4409739738662606 -1.247301021802181 -1.302916554283956
Ni 3.2442143611068714 -0.3082175541719013 11.70811276351157 2.4835984934050064 1.1133899987426117 -0.6202665534753641
Ni 0.09503077277950867 1.4011363085579436 8.46460916401096 0.5309811395449694 0.8214774873331724 -0.8641356883233311
Ni 5.083196499314645 2.102927677074545 4.451778869914781 1.0676238482510902 -0.04562473981765045 -1.0076760069425486
Ni 1.7823714126192782 1.5652879525380718 0.8871806063588537 1.2610260846977572 1.1571357763699943 0.10899883319892195
Ni 0.2582353524029266 1.7787110366809158 2.679465614367651 1.3485034988851354 0.003054470555607643 -1.327457476848114
Ni 3.9123580713141224 0.46008423516092345 1.7934035076942663 -1.2072303790335404 1.5404399494195535 0.1824789046659438
Ni 1.4300023112111049 0.16785557375876997 10.44272543500697 0.31911606840742457 0.4399309204046681 -0.548631762747197
Ni 1.1724693803173627 1.6893700634612918 12.211213366029147 -0.9651540744199378 0.8113815365497509 0.5682119988719698
Ni 7.156544632097411 1.5339199207624856 0.25758204479873786 0.9479387389829157 -1.2347712647662863 -1.2748884445021464
Ni 5.282459951979469 0.2240882149465432 12.861647343436895 -0.43150155869039236 0.1658374394545208 1.0665049041552987
Ni 3.4498348210975607 4.427600001817629 0.8296589568343052 -1.0295226705039946 -0.004443123373018155 -0.7910361401241796
Ni 6.501392939777715 5.89790351544883 13.236796029988566 2.546454509499279 1.573322301969871 -5.313656223117081
Ni 7.399667728600892 6.209081804082267 10.667448424008647 -0.8527647274822281 -0.8157778658452337 -0.9567882189537458
Ni 5.420859229547676 4.246193623667296 5.0113141293048304 0.9310129097618547 2.1633339132154354 -1.7639965979624137
Ni 6.072433946899757 1.1995839625848266 10.490913589227421 -1.8135057604361349 0.20614873747905788 0.19757693664964684
Ni 4.501085523820701 3.5737223297557033 12.307197689907536 0.4219468251224217 1.1733800061429984 -0.6790761674144047
P 3.6855908318516786 1.7970036495982 13.148624523714313 -1.0834119643232825 -0.9385249018681835 0.228203146175936
P 8.50299770416858 9.055195531487755 5.580778737601096 -0.23740049640448788 -0.4630515655825315 -0.4067366930408866
P 4.370952209131024 8.012312726162946 0.760843889193093 0.3295125811504002 -0.8774046375180954 -3.7430397501141472
P 7.8062937948675755 4.568714444322393 9.126002028974927 0.3256209594054779 0.6017684946711765 -1.2504061430900657
P 6.809142521835978 3.232389956809782 3.051426530481864 -2.111781237949124 -1.5863174286779584 -2.7291033640841835
P 5.411323718558879 5.428050246581016 11.528906317634068 0.26921147026749764 0.5674764062575258 -0.9330638787536124
P 7.310039485370915 8.823461300878572 12.538444488176575 0.10036892543806585 1.271230793144901 -0.34160910730361815
P 0.7202053761801962 6.7609274939693975 2.498848765407061 -0.7483157184375178 -0.6415750851451532 1.2205348094519304
Ni 1.604662477505418 0.49730794176043663 6.3957841438750656 -0.12395494028812201 0.4249339327752037 0.18231743938741504
Ni 2.946500695861891 1.2159583531749185 8.47228576002954 -0.18180476141705465 -0.8206179675463544 0.5638400950565193
Ni 1.0890406092462837 5.241880746323548 7.160159600840589 1.707360337525608 1.2040833487641265 -0.09435357248192137
Ni 3.5161756599399308 3.0016287375259862 2.611731979313798 2.3159365991472374 -0.8859761812371904 -0.6016638507725123
Ni 5.2753986697895145 1.188167296366947 7.927072300671741 0.36048537538283076 0.12252000761380835 0.16390062744312417
Ni 7.175661987947643 2.583771340531973 8.428585504712759 1.3387579894625976 -2.311472906948929 -0.44643889672651504
Ni 8.263553517152516 5.827911567442625 1.1915950762646692 -0.00558495028694522 0.9560693385098502 0.3999150421333629
Ni 3.83909495189971 7.286538945169176 2.5342339439403183 0.04469837134863915 -0.3887708525910853 0.6220110469702964
Ni 8.605228760755955 3.7882666936163747 7.085903083196828 0.048422100057129505 1.2526252622285716 0.12047572349026991
Ni 9.561550625219388 8.757657934958797 3.637342443596799 -0.8842435148167997 -0.6814930043860133 0.09438853948491487
Ni 0.5990682462018155 2.35374219643585 5.200964230074827 0.24934121370613183 -1.7586805850661391 0.2764869208829884
Ni 1.6631450915484678 7.762072746822347 8.668472643551235 1.2036804568987527 -1.0154343107317285 0.19011636660654355
Ni 3.2604590168535785 4.706057309594465 7.987521324269527 1.3238754159238102 0.7938324719223941 -2.4212901222840877
Ni 7.864211135664448 1.3841225105254542 4.048161725337176 -2.059336646996163 -0.49739507605940786 0.693327020906464
Ni 1.3342023961458136 6.258093774558212 0.55079761768807 1.1040710353345307 -0.5451129509606613 -1.0428206731644816
Ni 2.0749976186486614 7.037216376506799 4.183247204334349 -1.691126649275565 0.887223166270414 1.3344922722077082
Ni 2.417136200978475 0.47930445220841045 3.7926776782914646 0.7264723973101811 0.7158321439875156 0.2769412348115875
Ni 1.8377311236465608 8.433218891976507 1.6061683283661363 0.0050002814280688075 0.3488056250520573 0.032460948742182805
Ni 6.837016979614696 7.247321955368798 5.451374718066733 2.4984371010797357 -0.18982068974299565 -0.4859654940662276
Ni 6.434236624776926 8.082981148709658 1.2740749296241325 0.9770276859290722 -0.8347256105923301 -1.7880289563212688
Ni 4.065750990067824 8.178642062157037 7.549454945385943 -0.023566731576346513 0.6762057878451451 -0.6871532879955844
Ni 3.843496669800272 6.252459575645493 12.909049675177412 0.2204057616187043 0.7893500106710082 0.48303417935204557
Ni 6.022013426695632 0.9297354883440375 2.27442416654517 0.47691881048292706 2.229101446529548 1.0145951026598847
Ni 4.2535051087694935 7.188329668726735 4.786482719041181 1.8973008406759193 -0.17034201219309372 1.761536052237063
P 7.968972021697831 3.1490816538075603 12.40118873058506 -0.9004142110393913 -1.6587628882328787 0.1437208100611396
P 4.517598916028706 2.7835907996684477 9.2909941694047 0.03479036820630782 -1.585424998770676 1.2432371361454524
P 4.2013795020523075 8.64231439241501 9.645947774228592 -1.3143787892872847 0.2860048876757526 -0.2976388723702551
P 4.632404985649898 3.254991619882354 6.630611623821529 -1.251885812959386 -0.8936990038027448 -0.4895938348474343
P 1.8925904288493587 8.155771662623168 12.943947421370526 -2.022751905893594 -0.9780376152508253 1.0392936338478296
P 9.111834057399832 8.70497632176996 9.227954155649025 1.6114383921153024 -2.0650262411817724 0.062424584983808616
P 1.2533868554914893 3.8778949368463507 13.864228019664154 0.4885021444451522 -0.6124959083910096 0.29513718899432395
P 1.534596395302993 2.7420015155890294 9.13169831527698 0.8612244282138072 1.5341332904752352 0.7251891597223833
