# total energy = -340873.11191653373 ev
CRYSTAL
PRIMVEC
9.24418613918025 0.00000000000000 0.00000000000000

0.00000000000000 9.24418613918025 0.00000000000000

0.00000000000000 0.00000000000000 13.52980083134832

PRIMCOORD
 96 1
Ni 8.68620699804791 1.0034933745541832 5.142610041682492 0.8044686114800016 0.037157325776587626 1.5886226797723673
Ni 5.998848154247611 2.4473612850721462 7.937311449699545 -1.6872576532384618 -3.007629683994704 -1.9666784599387936
Ni 8.865655138022905 7.782181065598143 0.9128966534017537 -0.09522749044644245 0.6171069248004598 1.3566166149105732
Ni 6.908143272756811 1.3204580264943588 3.64575353219736 -1.3135071853156088 1.77741749935401 -0.5280824778409356
Ni 3.75542285804773 1.514613666505427 6.669447295427201 0.4356245797198304 0.41712986334975255 -0.06850292996740459
Ni 4.74411629070515 5.352670303825591 10.278170467068625 1.2391105155715885 0.04472176838740685 2.795096126035225
Ni 7.030841354453089 4.10189495192074 6.153745584860069 -1.4014365994387412 0.008602396957030346 0.5063137187052764
Ni 6.856218679606205 8.003246531256606 13.248434683655798 -1.3440745165795045 -0.3550351509015369 0.02691790743676654
Ni 6.0010205379738695 5.07540943105256 0.21978514588788053 -0.18857884691609458 0.7322841188959518 1.3935685095445742
Ni 4.355324313007415 7.653252402491237 1.6517178877719205 0.5195921809817373 0.9452671056880236 0.14589390645305841
Ni 6.021912398490224 5.371472978290312 3.9939700039816257 1.1505858910666185 -0.32884692254194337 -1.0337752751327616
Ni 7.00465257531909 1.1515575028243008 12.60854287976082 1.9689698270761316 0.3815159708008849 -0.3673957293494189
Ni 3.2711476824413954 1.6046890155635545 11.5226958247721 -0.25898722143632813 0.3094080970910413 0.4700102562885518
Ni 7.015819552090663 1.6730312831730307 9.973059634924963 0.2258019929336111 -1.7820028047318472 0.8647324413670656
Ni 1.3131551194997038 2.9849846584837407 1.551583939851914 0.5594975018171074 -0.091201657116501 -2.7468316346018824
Ni 1.5331020386437948 7.045271528907084 8.189263589852365 -1.9026453928172846 0.7435884881651774 -1.8336115300470743
Ni 3.3057856476426273 6.512566062484296 6.541468934648206 -1.1541684662115543 -0.2074785120340749 1.0847561370560028
Ni 7.545160134784269 4.317275243146654 2.1181175807762735 -1.319126331274599 -0.38706441142293985 0.9785495218902373
Ni -0.010754686072888486 3.300571926699608 5.939880415730894 1.052157120074059 0.5237242008722399 -0.443105718588224
Ni 8.22339682249422 1.7880751788040234 7.599865379104486 0.6912644819504804 -0.5186753255944228 -0.8392677214370579
Ni 3.345803729136124 7.5948014139757865 11.10133657955263 0.7590109933678347 -0.7385907778402699 0.06740686868974843
Ni 9.205526883042518 1.7534741903470685 11.518339039877693 -0.021640203977594988 0.7116666997559163 -0.7010125624761798
Ni 6.570924609139054 1.8894469232386937 1.2750348694062101 0.5068125127185659 1.0714532492995095 0.8698628206150955
Ni 8.221732869001766 3.2831096592149196 13.405299277063776 0.611962661595359 -0.07293242649366795 0.41282506532681157
P 5.34362024566386 2.4149973896439336 12.752053321973259 -0.05364940989433986 -0.1802996376264379 0.6644352775727783
P 1.4709256431424644 8.662726765432183 2.668455407707423 -1.0199396548012498 -0.19778211068191745 0.30914533034795794
P 1.8539307603608894 8.419225660183809 9.742552157615437 0.04548281492314748 -1.7604950125670584 0.7694769258961651
P 1.9374242489377578 2.1227424470666865 5.460600798276348 0.06697980845465884 0.29765558454080354 -0.624219624585841
P 2.9753522165996507 8.328808276241123 13.25229135808386 0.9807964089428849 0.9005638492433781 -0.3479525330231427
P 8.775644498267262 1.8754974464602954 2.1851980169873064 -1.1562813987894989 0.1475476400063975 -0.31562013943902417
P 3.6878755904402034 2.651010704176266 8.543189270952958 -0.357886504307403 0.0978081066894251 -0.36152152995682896
P 1.3339545381553675 5.23046216399098 6.6883618245433585 0.3234334648358559 0.4889757416474611 0.5081785398281571
Ni 1.9221528535514663 3.1073499494815273 10.329502507892196 0.10095719384136806 0.30877354883083596 -0.25011768686084024
Ni 3.4335310549326787 8.853184731015576 7.9720834555987805 1.1069151896515452 -1.8204641940318391 1.3060054776219248
Ni 7.094875831354324 5.929479781984456 10.328432955563992 0.5173306386410704 0.24993436720544052 0.4599330745582079
Ni 4.921040767883259 2.7808452975179536 10.23207433323464 0.867050547977281 -0.10313517532929334 -0.9909463528926934
Ni 4.9705896052140845 0.4712427220859987 0.24881836107536623 -1.029355548798511 -0.6248472308675109 -0.07971756773630143
Ni 9.06369333618303 0.15049812246213376 9.336144458944265 -0.10893712672305111 0.523156501294228 0.022187591840632754
Ni 5.706241932599735 6.580483097534589 6.088681305630725 1.0642436189249478 0.43955579645343656 0.857585288799323
Ni 1.3439752358543624 0.6985785191551885 7.049093999846692 0.2756690529673833 0.04152588715792848 -0.937287944137289
Ni 1.7398020391507456 9.306584325150837 11.761131116054559 -1.7152345980673622 -1.400724403863065 0.0888472979517115
Ni 3.957436056217604 3.756809485958107 11.997253511982507 -1.185353633565107 2.6659652979731185 0.6370301460869481
Ni 1.7883155276418226 4.873128151486679 -0.1276557386851805 0.8799942526221425 -1.1809040824341857 -0.1090073178393542
Ni 8.677332579421492 6.574086120774714 6.21019243383572 -0.6950244632135449 0.2130063838308396 -0.011145989314490483
Ni 9.074509033883976 5.081787919440297 8.18145687471694 -0.20527276263200778 -0.3207608030996992 0.26869544986302757
Ni 6.463858446085767 -0.06412322108750067 7.101007499974014 -0.5001908936369902 0.38414698066582875 0.6539318069382931
Ni 2.14082407501801 1.0754316305445717 9.206650976068532 0.28421000055885887 2.4912526675161546 0.5315233852016846
Ni 3.8598636722573687 5.383508908552388 2.247327267139684 1.6736452046613501 1.666435060066156 -0.308155712741179
Ni 2.012616458424499 4.81070216296148 4.661868918410407 0.23774656688999704 0.819847150818601 1.2988110167560147
Ni 4.934990244661657 6.822005946964156 8.45398749747837 0.7596506838343627 1.0252379270857117 -0.31069776243674235
Ni 7.104720889518005 8.337229729750149 10.712855206506822 -0.43273774509033863 0.4098353865708683 0.24454147832464335
Ni 0.9720816302910964 8.063583333730168 4.949322430743321 -0.3149169427244125 0.9066478506539289 0.008280237730921224
Ni 6.526654202053732 8.571468160557199 2.0785700283536985 0.3456359690748241 1.2509959541552647 0.18565550262171251
Ni 0.0320449710088258 7.189776645540565 10.352205304459503 0.28420125880811054 0.256183690549262 0.03562751939562251
Ni 5.059796000781708 4.38211396423591 8.223899706216383 -1.5794998915354928 1.6086860261811455 -0.6178345469951037
Ni 2.6652559949088785 0.8213995485261859 1.1014364503757927 0.40227840015921684 -0.19377221819157597 -0.008920185307765283
P 6.866775540097213 5.49426350184728 7.814961873818076 0.22864563302999333 1.4150737306062018 0.010069211310543948
P 5.6947144325714625 6.670539958220579 11.982194732875808 -0.41680281902763705 -0.8559714073449839 -0.9135242660587881
P 1.733700876345084 2.5911268668200935 12.80208655465411 -0.1770633900773273 -0.4474161730381197 0.5051490089732138
P 5.363578443387229 8.846593626348248 9.264909685513741 0.47183291131958743 0.32117757892214366 -0.20782663940211304
P 1.8466648301105109 5.117359547434516 2.496207564261714 -2.006972788682466 -0.38898811080821394 -0.6955350843013763
P 8.9619795568638 8.678682230587594 7.245559761956448 -1.62286283190216 -0.5282575699662193 -1.2737687290754063
P 4.119662277545712 5.69723809536835 4.833670267668975 -0.025687120353458985 -0.7269462516228061 -1.0643330933149604
P 6.9955840287852205 6.609167806907267 1.6081925620837754 0.8275943988641877 -1.318852251677606 -0.1424990218388965
Ni 9.28005351113228 5.425468269120414 1.2093438343613758 -0.021364067498072885 0.3152846104764763 0.4176314855765194
Ni 3.2643532056805458 8.75153566099883 5.740653415242272 0.23136740283653057 -0.6104958472418455 -2.227097528725642
Ni 8.313952869227945 6.800004784119498 3.570501235501169 -0.6964347132975103 -0.5418425077395056 -0.595991225867767
Ni 0.3622824253071356 4.76177268609729 10.496446037371406 -1.1465675139358449 0.5507593506131612 0.8609822302960138
Ni 3.8767435560196986 3.767394079007323 6.161362794181077 -1.6314300047458803 1.847195439379096 0.8338650623642478
Ni 2.8386122162642833 7.257591994544098 3.657511212458755 0.7079918220074903 -0.7666422846608474 0.29657906364717307
Ni 1.7887130276427974 1.386988433634275 3.39363961878833 -0.2609230050064603 -0.1812792279308878 0.8300433746253124
Ni 7.5998210070113545 7.425799204258968 8.473132206827648 -0.1506105952024374 0.2006074959458545 -0.34452216718535505
Ni 6.464403853063848 4.098206521679136 11.76765196490776 0.7504193950440818 -0.7573382336511021 -0.8492942524351244
Ni 3.115142798337849 3.374950647812261 3.1897045543346723 0.5599363891267388 -1.2580803718058722 0.06654657757198217
Ni 2.87444268146844 5.721420886125335 9.280090487876555 -1.135039201581271 -0.8701243018065983 -0.24282860939859469
Ni 0.33795819850329223 3.5248728574822845 3.450654060788628 -1.2635316247284305 0.7368941068641374 1.5602410433058804
Ni 1.7907744811362254 3.12350878673046 7.506184797479377 -0.1216319485819002 0.44932521713537454 1.091342532024269
Ni 3.895832800252563 6.394286701729088 13.329951765251073 0.14849509152133136 -1.5854921045631856 -1.371589948390954
Ni 2.0144283188940593 7.169846180375406 1.2636913286807145 -0.5519981081162687 -1.0655867632164036 0.4102735025495514
Ni 6.882629319205863 8.606725486225066 4.822210250199008 -0.9021121675671044 -1.5513877066803088 -0.21789199405791507
Ni 0.4872610477066805 0.8425243625314849 0.21914452379328608 -1.1555566048083323 0.8731746585971478 0.6211407285502013
Ni 4.523448325047662 1.2821963403540069 2.629097361099266 0.10180540077427627 0.9225496094858499 0.09037838988425725
Ni 8.561512172160686 9.094504208351621 3.140293455376278 2.303697633878884 0.1535943604211097 -1.0457141926621927
Ni 5.173536466176946 0.5051707337971173 11.375924033714455 0.38491985427611125 -1.5492081825304869 -1.550202428122956
Ni 3.7159132067880383 3.3900186711050306 0.7318011994692284 0.679722799859468 -0.7460559758690636 0.8730378759089674
Ni 0.8117319787350334 6.901626121578036 12.655586542666898 0.29806079039902217 0.3639954454186183 -0.9930716267658122
Ni 5.129497163743355 3.114264600661276 4.538747452992161 1.52800840852442 -1.0658778120942611 -1.4232079296775617
Ni 7.1723975757305 3.863052916451237 9.182378516706676 1.0911669256783532 0.5062448131405538 1.3469711214010092
P 8.589170776879685 8.863371824063817 12.303392297617062 1.468304307795568 -0.7779129724786603 -0.425868271664015
P 6.639840016284819 1.9285128535670646 5.786141281632904 -0.003669992652419486 -0.73481588417887 0.44521556584237515
P 8.263072869103157 4.966429721482951 4.6779417847288975 0.38634861630283784 -0.3530068076175985 -1.22058597440484
P 8.536626823262445 5.219175012800507 12.492226984126708 0.05676481559486998 -0.29972352281342574 -0.7561863794348461
P 2.398838552395 5.190046582496509 11.374395045338611 0.12295272427585277 1.146472126008561 -1.2246562878194716
P 5.362191815476851 3.84252157919158 2.344430046447605 0.28359473557236314 -1.5553232942892892 -0.018639983698690476
P 4.9288890818559965 8.656144904950922 3.499929270211806 -0.5339937011190481 -0.2675019437755587 1.8709514041481132
P 8.97104810339767 2.587734250532703 9.40444235446061 1.4924734488426037 0.7596403994217176 1.064761696211947
