# total energy = -381165.0585833943 ev
CRYSTAL
PRIMVEC
9.21477092571263 0.00000000000000 0.00000000000000
0.00000000000000 9.21477092571263 0.00000000000000
0.00000000000000 0.00000000000000 13.48674869309847
PRIMCOORD
 96 1
Ni 7.484061678406839 5.331039720126506 12.303839197500718 -0.09645982019164678 -1.3874413136009136 -0.7560218288325238
Ni 5.111018640225202 1.732293957855921 13.45908670632739 -1.0360368174734285 -0.43979902281249417 -1.0007103742579928
Ni 2.498870732031462 3.773135297686765 4.738271950813316 0.05145394490491784 -1.3153979745804183 1.2006565824707647
Ni 7.787467218333559 2.164015179720307 8.401623391908544 0.7744520105132533 -0.04367507229044737 1.6018512626474992
Ni 8.759183217736842 3.0734485439913333 1.9368720035482951 -0.29259025420275414 1.1852225073038813 0.7955936775878749
Ni 5.274617679156714 8.341026138336531 7.89805552440683 -1.450398888270057 -0.32747369634350054 -2.7706799019743897
Ni 2.823332022997864 7.078409042840597 1.6154423721407798 -1.4013013594124575 2.048177802165866 -0.2865741299156613
Ni 1.3475680665396212 0.04547120747501651 2.559043184674403 -0.28131699528178 -1.3656021062386352 -0.6416190510092111
Ni 3.063763819990149 1.0206740761095536 4.396908927436855 -0.6092563184077894 0.6224715315464827 -1.3364985040044597
Ni 5.05595117054768 5.789520636091213 11.264806533734115 0.2647516347239311 0.30089954539939795 -0.5635958402561971
Ni 3.501253488310045 6.610860792511317 12.64477096960862 -0.023998162686810286 -0.4880208339333595 0.6397776269250981
Ni 4.7380323667752275 8.315667089381956 0.4106341406043389 -0.3150902350774832 1.9216293901189552 2.447324598674637
Ni 8.807671341137631 6.674184696732189 8.389957492207783 -1.2752612544605328 -0.4647284390643222 -1.648693934032651
Ni 1.3109117087121143 2.2703997074021993 11.201256867631198 0.9859455572439922 1.4834964421549741 0.08189812032738798
Ni 8.228126767772777 0.9306181221004473 2.9139463921111295 -0.981756201752993 -0.1408658571108477 1.097806799592374
Ni 0.746625874142274 6.5968727705952395 2.2124065480287918 -1.4800676189790833 1.4319553368528888 0.5244464237502452
Ni 0.2929412463246798 3.042007746377594 13.199021918890839 -0.20858897148943428 2.509963613662097 -1.0025875366760475
Ni 8.00734086190373 4.368971585641623 8.139576507295347 0.40189659133976585 2.287179324508887 1.1137376118900175
Ni 3.367851252948351 4.4201872811683405 7.506670118308746 0.13125867303838684 -0.4187028642638273 -0.6384954177785649
Ni 0.537370410844761 2.3547425035799696 4.468348280209433 -0.20590525400968412 -0.25252475364043603 0.747144580947552
Ni 0.6494625674955719 1.2120464339179158 8.14263765412046 1.983404257333907 0.07639364556939102 4.164826652619937
Ni 4.2192223470657515 2.6471456072960207 2.6466931620548615 -1.460358313475614 1.3307376902612824 -0.01795632736810456
Ni 0.7691136005480679 0.2246072712765543 12.020698781287987 -2.779352232937407 -1.1600431798247761 3.4747150533269773
Ni 8.692929016434736 0.995619114587937 6.4719398309799665 -2.823562351795718 -0.540275677473018 -2.260574577437165
P 2.802525070766966 7.518460417413898 6.429955492736204 0.29404189904761613 0.778972009870794 0.23830372494504765
Ni 1.7698072893581285 2.6282184682870464 6.717627733177081 -1.1755582447412398 0.5089892086549105 -1.1356125575862377
P 3.881759014647713 8.13596984604505 10.194579106731346 0.17527930159371102 -0.24681664751206525 0.7255755965275246
Ni 6.400340141197284 4.762820099946669 0.9286406323091495 0.30336214800727757 0.13408405830232392 0.26834012340613783
P 4.841320731503364 2.8549386864841253 9.154467393316278 -0.5560928470109326 -0.4467836816604434 -1.9268045065619914
P 3.902243449904261 7.983059941120552 3.2049368714795294 0.923175415995307 1.2840508277277047 0.22289227548598387
P 6.475339159889612 0.4112377080849074 0.991806042474055 0.6421849508150101 -0.21909604166834526 1.0220800981830205
Ni 4.3567988735525995 5.712356146285395 1.3262543019204598 1.7080455365180907 -1.6885100375883242 0.0018337107746291001
Ni 7.102450379585686 2.9042469244768325 13.112382801855698 0.8242267679435353 1.1978738775193047 -0.1983564951281487
Ni 8.75523929587908 5.32069153263523 0.7871026759002193 -0.6396488146567176 -1.5261636420061973 -1.350321525930481
Ni 3.8623619223332577 1.9192155814182583 6.7998972059483185 -0.25868665947677383 0.19596485496752056 0.9805786365051242
Ni 6.040770573880254 7.248605857590233 9.691617571141412 1.591257032071421 0.8809278201800054 3.388971334001254
Ni 5.434788823389425 4.5610074069400754 3.541808615618904 2.4763143010387676 -0.49106167764221237 -1.4580576903668954
Ni 2.0412099306586717 1.6437031523874317 13.3847345645379 1.0882875472480291 1.2845534783957362 0.9570939231196226
Ni 7.846054730416839 8.113393657840577 13.62350401689668 -0.7295870316797629 0.3908426475184495 -0.19446333072132962
Ni 1.731519917117482 5.858705134474551 9.059790231803277 0.7739053939811639 0.4940133040713686 -0.3617907244578156
Ni 5.072325818073944 2.651476549523001 5.02455552531035 0.6132525840513762 -0.8336385481757386 -1.1914749159714966
Ni 6.095598459519686 1.359270825323164 7.37065641693189 -1.2520097401317598 0.0563117872178514 -2.8134198640450774
Ni 4.893688273367045 6.967592210454072 4.953831238743759 -1.8160632367506657 0.06319180216713634 -0.2811241625446836
Ni 9.18622333608781 7.396032973950787 6.054983436201305 -0.07958001371717262 -1.4819470953899831 0.9834929819384416
Ni 2.677766290317842 8.631079475525176 13.180828275629244 -1.1127276825682644 0.5271224279205116 -1.2625314655986903
Ni 5.934671704089928 2.773139167018369 10.924859820613584 -0.36419470591361797 0.3572401289726557 3.0968045404891633
Ni 6.257999578260758 2.505671232804891 1.7465879101590958 2.0474339820213063 0.7756612003300062 1.5395110098473808
Ni 1.8099007566551326 2.25671577291908 2.6552711920954915 0.22352322420176343 0.2970616597105465 -1.4533520573611098
Ni 3.575524540117412 4.336756747289445 10.129978035292053 0.34423600340350397 0.6648800784196807 0.13730925010784095
Ni 5.571674242074096 0.8282401767170467 3.2350525850672263 -0.041138164801206564 -1.6037428232432573 0.5694612978980387
Ni 1.7810032357534078 0.26949149785825455 6.214261669153604 2.877356000577406 0.09927492104293871 2.3639002715107096
Ni 6.764517093862167 8.300306066632219 5.688966293828492 1.658035266038235 -0.9607744572950035 0.6788645656242308
Ni 8.884550173051883 1.1558916212983008 0.6667992370824676 -0.9187117237969984 -1.6524420882211737 -0.11513605644491139
Ni 1.3860765932769643 8.226164021614592 8.281308895365957 0.6730577291344666 -0.9456962228056424 -1.2972457291514239
Ni 3.8459872748069936 1.3370908722586068 11.568379782487497 -0.6126553167870094 -0.4622959183634296 -0.9241316092609891
Ni 5.889528542451679 0.9852893566380538 9.615822396260976 -0.5246724237181222 -1.6228535759307794 0.6543182437434345
P 0.7953775399849609 5.225696461533228 6.926484196903469 -0.7119603197369351 -0.41630222524213467 0.15801665785852143
Ni 1.834974147718141 7.1123378285421754 11.109048343187576 2.817825192201625 -0.8789933221614539 -0.8191205570652216
P 0.7163415302508457 8.363851125349788 0.5488732091042072 0.7652268923705595 0.6175100737761494 1.7606793606637223
Ni 7.33250634477461 8.775567080033802 8.350346878895234 3.4912940407315807 0.04997093260148813 -0.07503224644549013
P 8.408118883771944 7.241445980759671 3.7947660504178584 0.31199334131971435 0.21236643625399554 1.2232830616210286
P 7.417586322608036 7.310436968958401 11.39936430134105 0.369403503808067 -0.04790813653518846 0.6261857471732765
P 6.845994096353572 1.078515191766482 5.109792154245604 -0.08458055225555756 1.7948680907302894 -0.8306578682808597
Ni 5.944780307543114 6.847385526728623 13.112032640569263 0.9967105090699802 -2.7535242161307094 0.479991792981296
Ni 0.41215273481499076 6.749533876710953 12.684583386399405 -2.542355913949873 1.8589646640998825 -0.9193730115300811
Ni 7.818456492183207 5.465529298430291 2.7129270908614362 -1.1457925834430331 -0.25245764784792646 1.9148506766342248
Ni 6.242113313581366 4.612103310447749 9.719131033484642 0.2449312575638943 0.9838421377477442 -1.564108753791403
Ni 8.263944581466975 3.2043351469531 10.559153216013215 -0.47903842792909107 0.07066368506414926 0.7064278199544801
Ni 4.22810538601641 6.34478428867289 8.753358561180088 -1.507454238522152 -0.45909900869268677 -0.1937997289954017
Ni 2.686888913306588 2.242598744213263 9.367679679150525 1.0443365955883754 0.1434690990616497 -0.7079697105203033
Ni 0.27045628435009467 5.253838371237904 4.6389293508970795 -0.12686260085322024 -0.2666406242165279 0.7200245848023085
Ni 5.595503639093184 8.670205391899133 11.72550083761993 -0.9053152478854344 0.2687787536054533 -1.1493067672438786
Ni 9.210439753476118 7.9572585831725835 10.215577726192716 -2.9586671380530722 0.670738851193303 0.13788800542944638
Ni 7.3652464250564424 1.0147766228643038 11.845114090112574 0.32208517833807754 -0.5043437394630992 0.018268459291884667
Ni 3.4770002118389547 5.442068492239032 3.6011369952661187 -0.6759831303113777 2.1814691893635656 -1.0649092775334046
Ni 9.646482702796789 9.070596393398127 4.741684180401935 -1.9563282270527211 0.14993670906386436 -4.426188030715396
Ni 8.404479049347142 3.319879156706521 6.264985295925171 1.0249311944785702 0.3027000889432464 -0.4385219558722835
Ni 1.860416129608977 0.039653922734819144 10.28649091555857 3.233624509665412 1.3954994080186998 -2.386240329768807
Ni 3.38520266616836 0.7849261470618943 1.5065505053525867 0.9363885722514713 -0.6806509681006924 1.3174281176365699
Ni 4.273829078208489 4.354762409228848 12.905941529528654 -0.014016368883750054 -1.4624213666522297 0.14402625711670036
Ni 6.782080446808176 5.872785304097586 5.032944652551718 2.1863211181392286 -0.7933892137373884 0.3337240481285866
Ni 5.9764606891949414 7.4431849556006995 2.4207497490274306 0.04526375693380592 -0.15863320839659778 0.1921835335482174
Ni 1.601849663887548 5.178479976488445 -0.0968057735437089 3.0663367109176094 -2.604474537657489 0.34908381841410846
Ni 2.0784744633520953 7.2690073599105185 4.175173900186151 -0.1140281680927133 0.48165478250601557 1.0518308470828919
Ni 3.5623197737104695 0.3586204459353732 8.617074867021847 -0.46336472594757616 -0.611067146364283 -0.6530434907960689
Ni 6.053146010924583 3.9404478892086456 6.718059905922709 -0.43872250191886375 0.8517504272851009 1.0387860980837915
Ni 4.644511658984537 -0.06996498946126492 5.611754808692125 -0.598508335862666 0.5199855597654142 0.7338568626997103
Ni 1.6634872650711061 4.558602351788497 2.7395633070344356 -1.0405380477778916 -0.35523029763147856 -1.8166756735236842
P 1.6138657248747448 4.410041818632371 10.961893984039614 -1.0806521421899582 0.8988147277627553 0.5024035850175929
Ni 7.578688158681014 3.353208982312879 4.1675809291328925 -0.8530560334704018 -0.62636880971836 -0.8557736895118812
P 4.36342429368281 4.79022482799569 5.421052364713342 0.4000762503015755 -0.6116181337717466 1.7092387854952433
Ni 1.1667742654899265 3.7196159094861216 8.662295432733941 -1.8970349886090425 -0.10067565804520726 0.25377559532840166
P 6.462880789909021 6.435273336904695 7.873024521289023 1.2292516204996378 -1.682948484340147 -2.134110497573944
P 8.918276233798156 1.1925203348137208 10.375719383159202 -0.518279889928217 -1.0677462327615674 -2.126521886593409
P 2.9248511517524247 3.627873652439701 1.0728158560911896 -0.17731818640061076 -0.43124573392584437 -0.0836986638712365
Ni 8.883085024511265 5.3921981532338865 10.38207204607682 0.7763479419843855 0.649984649365087 0.04181796447705056
