# total energy = -381171.9719557433 ev
CRYSTAL
PRIMVEC
9.23798827305951 0.00000000000000 0.00000000000000
0.00000000000000 9.23798827305951 0.00000000000000
0.00000000000000 0.00000000000000 13.52072962778542
PRIMCOORD
 96 1
Ni 8.607107645613725 7.481800571256583 4.3670742306720305 -0.7232045251921867 0.5139910327448761 -0.1713506559632662
Ni 2.1611627075626827 3.943503227032441 10.365775819947578 -0.4117503442053941 -3.0237379024104762 -1.5447465472147073
Ni 0.1847163483691673 5.286060073315872 11.42941100790753 0.9189130411745271 -0.6780387272888259 0.8010544435921301
Ni 1.2843759956820886 8.507337371479954 3.834045998319348 -0.554432171479058 1.2320222412662394 -1.9768533435892663
Ni 1.8780553167197593 1.3007734249957408 10.332907057413507 0.4628206805186481 1.6436846537435175 -1.408534129715471
Ni 5.429914027835418 0.7460045108702413 8.28325887856851 -0.41549489884949087 0.4054436852610759 -0.959622088858115
Ni 3.4633772587403557 7.469366238943244 11.833437199604083 1.6778828968917812 0.12777997046116704 1.0542739093067457
Ni 4.86201793227065 0.08835396813613149 10.691016751836495 -0.5931216176294559 -0.18595297925747328 -0.8298811380158352
Ni 5.446043555487044 2.720245762245633 11.800635874384934 -0.9373722763209793 -1.557042848083557 -1.2262400873668236
Ni 8.832643893086125 6.994274974299577 8.397143875095706 -0.18606456513467312 -0.49123908376034103 -1.0748242226542715
Ni 3.2577581141413288 5.391973609699547 1.5496374406387508 -1.0830260417387736 -0.4381427181559938 -1.4734038338056625
Ni 2.5088159229771483 0.3820674933987753 7.557831062939524 0.29322223135979825 0.3795151383207722 0.6838707605895706
Ni 3.8713175860989884 3.6876848537627738 5.209050354868284 1.476242074585406 0.4761137980831284 -0.27017460551171535
Ni 7.764501490612295 4.5850445656892855 7.62539401450478 0.018092338725336585 -0.09339943609876818 0.23713670122013997
Ni 7.4491627584311555 0.27002362794888046 5.330074468789053 1.188664700216211 -2.0877622493267074 0.2057579297985424
Ni 2.8737996045281844 4.572139095970314 12.457500264310823 0.3660338160048857 0.12528342929155845 1.2347342408807638
Ni 6.706299163598459 5.944673214435606 4.255649310441299 0.16422818598587202 -1.2293709196863214 0.5479180245096241
Ni 8.681704401505412 4.545653783383137 4.1515944573127825 1.979718066731571 0.3137810293477564 -0.2471105246034002
Ni 3.7910764193280673 5.435419868889467 8.482526906179855 0.28375517240962744 0.16946912266983716 1.0556023983101819
Ni 6.123262005135056 7.233843726069123 11.63339779996587 -0.5684881353514919 -0.12939359480519005 0.04860490549189694
Ni 5.99948219929076 3.689523213443572 3.8404285244674052 -1.3478198425545498 0.18047472975172144 -1.354988335278531
Ni 3.131290053688427 3.447940580214658 7.826055130758658 -0.33144656494831953 -2.235375709574034 -1.0990926082833328
Ni 5.473415714955411 6.051316551898593 1.9313418810955392 0.737503201203046 -0.8965297883833204 2.1141258269219008
Ni 8.407317671660849 7.933048587979949 12.399833969660339 0.43950231750768176 0.2384795884012796 -0.3064929803267754
P 7.44023886168919 2.286771635099432 1.5605899996214359 0.2942550434996868 1.2463129468572987 0.7489636364341618
Ni 6.638714040861174 4.7287137604419165 12.060206718520634 0.36826759043141094 1.6183652011421226 -1.5869236948033896
P 4.471602068803848 2.774084758324487 2.7897995002993907 -2.1968765250575712 -0.1158161132310715 -0.6617538740858733
Ni 7.31115645053445 8.109595783254996 9.869281060105713 -0.4499186277449993 1.4947825565917547 -0.8777867034478624
P 3.949637251293999 1.5955114431659252 6.556905187467986 1.3439122799700274 0.4963501797346614 -0.28453601643970994
P 7.62137733717206 9.18780759302566 7.741307673272695 -0.48068856193800436 -1.657937049897474 -0.5476668277307665
P 0.052773856022592415 4.6681217948823415 9.232575808347852 -0.34747456494545964 0.45903498822397076 1.675990822075391
Ni 7.536849743808726 2.0255213246824817 8.058665829706209 1.068608837872179 2.0960160046950675 -0.6503273774164864
Ni 8.300581954314403 5.609509759264553 0.029883968499568366 0.7038957975612458 0.35300449362475333 0.6490639373230306
Ni 3.639102273052634 8.35273039852599 3.297137810861462 1.3316517174351195 -1.3252959504204207 0.8636165825950676
Ni 5.1368665615325 5.823600139176604 13.138998673959408 -1.7615774469979597 0.22911125981250222 0.5958693555779222
Ni 4.93300263471916 3.5982518885878623 0.2718139500902809 -0.09034856508758633 -0.28702870095457667 1.8997225627435343
Ni 5.9976161256449245 0.8384693838202181 1.075397918520558 -1.337205043153181 0.05818920674622236 0.4560797622503887
Ni 6.234607478666016 8.036634151300502 3.570487114614802 -0.9623302318178975 1.2394085064279816 -0.4609036660015933
Ni 3.181369188510573 1.214850895392203 4.208421942621477 1.6552713301398525 -0.7910942470556247 -0.11489231586522147
Ni 4.973113980116274 8.732199245803114 5.599245430413624 -0.38981034959919314 0.8101404650537983 -0.6399496337265882
Ni 7.904290730259723 0.1650071002335745 2.313870350112766 -0.007315559824806756 0.17197080604576837 1.467942296470459
Ni 2.743109783401289 6.1599737708209465 3.718133263350265 -0.055863129716207015 -0.9166694965559891 1.8556474268011915
Ni 0.9078651522732637 2.9732373110815105 12.422940949909487 0.27250068254173065 -0.4011491716507801 0.6020209770016148
Ni 6.074688662413263 5.926696089114835 8.682038816683527 -1.162419907587069 1.3524964220946127 -0.4523614328585371
Ni 7.463703352087318 2.9878333326677478 12.87232935957886 1.8745846300253264 -2.245567048284739 1.5736046090969802
Ni 4.398178537432068 7.933298013665283 7.660548255355581 -0.7097890231172291 -1.2944257432041255 1.458628989489333
Ni 5.823960420722087 1.1662406007170263 3.6999473594928816 -0.9765584596021375 -0.0530148616341345 -0.33118559797744895
Ni 4.576129906935666 4.842248637210811 10.668193377829558 -0.10830386401442638 0.47084226527154394 0.5420155429822601
Ni 1.1094177344025051 1.6557616031567084 2.820477935796691 -0.11510520320697595 -1.5803519551231426 0.7053744389893013
Ni 2.1010326414203937 6.827159765125509 7.872026132163463 -1.4339302011910724 1.8667013706225077 0.3177590401588979
Ni 6.343569551203779 0.22815891236374833 12.446088577307355 1.3741296840936723 0.6836879551548032 -0.7004006399237938
Ni 3.5107958529189345 5.94324132624202 6.315924871079212 0.19471247061765823 -0.6962277394930267 -1.6441207128396715
Ni 0.7015660917319917 2.3121021991433954 8.133394688831238 1.65735418081081 0.9038908567340821 -0.2285595010740902
Ni 8.830546869731647 6.106180964683821 6.175214603993715 0.7020829127222231 -0.05532705470707891 -0.6449699697593151
Ni 6.585447800059755 3.802623904760217 9.793524012877803 0.650670362578202 -1.1462168154646453 0.5284465460485738
Ni 2.458810692061768 2.603560731450849 0.891585045411602 0.06950231776619643 0.8717865200003696 -0.5011193189885305
P 7.670080011730694 6.837367742247529 2.4163298026539763 0.8009055767190917 -0.17389219143819729 -0.7899789025042588
Ni 9.007768438155932 2.8464921109782373 10.345075335662488 -0.7231605593281287 -0.3751247225625604 0.033172630097226735
P 7.127274292512902 4.086765950297861 5.428897849117389 0.47282535713984375 -0.09271192311344033 4.165271196356523
Ni 1.1438569549553477 4.690616296504169 7.494730059745252 0.6650191751007063 0.19423938763598161 -0.9396908971518269
P 0.2595856249170519 0.9787001993105725 4.727631068207798 0.16396439080152408 0.2505953978282071 1.1296026039467322
P 1.723937957148119 4.680020323871628 5.290877684238165 -0.35858147349189856 -0.05418317091062281 -0.5520929818229201
P 4.420719228995624 7.002284310195315 9.96684622642136 0.8532344680297951 0.3994602139841314 -0.5561378413162551
Ni 1.685655733443457 9.086568478744919 11.994104292912837 -0.7701287005475511 -0.12394131344136719 1.3070321191142262
Ni 2.1162660842024854 2.4263853529682926 5.575732902476098 -3.9021565830153824 0.15277212163013043 2.160421881774963
Ni 9.198172615949558 0.5233634489453913 9.218947004141413 -0.2680781279940028 -1.7801336127335923 0.8619813609844896
Ni 7.646513903460764 5.909633524640291 10.20256643224608 0.737171271784924 -0.5331534646059398 0.5305689917082153
Ni 5.588484097789695 3.7712424583498074 7.715347078423554 -1.323622933593372 -0.3937973592713992 -0.8100108814544694
Ni 0.5213227773198218 5.932673067574516 2.671358327920085 0.14122221200900192 -0.030551904644928022 -1.3278292583652358
Ni 1.6545421886950735 6.871733058893605 13.01144422607705 -1.3159852145424562 -1.1307531726114075 1.170671348962584
Ni 4.362676948219469 7.566605304270289 0.930245102839604 -2.6133944658549377 2.6588631397106983 -0.8933403349117454
Ni 6.678234155004163 7.694819344520531 0.6294414215216204 0.8164044436856392 0.038566547419288416 0.013957747731672734
Ni 8.989652743009975 1.2541308218382026 0.504071757883025 0.2855436317686179 0.050872875590467215 -1.4994532225945465
Ni 2.211186414454754 6.046383466121979 10.413787492977951 0.6624190184736979 1.7891995795906024 -0.32565721196005204
Ni 2.6741666763771836 8.351852789633147 9.711250488670826 0.022942210618470165 0.48643677727569123 -0.5766925255391553
Ni 0.45932017093985555 8.806869905601566 6.925141564715549 -1.0840197731106103 -0.16785884075992383 -0.967767857893701
Ni 4.2342134822838915 2.5929000928998884 9.681802553221175 0.14767285273035213 -0.6591251782137746 0.5544275434933678
Ni 7.903884258772512 2.3164994815959576 3.980556798287122 0.9266446054908299 -0.9090083804663055 -1.0895509873414848
Ni 2.2738661653804617 7.854950634505236 5.586886849604719 1.3594402004022974 0.05809896102526123 2.161649326424161
Ni 0.454409256335271 7.5691549890537075 10.402754563496659 0.04368355693087961 0.5309538858514598 0.9274215928661705
Ni 6.376918689131826 1.9914516236634676 6.146807789830627 -2.1275459569825492 1.4287800244487006 -0.8616579162067999
Ni 0.17036975246826472 3.4781210881401243 1.935343777646905 -1.229893367848695 0.3331581483227875 -1.067053320459601
Ni 8.979407813934571 3.0440003018097226 6.1813532472494455 -0.14964103220031647 -0.4907541737041226 -0.8513961292694756
Ni 6.52787665668923 7.012464573352299 6.591518082201727 0.3001264146787993 0.6208946739776662 -0.21993499262987284
Ni 1.7208247550756115 0.20423806534134198 1.0859283014358436 2.853945077852633 0.9076762919184432 -1.2850774692200062
Ni 2.1003675062595017 3.7171078466438905 3.2412572193582045 1.1108564336874802 0.6553415428016262 0.6409405368849478
Ni 3.6913985250777532 0.9312169392135737 2.00290672921216 1.317478254148215 0.6381658023532881 -1.0620430117292032
Ni 0.22843789961178906 8.017012664054194 1.2847990955483226 -3.3524048477311297 -2.3031327625143496 -0.5191000718366673
P 2.1115362341694768 7.447897154027792 2.046402873539146 1.4300853735236854 -0.6289990482523554 -1.2347260133506477
Ni 6.990431971147756 1.2518675146935014 9.967536304150785 -0.6946555099099004 0.017735212496233974 3.6037702909561418
P 3.1393548175142403 2.0489119111738434 11.877893170920188 0.39679038046145215 1.0687901006450495 0.12970572672897018
Ni 7.1780093245075935 4.595234066834614 1.9757165581142033 0.8102942170228431 -1.0372280095680524 -0.5244834476357676
P 8.741030762661623 0.8434061647921707 11.68147783411 -0.1260025668457701 0.3087007866113715 -0.19405092577425936
P 1.2426387643361274 4.67978013617464 0.5373331349217885 0.25652590438002915 0.3676700660567281 -0.9848137576323943
P 4.720316429035657 6.5877203451928015 4.624941589756778 -0.08031380655940362 1.1550711805314817 0.10170152820656034
Ni 3.9865060627817654 0.4622245944757498 13.074951700758536 -0.2858526783686045 0.1562837343278147 -0.012810007280474713
