# total energy = -340888.2313856422 ev
CRYSTAL
PRIMVEC
9.12781083206627 0.00000000000000 0.00000000000000

0.00000000000000 9.12781083206627 0.00000000000000

0.00000000000000 0.00000000000000 13.35947380598896

PRIMCOORD
 96 1
Ni 5.498356026358615 3.0627091933919197 9.312381733044264 1.875243603765564 0.4592792430242929 1.4376336181845886
Ni 4.406523785178033 0.7198867216600243 6.353325223082439 0.5094774611452386 -1.0986496072086434 -0.8601322235908929
Ni 2.6508714886548717 1.7610285772051375 4.94434171184464 -0.13618542091604288 1.002794253370215 0.7700597949828286
Ni 3.54550650088226 2.6598532546838456 2.5997265380313515 1.3262811971518254 1.3199889363852106 0.4298514246814791
Ni 5.290433619474482 3.272466290288069 0.7744354330073296 0.5274196474459563 -0.7017216727280624 -1.155705471681371
Ni 4.8630968916508515 4.736558047687783 2.8491485376499646 0.3820610446710775 0.25413683532256237 0.08959548897164568
Ni 5.041554724610669 4.615240311619606 11.667977663496632 0.5015209253023234 -0.1782368415601382 0.4080973208338391
Ni 5.806428775590205 8.031916887976529 12.735960760083207 -0.5695518007293159 0.04896100327973503 -0.38518776322551723
Ni 2.457179339127619 5.305613169175888 11.585789940426022 0.2665640053423216 1.4048654226146322 0.29613940500659325
Ni 0.9899293591201556 7.631078195500572 11.770204582847738 -1.9941144446625594 0.19703314833103486 -0.7317526718725139
Ni 8.18594869868682 8.893974742726877 7.150070851748322 -1.8746782181803971 1.3431777157968479 0.21753563915976082
Ni 8.666856549299116 2.598979883091138 1.8393059460411825 0.2557532878800628 0.9296034310088377 -1.0619373393892744
Ni 1.573890195979513 1.4340977704371056 2.72386294213789 -2.2824199554470304 -0.2411363092978363 0.4553608818064932
Ni 1.8968686605823566 6.8247273713140695 0.26700672751985016 1.109201928803193 -0.4371543861007955 2.0835754649388694
Ni 7.9133648786428825 3.795508116499694 4.177053354854268 -0.9470542794954334 0.08180041840725913 -0.37137682548435397
Ni 7.873987501967078 4.133145845576655 13.119778823378041 -0.5166204999479231 -1.4036060962862342 -0.5849424242527732
Ni 7.198976750332303 0.7791316917694301 9.405243518304182 -0.9260313973868632 -0.9873915456618996 1.0905681157520895
Ni 6.76509538201805 1.0028817229363276 0.5347555460744112 0.757711814940437 0.789879400811917 -0.48183527394793796
Ni 1.9710868918644535 6.855816695597284 9.522098667571989 0.564073551223564 -1.4339499986854143 -0.9649195898116284
Ni -0.1495436660391071 5.195467873777896 1.6636019736615895 0.6669842692468771 0.19449726928305858 -0.12996797925142134
Ni 6.4047385313495075 1.8001777586058159 7.2938986825360645 0.9370827701050184 0.6857016431507224 -0.8681468663652531
Ni 3.314435965289309 4.381906078897401 0.639264418176781 -0.3576193666889454 1.4491323628528074 -0.13506750526151576
Ni 5.799482511415358 5.965909889470514 5.0787377755208585 0.454964674809339 0.6235064005689004 -0.2856230788563016
Ni 6.602939819513258 2.112184594380584 11.831203918232314 0.6476066360512137 1.6831816833968756 -1.4319039147896628
P 0.24281529001315455 5.679187090179747 12.668108264196036 1.0368120050765561 0.3013294338479649 0.718074145944157
P 4.057823149162946 6.365361154673703 12.79671912125725 -0.11771127337125534 -0.37461075904061936 0.3070635081182647
P 2.443368961076971 8.798908591109237 1.4510928417474165 -0.9846751751720011 -0.3290659805312849 -0.030723140115469665
P 6.333249515557923 8.188294546115118 6.111131536998728 -0.4255633388290864 -1.1724952895451999 0.1358745745438434
P 4.841938625741136 1.4278634755206536 12.858106388609544 -0.7001761826178134 -0.15721241678967116 0.5254463257696692
P 3.8245071720627517 6.526092778661706 8.415707567838346 1.214354134562515 -0.7139184719045705 0.31691751809420904
P 4.580454223879343 1.2792535845473634 3.9076460130400883 1.1002889425842792 0.14577049350131668 0.4479728168725382
P 0.010740695209647464 5.687602931926406 3.776789714471629 0.12498492421453312 2.105781568722264 0.5337964975065774
Ni 0.4616901573222526 0.2841149836866235 5.12986447052237 0.4446540369119504 0.007987646191166889 -0.05946318836263953
Ni 1.9613018784670355 6.692483645472842 4.97878185554781 -0.5723594453814401 0.15886486479142964 -1.5539001886895174
Ni 7.997459401432449 6.99799147981201 9.154058938380494 0.37919709285972114 1.7361844608461519 2.2034904308296634
Ni 8.669193268916409 2.6731889865622303 10.357306153469871 0.5573840550185304 0.2123201563970924 -0.18435092487767607
Ni 3.6656741327638005 4.6877425144327525 5.094074323571551 -0.494584088973174 0.49188468776413996 -1.079328281172212
Ni 1.3670266151719663 1.1972949695329804 7.575356560439117 0.003319808401852347 0.09937210874243531 -1.358957090118292
Ni 1.380617925758492 1.3804992642154263 11.724047068157377 1.0241025279296878 -0.5765896814127038 -1.1704967710579326
Ni 4.230932084873802 7.066468317971928 1.6100701004602473 -0.2018467676695943 0.368909594890784 -0.20284358436522484
Ni 5.601080411409496 7.946024186418967 8.348989658859102 0.253192469131422 0.596850745654585 -0.05017045020680392
Ni 6.649628572804112 0.781909284658268 4.848580933809514 0.9048678759353705 1.1102758785936622 0.28129745489775426
Ni 0.8694970207194682 7.6814728400594765 7.02441101598504 0.3524766461457413 -0.18769978674525092 0.20480122231222794
Ni 4.96008901139056 4.945256318507346 7.098676711884363 0.596158861793883 0.6463586225767256 1.0820125128725946
Ni 0.5359686321569829 8.988776187825371 9.337256843595238 -0.32227132620695464 0.07703307892560282 0.7263875509058586
Ni 4.8722520860889205 0.6345690721957811 10.752973941011463 -0.05819152073906752 -0.669893215363556 0.46008039876934953
Ni 8.21265667368761 7.532789926598146 4.82395957640448 -0.4761328242465219 -0.7235894193354312 -0.09035627839707021
Ni 7.344063306257642 6.398303424590945 7.218752152874753 -1.2399363539069936 -0.13453220158333606 -3.0046178937515737
Ni 2.2732813308087882 5.674604929055209 2.711679140008343 -0.10607497468390764 -0.7582270640139587 -0.505573240994826
Ni 3.5980279254053427 4.270519401202723 9.29894194412042 -1.0955668545182615 1.822733706792306 0.21638892714982733
Ni 1.292634955480773 3.9823635355841613 4.272386951334357 0.9062164195434651 -0.3366491921951815 -1.4605125796652911
Ni 0.3390671442803523 0.0563523668019041 0.3520715366192533 1.976638399364983 0.605764246094131 1.0682280574939926
Ni 2.2658786760836893 5.597100685811292 7.02139244888567 0.9327522610504646 -0.41493234147780156 0.9298407438306243
Ni 5.577503275583441 3.2839216930994124 5.087247633720871 0.3632878778286324 -0.6155555211529399 0.2738212011253671
Ni 3.9731900855240823 7.29914534830177 6.294957435610619 1.6274427379633587 -0.2235309375112473 0.05871936821807953
Ni 0.7508984595496965 7.648311502678114 2.477260523338738 -0.17106783461552472 -0.15032520275153466 0.35907846773297514
P 0.47031502594092844 5.9690954955112785 8.17955192873448 -0.5691118849784199 -1.719304654371678 -0.12369988685452245
P 8.479133988169167 1.8770521828903834 8.128144097154012 1.2628772789738831 0.14727561729193347 -0.1754698203379623
P 1.847405052745967 3.545844229889447 10.571031109809917 -0.8227725519955121 -0.7100188797398481 -1.3022498672342346
P 3.944775209865348 6.690128670233538 3.7809985481260595 -0.1339454758419306 -1.3877043374543132 0.8992209620622383
P 7.107872068690855 4.317965762806995 10.622224437831763 -0.944342022770593 -1.3198331275336366 0.792202649628455
P 6.797179637700815 7.807993428400535 10.723235532756997 -1.6196034444245977 2.3535988895847018 -0.6554456724796582
P 2.3764438507879126 8.679973213713378 5.941599790420753 0.523260373861944 1.6657226073801636 0.5845829840308254
P 6.912518657560682 4.327595603417327 1.8505413686073036 -0.2797761331572214 -0.8513601338252176 0.7159406445409219
Ni 2.5368925126347586 1.7826980005311368 0.6231456167229555 0.5604462388836219 -0.6108948824524769 -0.9930703412142315
Ni 1.19639131624348 3.708857806628713 8.180260246868471 -0.43421921473187153 -0.44414701536854473 0.7918815188436105
Ni 8.35539738218465 9.401097666545688 11.659721558442559 -1.5287172616659865 -1.7603893402271293 -1.840618814602843
Ni 2.765233832737198 1.8966587209292405 9.471974206218835 0.08895631272575003 -0.6857196408728513 0.2871485143618926
Ni 6.376049821360622 2.1473905614270787 2.5957988409558768 -0.5164235534457687 0.558730798854412 1.7844839192824882
Ni 4.1697666233289326 7.286302518217658 10.777514973679654 -0.29236451134519326 0.5473575240204638 0.09237228038583445
Ni 7.466658935866526 6.129124278051892 11.74544904662093 -0.6302712300965597 -0.39641654206180116 0.4568302672631681
Ni 7.802644531151573 4.478879943015098 8.60033488825648 0.34902134060728923 -0.39483351384539744 -0.05898779138811776
Ni 3.308110392262806 8.909145164617279 12.65365254990733 -0.06489104424643019 -0.5646535920967501 0.03308624103100753
Ni 0.24326346553350273 5.386750281199816 10.406175540809832 0.2272865478989376 -1.4326369363009455 -0.011374560385528797
Ni 0.28758263908744364 2.724240833513499 5.959674681772962 -1.3361467770919957 -1.0487928315875163 0.5438713652440762
Ni 3.405321579466635 2.909763592191229 11.959641346884434 1.315736845977076 -0.5039560171063773 -0.32932746172278765
Ni 1.3117668473473671 3.5472134015402053 12.808128885013568 -2.1729225853451353 0.6463599081283062 0.7687685869752309
Ni 3.2038799183960904 8.860156202953151 8.265199092176005 -0.45140061160716455 -0.7662964712856545 0.6024596072009302
Ni 5.482236312123689 8.240313941032925 3.664717538170471 -0.23243209665561906 -0.30281733124740107 0.06461362221532743
Ni 2.7928089497834674 8.926460622093865 3.7926748439637246 1.1810303235994049 -2.1938544504017963 -0.8640505848086926
Ni 4.102357739056606 2.8150260417697694 7.391235833531764 -1.3026249911854664 -0.15334136387003913 -0.6367249561417034
Ni 5.698300726424331 5.901275859743724 9.763384136460697 0.9511245929100653 -0.7176990219929252 -1.353700983925675
Ni 8.150049018003942 0.2723903104506312 2.411251845274587 0.07603446245775938 -0.823958344773497 0.8431446878939608
Ni 4.5665799511516605 0.3936907036778991 1.6921108657736759 -0.4789895769690267 0.9998421127204263 -0.3279537213037126
Ni 5.964814552149908 5.779519988747304 0.49475200156365995 0.2229277567096096 -0.2226732174966423 -0.2963466359213928
Ni 8.031122768419088 7.3962470017735376 0.4210741366930622 0.18767484704458648 -0.6574660453437968 0.3133316005151636
Ni 9.085813946620105 5.166852186277051 5.975799872694491 -0.3984801094590492 0.26240781708210287 0.7320298367933006
Ni 6.884569300263206 6.353622789721204 2.9034279785726205 0.9290591284695935 -0.2742773148261793 -0.7223264934626076
P 8.73552507149014 1.7447354345611157 3.877280524169574 -0.6601885864812823 0.881326855390637 0.5332583656149203
P 1.6304004739118048 3.5658250081795106 1.7822206160155725 0.1903130559983819 0.021209287087763474 0.5192749068516347
P 4.851577594162473 1.1278231999735118 8.709080890227396 0.06375333109756116 -0.4408374913793376 -1.2788983369924878
P 8.740691412519 1.9130979085493434 12.832522959924576 -0.9050473389360284 1.8347610702704853 1.0133419469790743
P 6.441587504376912 8.346023120282458 1.5724498274029157 -0.4736488814824036 -2.0491350238728128 1.022579406416942
P 2.3048726846972816 3.4761351372438467 6.2274390176062315 -0.16987252875584294 0.043657845899266745 1.1232082703846138
P 7.036300902600224 4.09029990071893 6.636559373007074 -0.8852704134194173 0.26550265395734274 -1.8593631850898815
P 2.3366739782388906 8.597293501629595 10.535655365478728 1.1643168674994657 3.270978524833838 0.38406033448929344
