# total energy = -381166.4975034135 ev
CRYSTAL
PRIMVEC
9.20875337394799 0.00000000000000 0.00000000000000

0.00000000000000 9.20875337394799 0.00000000000000

0.00000000000000 0.00000000000000 13.47794139783346

PRIMCOORD
 96 1
Ni 4.475187109080889 3.8342670796862945 4.380573613800657 1.5201166644811692 -0.18757611668319307 -0.8912343443123361
Ni 8.437621618889944 5.294756954855822 9.104376806009025 0.3404176580986782 0.44553926773038105 2.306647203425511
Ni 2.8595942000302252 8.85635284572656 4.093803823496528 -1.5669089422443594 -0.5217794184410434 -0.1810455146535269
Ni 1.6146351986948109 8.745571542063907 1.8255874803276722 -0.08674696377925704 0.860278262250454 0.5190303949409965
Ni 3.7432753871268036 1.666462062951952 3.1011398022805485 0.4281223578055142 0.18223644963783453 -0.48876259719539056
Ni 4.101983959160995 1.0093898800557533 8.015304503470931 -0.4479352787663834 0.0626996930220662 1.162995834695197
Ni 4.164465351127005 2.485672767343441 6.101450200721239 -3.28288813178723 -1.3621560566715638 0.18044207674157312
Ni 6.7820074674687145 7.146158412775112 12.63257807347143 -0.27747448160723825 -0.5591594017513983 -0.3668794518346327
Ni 7.268855843365401 4.868631099021608 7.224971528934447 -0.283718405634421 0.07799827105234955 -2.3273677238023143
Ni 7.5206323706671965 7.499415402783676 8.738948606603044 -0.7988944598263338 0.40325567647082167 -1.0460990868054372
Ni 2.4060815115199734 7.9740990154103395 8.380597334201614 0.3743531345038585 1.1730136239425153 -0.3767224060669835
Ni 2.867090125315462 8.053588974946168 10.661645154388221 -2.4265775959352727 -1.4477624790884744 1.4676443056140658
Ni 0.2759955488007789 4.069320510774342 7.056200863224874 0.0962980978028019 -1.7168639061406687 -0.5290677245723404
Ni 0.469219138346247 8.630259531717794 4.108372992284947 0.13102136021660016 0.19923349841646332 0.45794612603516616
Ni 8.968957482566703 1.138782074383595 2.4230099629350232 0.5860994206753518 -0.08841175307618966 0.025391443489911108
Ni 6.351931056416606 2.5158406435528216 3.399567874416508 -1.3037637327755998 -0.7429562538978172 0.3491802347826567
Ni 9.10649942367272 6.625955931985147 7.255270169442417 -0.9518290751762575 0.38117427119075 -1.0981137893098312
Ni 7.276600404993023 1.8881167578114746 1.0727433409707952 -1.9365150489815357 -0.010807632138465258 -0.00607705943201534
Ni 6.577932282891155 7.268266483146415 4.173457698843262 -0.4610959845180575 -0.9329931734166771 -1.8049149334433303
Ni 0.5275068640040299 6.9513103991260605 13.189230642055035 1.2198033306025444 1.6056140721240413 2.238596787614493
Ni 0.353553511868742 9.037516651791012 7.8014772490198245 -0.600457746279553 0.5015368661419233 0.3682161683681852
Ni 3.3684238703444307 5.780251643999524 9.676798443951894 0.13875266742258685 0.30008501991790254 1.5526372628166938
Ni 3.3007395326951787 5.151708179203649 12.174893819661161 0.45443579888906255 3.191364829665252 0.9103587238466128
Ni 1.1769523573164045 4.716612997536731 12.721060380723516 -1.0136309389744027 0.1557386604576221 1.5526310921691069
P 8.82857003665339 1.8245671504485514 7.354117849545931 0.0655019383575517 -0.019810864078340075 1.1407691620865128
Ni 4.312597358667938 6.6927838555661845 4.384832662258178 -1.064307639393664 -0.5596435404766684 0.699691272561595
P 3.1184430499598608 5.263576115770058 0.9306799019347396 -0.08585993318861342 0.40352872762655023 0.7714739017215358
Ni 5.367128547996703 5.848534550621183 2.181296761372426 0.8428662374215934 1.471165431393447 -0.0350428505367461
P 2.099162968729237 3.0516243351322454 5.880965017546268 -0.6548797726738592 -0.05614723661552911 -0.25925872993015997
P 0.819800985485817 7.349100920681806 9.545455835649344 -1.1395949392727536 -0.21088239550930135 -0.4752113408735171
P 6.576560178631326 4.228475396161011 0.6432710241431467 0.19424298718040742 0.14517579734011124 0.4004745141812587
Ni 4.730785269052677 7.810616015915487 8.51529561225102 2.3152493432722254 0.3407112780796971 0.10463155736916173
Ni 7.85532451377768 5.7145656058427745 2.862459043219706 -0.4919499937844366 -1.7572834476082964 3.9544656768317448
Ni 3.2379818781265186 4.020357568831339 8.12679396027171 1.3299684161954257 -1.1314273158602965 -0.7141419007692862
Ni 5.520620050029047 0.03761223247545632 12.355929624053054 0.4704501720394479 0.5092596887074777 0.7230006367114967
Ni 8.928761273881127 1.8928592658236332 5.250399310498995 -2.659836302257245 -0.08849839925272501 0.8306211015056533
Ni 3.2108897255599747 1.130181098687758 11.678542010233317 0.7576969025421016 -0.28032326390994305 0.7192558249570838
Ni 8.31031981158882 8.087127254907879 2.2961833273104584 -0.8833587982190013 0.7080262747898516 0.14088539749487347
Ni 6.276483739632889 2.439850010317226 5.9271266566984 3.4256686894222876 -0.865324823535426 -1.9735582177777624
Ni 0.6798481927340078 4.307983773203683 4.3329422576024275 -0.7476171497085964 0.812111215626924 0.14748670486147503
Ni 5.525040251671447 5.399138174890417 8.689120962713746 0.4051534077141668 0.09962073441813166 0.7554441019521829
Ni 0.9732178966154457 6.534439340480622 1.9691141902824305 0.6131631096613634 -1.458785312561539 1.4473210206756817
Ni 1.3451962823302588 2.1788371033334992 3.948780691110749 3.194286631297737 -1.0540913609822942 -1.8923422111190638
Ni 7.108964257704999 0.10278810569264604 4.662787833787088 1.6565645950299792 2.247834247052361 -0.11006609812117174
Ni 1.1710403376196943 0.7203427650304457 13.343162322500934 -0.5941264047448865 1.3744862961021427 -0.32095466427806013
Ni 1.2495725867996696 2.438625246112144 11.618902439573231 -1.1062420748439203 -0.3835551127181007 -0.7460775731356183
Ni 6.429210915131234 3.5067025117241806 10.563417223389983 -1.5461925356326147 -0.35681409717883067 -0.3970834862218387
Ni 4.6791886236310765 9.106085029768746 10.217964651906282 1.2508936242494455 2.4430910202092635 0.49688934006758295
Ni 4.61926726511629 6.9585208530552265 11.316537625349511 1.7289992559516223 0.34320910480088634 -1.0138104019750604
Ni 1.608962606587064 7.6693076946600085 6.168449407115919 -0.11255286909876745 -0.7635209654230464 -1.4993637482045339
Ni 7.954539623142719 6.288344614039995 1.0024704227347128 -0.971354546803695 -0.2813882148393476 -4.940058992942641
Ni 5.318865471313747 2.7206893634178013 13.07540952888789 -0.06854278206640455 -0.32869162791100165 -0.4931177888402926
Ni 1.1775601350422342 3.930949781860375 1.9532769761478475 0.49503377491608297 -0.1970704293268735 -1.4657900260141465
Ni 2.9323617695682374 4.718804680851088 3.2088555119291287 -0.8858293712466809 2.0489794721315553 -0.5428665781286458
Ni -0.022080748954472915 2.676947784664884 0.12703935782860584 0.12977231830084746 0.8621957909881409 0.8675138607669447
Ni 3.4666444343399294 7.411398137579384 2.324810579072394 0.03231645274451854 -0.709942775086274 -0.5405227604868175
P 6.1010201519364475 0.5668485003720752 2.5514960159261735 0.604158849280224 0.8877795529945162 1.8228149536522025
Ni 3.4282347238181567 3.41620809184946 10.974832095633085 1.060379250873535 -1.3567569971431794 -1.233243258157534
P 1.8225688509560498 6.493147290137868 4.235281585814966 -0.4461126237353479 0.5477483317009793 -1.1025427716154623
Ni 0.7081503755001588 8.863176532012016 11.19054622366029 -0.7762384129897149 -0.38603776993063843 1.0054314338827457
P 7.482333165186484 3.8749329347963752 4.804158774565834 1.1149316321981184 0.6646175687869134 0.04289191426751968
P 2.290631369872535 8.274332003216946 13.007871610418043 1.155286124755765 -1.0097508871937062 -0.5947056742871242
P 8.58323042799334 3.513995844434141 10.762419305707548 1.6593149040816066 -1.4917833647541145 -1.100764339558801
Ni 4.168176478755936 7.31817792669185 0.021655304546391904 -1.0687492201047852 -1.3316195786456035 -0.2195228447931187
Ni 5.62548933399499 5.044509080622025 12.098325797586028 0.3045463981233658 -0.49953860476497197 0.868860090382194
Ni 3.6832251060641137 6.329130182944558 7.435079367878542 -0.7596524836065756 -2.13976512475656 -2.5682654347267833
Ni 3.0207197586491312 3.2678642829798275 13.428504444836234 -0.7479997298589957 -1.7286344164130358 1.1240356513819156
Ni 8.216666789290468 8.937297788303011 13.00769572322769 -0.5028872095222308 0.5921248009338255 0.7530372922829031
Ni 2.5167246838813013 0.5211040177499449 6.484884275692606 -1.4269630258446198 2.6483103038955162 -0.5938199292480612
Ni 5.12917435958083 4.732378383394625 6.317003175563565 -1.6752989382146888 -2.2923600973788774 -0.3287245380314661
Ni 8.683891311645581 6.367318883384211 4.843554742579067 0.7799544283887212 0.21919888579479668 0.812743449894284
Ni 1.4788521294923325 4.506975725892484 10.507470362851988 -1.3740479230131433 1.1567989618558658 -1.2997075604283552
Ni 9.139153663305951 6.560610617704999 11.265456670119525 -1.7659053849493522 -1.2895653297880305 -2.4392204815102634
Ni 2.059160143865516 0.7908201175924892 9.737893918527943 0.5402808196793405 -0.32906546631065264 -1.2084645085509573
Ni 6.479840641443559 1.0545680243424511 9.250073098269928 -0.42084999251381716 0.5624884661246313 0.11315476434882449
Ni 5.814277987892583 6.653140172085909 6.245650991426463 -0.49715133547971796 2.7012639732744126 1.4588647596492232
Ni 8.022371300846718 4.623494082936835 12.38769706073178 -0.751217465465345 1.0180372955722146 1.526634668105345
Ni 2.021146409740875 5.2592480016618754 6.019046591602795 1.2227742403054103 -0.23053873628764812 -0.5300110623222163
Ni 7.393643660982409 1.936435087014961 12.159853162697553 0.6001772389246567 -0.42424539134861133 -1.08934941285364
Ni 5.668807310090512 8.381356135483559 1.2192269816492507 1.0348705650794692 -0.6785280082204186 -0.2929383815707923
Ni 7.788496590196644 3.132707409010022 8.701170616565998 0.6625591435959879 -1.2035899540674755 -0.5731246056822387
Ni 5.539672960858477 3.0806779521776044 7.840562882042748 0.06945783768150618 0.10672443534244844 3.313905920324983
Ni 4.82831517654155 0.18578291678076123 4.97034178056392 0.7812569492502286 1.2446445580159404 -0.2712045894381265
Ni 1.5414164002391373 2.715477208981138 8.946563635995894 -1.652924941394863 0.6263017039258504 -1.0101900316136536
Ni 4.735214679448498 3.755136261533911 1.87463330105147 -0.48428810636380476 -1.5990765281158397 -0.5608871830757823
Ni 6.0126345365952885 0.22442100438739124 7.090583585875351 1.5985347966797567 -1.060219071146587 -0.9969840744463411
Ni 8.724023059057206 1.1253096681276964 9.837873354426982 0.7515709921500218 1.1643495205096142 -0.2621782175698001
Ni 7.376543005878374 8.558771978905394 10.727605613396936 -0.4189738585370268 0.43286167226271255 1.219274711792584
P 4.539040605306727 2.265813779401143 9.65875112899611 0.8307475997811887 -0.5537557142373237 0.28194485867376606
Ni 1.5319590104750853 5.567897790095885 8.282047096833619 0.37055767201716827 0.23961215934382604 1.5822522574696494
P 3.7480271038923836 8.116217706966925 6.2093141712999085 1.3753496725437022 -1.3453382137832766 0.16746134821118902
Ni 8.31860768966832 3.4454458839632527 2.7313181066170893 0.034553312494837264 -0.22160620968470865 -0.2711048306354686
P 7.524490838350875 7.764461743766093 6.204556929282274 1.4544545463966694 1.1938770976550857 0.5323322542562251
P 1.9099691296810903 1.8812930715260197 1.5807469861030767 0.24812508191084365 0.057587054385849205 0.8461353950911686
P 6.54465184802525 6.344223329802671 10.408906312353862 0.5594761616608687 0.20033290212822918 0.573171142649458
Ni 3.679863911065205 0.8339852283812107 0.5204373040022162 0.2093757290567878 -0.3683799476395591 0.7459155936364572
