# total energy = -340865.68015575723 ev
CRYSTAL
PRIMVEC
9.32072780305939 0.00000000000000 0.00000000000000
0.00000000000000 9.32072780305939 0.00000000000000
0.00000000000000 0.00000000000000 13.64182729338408
PRIMCOORD
 96 1
Ni 5.849027025810256 2.4815132993751985 6.1020437756845 -0.9145524502129863 0.41496370893636925 0.5774332603599216
Ni -0.11154953881365572 3.8324223107720186 12.590670331306972 1.1564395216339178 -2.385468484599788 0.5358178988119805
Ni 6.642985265369812 3.962054993683835 4.392149727435241 -2.1849697463176563 0.7893245567497116 -1.7038204426931494
Ni 5.788591426442968 6.306134160938332 4.645369669176574 1.9718831440681845 1.008022848759006 -2.948053367092968
Ni 0.2200782297317319 8.075497249077026 2.655436216875767 -1.10020255351806 0.8650779976319424 1.7137212467466292
Ni 2.9665173729527337 1.1776366807000516 9.268216731580923 0.16626732790308785 -1.3595487009557037 1.1426974894574773
Ni 7.372061918378524 2.7891625634584827 1.5705976347045 0.7336591448666074 0.1905143733759106 0.366428223229827
Ni 6.66729372359774 9.266760833891047 1.1856525066494448 -0.7951355070045338 -0.47283718421438564 0.3263406111803218
Ni 6.171505567899917 2.0093252265888455 8.649068742813077 -0.4238000762810766 0.6319468180267697 0.42767550007608285
Ni 9.365560549081241 8.549456260154523 7.528296890641693 -1.2855749776817151 -0.7968501757027953 -0.21700496346727144
Ni -0.09072144036422056 0.08740232917750085 0.5472581469479911 1.1781666288983643 -1.287726219696763 -0.3303682442824762
Ni 7.937494552557587 1.4787055109225544 12.847873020057811 -0.4126530585253216 0.10538000549941207 0.7087099311204376
Ni 3.847009249854345 7.299155185150437 9.77626537269018 1.6052813713749707 -1.3761886235052299 -1.0468076828366875
Ni 4.112137353494452 8.653736563319422 0.18152397106071985 1.128256888552115 0.636802089236542 -1.5636711520333522
Ni 0.6576109043059466 6.682589037996524 1.112971335035283 -1.3201509158843716 -1.471233308516905 -2.31078282286044
Ni 6.248448176286245 5.877930602867312 9.630571211550462 -2.323308466131276 0.3094772597660799 0.5705154501941658
Ni 4.673851017262111 4.187504758874446 1.6828014886130949 0.11263642995150926 0.7715955149010646 0.032533453851331065
Ni 8.703425363477812 3.0774899587125897 4.02930497718089 0.33097399618727513 -1.0308601583684955 0.08171968576799474
Ni 0.9883979431994329 8.393650973445155 5.165750565301693 -0.7732068252522425 0.6086788486377647 1.1314908221083801
Ni 0.38913759144114524 3.8803215311835677 6.750235152427125 -0.059604856146826375 -0.07358368692442166 -1.0431580018992423
Ni 6.905112094642821 0.23571281862418808 7.2906015532042066 0.18887760910343598 0.4615754952576373 -2.354751772242222
Ni 5.798173134670848 7.7096493603100065 11.88626098454834 -0.29305408121305015 -0.7535643684309666 -1.5741620242623469
Ni 7.313965821701119 8.316503309046167 9.115632688415868 -0.361821577695751 1.322862915498896 1.9082115740511525
Ni 2.538341777065258 4.841437703971519 6.381701029894275 -1.0351389882495075 1.624448945442357 -1.5793816207900733
P 4.925725045902174 0.3465614387036643 9.540179724952067 0.2592173351692632 -0.8832248437442981 -0.6922047343765627
P 7.910995723285349 6.775237072806953 10.47905198073045 1.2041072600235263 0.4820862136164794 1.297639879266049
P 2.3694222262735667 2.3210103658303702 13.408920251784329 -0.37868210089651555 0.5162217218476078 0.45951989828018924
P 4.238936535140437 2.3317664857671145 2.801444486543966 0.17426680116879667 -0.0998179380306023 -0.14396840729557142
P 5.9933678172664235 0.17341773405119967 12.885060860026288 -0.29395191043697116 1.5629041919603406 -0.8963359272049595
P 6.312034181666199 3.9077990368798603 0.026425195522238265 -1.0976101102005356 0.14481224335310544 0.6144849137965804
P 4.5031884903628185 5.213921950966408 10.693596494338747 -0.7339396522215037 0.12347157289380026 1.6233927362637008
P 1.4971139484226144 4.629419107610067 9.219624049017474 0.8490050033294798 0.33768560387949587 0.21678102038192343
Ni 6.676959318376253 0.8769425437370432 10.824026099481578 -0.22688622713672535 -1.1707723933168224 -0.511189558740339
Ni 8.191046312210315 5.072843414257085 0.4164109731975635 -0.05053708951760329 -0.05600222639723258 1.2323927372317809
Ni 2.759625176907753 7.342729587840453 1.3650010198304103 0.9257118092639155 -0.07205182366092752 1.520226450586156
Ni 7.746475556037976 6.483656743533849 2.227505756130698 -0.2892884435230308 1.929974419649541 -0.2621278239478389
Ni 4.417633529444817 7.989606741956492 5.382437914242274 -0.7269328818863674 0.9096730106334979 0.33838725793221075
Ni 3.975364993050967 4.751231699857301 4.081403185488023 0.10375403986021486 -1.0502226220555073 -0.6161779852282872
Ni 0.3874785018841778 2.4780832715270864 0.9442009158891618 0.893695404258319 -0.28644711741949375 0.12286890631279486
Ni 7.632995694486971 4.7151511623571825 6.219677885637417 -0.7592997282528471 1.276929643301891 1.471975328889252
Ni 8.501202852084745 4.741025502863597 10.748218755747152 0.3466777800757771 1.5849794265928252 -1.2267489086824421
Ni 7.967358164583001 6.378453688311986 8.183541262147 1.3081914295296502 -1.2832237038407193 -1.4349804968324575
Ni 6.712685668218141 5.35679006742257 12.183583814248678 -0.5476514011117987 0.6413799384152115 -1.1955092339418703
Ni 1.8381687011136025 4.541478040362944 0.3723574850961537 -0.3699784024749306 -0.7401666069678221 -0.7511724711600224
Ni 5.541759911568744 7.520932583568883 7.796291118095101 -0.45873776869852606 -0.08716862469770795 -1.1656836659400054
Ni 3.328860668048854 6.5314347944833715 12.281737602999 0.9612506256004737 -0.6242070261803508 0.34097995836005146
Ni 2.811131518996529 8.512266556040478 11.265734460131755 -0.7183834496544597 1.2596664853460693 0.40435430885163903
Ni 8.454450081198516 8.527198362053186 11.498382623439479 0.24986597586135031 0.6355599892993249 0.5109447897193845
Ni 6.379497609830977 1.6314908818091296 3.5001243818943504 -1.238039651104913 -0.03911290684106167 -0.40677345981609303
Ni 8.453322273128894 6.673333555243329 4.549044607230058 1.1838199705294 -1.050036217076314 0.7333117888295178
Ni 5.345558590365572 6.354592625020768 0.17940816583919394 -0.40472866147192227 -0.23283730251383772 1.5779256050698374
Ni 4.788160423591599 8.9267406819912 2.5587700162900084 -0.8474708260731404 0.2045399982310413 1.0270006754130894
Ni 7.692098429771975 7.4643184826193325 -0.09640335606044166 0.027873072261184254 -0.5655429366802389 -0.11427885065093867
Ni 0.8108352814741691 0.9470139115537279 3.308306598998154 -0.3124957348774296 -0.4288042143638873 -1.289301791713999
Ni 3.7682957031768725 1.2121326944659867 12.187608504533502 0.5771951762071865 0.43905288867508896 -0.16148404758183157
Ni 2.787046758236957 0.7069268753504117 1.8409369572844976 -0.26985424605781916 0.9158878811949581 -0.5844148338840774
P 2.173584413456471 8.453900158255477 3.448435353539751 2.014883301778794 0.65703281446112 -0.8823722659360158
P 2.784250539882517 5.242322208719664 2.075877087570076 2.7211177747755455 0.457300007810735 0.7052872785921338
P 3.948530617576196 3.591994135929461 6.769443308376554 2.2407963663689734 -5.048156654483532 0.9184913802560761
P 7.4153194163217035 7.519925944961285 6.22756228932415 -0.13826030116720056 -0.013808880858634283 0.9423759001831576
P 8.177438049552043 0.6424218462046313 2.3378818153082737 1.352827065961154 1.3456757996283535 1.996407354461794
P 5.677162125018555 0.5027526035459469 5.248242735048798 -0.5556079369547141 -0.9250453793245101 0.07881511052669007
P 6.7822369394209 4.205894554918809 8.493156267733454 0.9402418845592904 -0.6516406969112712 -1.4649559601486255
P 1.572854182916533 0.6671795635148386 7.096232687095977 0.29047732162480944 1.005112102870114 -0.9297790373547535
Ni 0.9827402613956169 5.163636624225737 2.9690069393609693 -2.7019951950134824 0.9144668324777153 0.6620935168134792
Ni 8.068283005722572 0.47430201386230963 4.713155594524898 1.9200839000087062 2.074234390043602 2.0228691481977488
Ni 7.014034120276087 8.251071799552284 3.7543127472591054 -2.2036593523073598 -0.5256674406415398 -1.7563460233956913
Ni 1.1455547354467819 6.756390561098031 9.859712917041717 -0.2752535626965195 0.1913738931627285 0.8644794448159949
Ni 0.5258996990839973 6.464325553976823 12.318747417065577 -2.527172007120583 0.20438573204136412 -0.041098826922838894
Ni 5.988306662044888 2.8927531327626186 11.718084295766145 -0.9981541834950424 0.4269625331694583 0.7475976093245704
Ni 5.078240115681154 5.225544898593028 6.261271633659703 -0.02341323671761774 -0.5180754872268948 2.47029252032472
Ni 3.7713435811832117 3.099654649535447 10.609876784734043 1.0346610201718245 -0.1418837568524008 -1.9249150028487623
Ni 1.1968839837064433 0.7542398219803131 12.039417320403272 -0.5930622251464303 1.0519905125892077 1.2382543382188804
Ni 1.626289915669872 3.0680200992188875 3.3890660454382915 2.5678748841565837 -0.16680443135348047 -0.7946688517807604
Ni 8.637518496863672 1.0845039680415192 8.836370633066855 0.6787115849861343 0.5624990076475926 1.1144726902838291
Ni 4.06954162722849 3.9213047715318035 12.63193692178179 -0.4257978234373957 1.0649303605793272 2.1776328463366106
Ni 5.217389261725912 2.083443654437189 0.7201166373283029 -1.0079243755079286 -1.5205303549798201 -0.5542210839095164
Ni 4.2565061071341646 0.5670497804607141 7.126545558203671 0.0010826915412174903 0.1990334665905153 0.22462751300953573
Ni 3.284624493681621 1.091289457914959 4.3154280202989135 -0.11816044509353199 -0.40336083459011823 0.3535508530465266
Ni 1.1453217172505787 6.2355762511279735 7.522294341907496 -0.5292093923565273 0.43573153761133987 -0.15663777523312378
Ni 8.994586259997751 3.6475083909929333 8.829972885471896 -1.3971364294014905 -1.464415257153807 -0.013371536210899551
Ni 3.754678119790752 4.871310636724782 8.597938958129365 -0.396244278149995 0.35535345347290415 0.10601943885562388
Ni 2.5429741788057796 6.559313091477133 4.5161676038913425 -0.2489817734841841 0.024310808831222646 0.04571524264892772
Ni 0.976942768674079 1.9733938207342976 5.280301378482447 0.636562205311594 -0.9194177487250874 2.9855503355971615
Ni 1.768225959341222 4.853796989098142 11.639084602743736 1.511342517832965 -1.4141010822802873 -1.6541917239224286
Ni 2.3130131813366734 8.332553602400651 8.216486306799005 0.4562080602981369 -0.39490936138865534 0.22480260513481928
Ni 2.035907942411717 2.6882284015910645 7.839807732272457 0.8513200246159016 0.5730063349368196 -0.3151025763726573
Ni 1.6061012191508186 2.757378881496354 10.421960658515074 -2.114111685854514 -0.41614024574297365 -0.020405046018913246
P 3.5265719471634247 6.772962815212009 7.157075602270226 -0.17842016121553786 0.36379489937203796 -0.15118806497246218
P 0.7374093837049417 5.208087175333477 5.13378792536488 -0.2559564050298043 0.7105930070757632 -0.128967563011365
P 8.005041867272999 2.523773479438628 6.199174148517096 1.089276907744492 -0.6439065614918071 -0.2510736230162063
P 1.6164192648787006 7.964291645120966 13.183830266688657 1.1251481677198043 1.8713319274159836 0.3305993864566758
P 5.6780662356198235 7.034549042269826 2.3475949457988117 -0.575324441547035 -0.7446639806175432 -0.18192791725848023
P 0.8659217151294123 8.997000328510417 10.198357329511179 0.16726645859156353 0.2877270125731819 -1.5955628585356263
P 8.079244181671974 4.591744725647919 2.7592504836482585 -0.38579531490252916 -1.3832594143090822 -0.6031674319012322
P 7.968644425026043 2.6941191015910837 11.112782248216698 1.4203272656956571 -0.5090560573371039 -1.6811489692375627
