# total energy = -340887.9301405205 ev
CRYSTAL
PRIMVEC
9.08742451618548 0.00000000000000 0.00000000000000
0.00000000000000 9.08742451618548 0.00000000000000
0.00000000000000 0.00000000000000 13.30036435038718
PRIMCOORD
 96 1
Ni 6.723213049739681 2.2360517289875284 11.767949672146479 -0.6352447720517512 -0.4517117150896801 -1.9992504803375437
Ni 5.12020950227182 0.39594091295754047 6.303548505782811 -1.381126941347112 0.47949865539496134 -0.9356393527902725
Ni 2.853287791477534 1.9518788702653915 4.979324430460016 -0.4826798813364203 -1.138260022511414 1.3285746211716927
Ni 3.7234450590442734 4.725179149272194 5.137545582428649 -1.4769123611795532 0.2838785853613692 -0.185852449123867
Ni 3.7106954021485183 2.86778223392139 3.0905259189557683 0.3881417036475186 0.22482214551884508 -1.557996213135762
Ni 5.347058885799072 4.6789968567959095 2.7356319947597645 0.17671397715770856 -0.03508193130479764 0.36145416705400335
Ni 5.522337133985332 3.0501123236978906 0.9066078368999986 -0.999027587238931 0.026068414952277685 -0.4912241713620056
Ni 5.872275685476237 8.188196790413011 12.896166174732116 -0.6450496739573148 0.047086411964841486 0.5858525947718685
Ni 2.488345901757912 5.752948711350677 11.596122827872554 -0.8120230267884918 -1.2582798894111877 0.5857320100336041
Ni 0.7374463342992917 7.780089633227361 11.590136941203106 0.5722771700802789 0.2718365665951706 -0.49845668455470277
Ni 0.9211558951497594 0.3117177518203003 4.8455620821513445 0.02555290876843986 0.735993706537055 -0.2686951927527114
Ni 8.822735309588346 2.5673883220567566 1.5116267655834095 0.29595711379245804 0.44883567909346567 -0.3882188367423572
Ni 1.4655562484312998 1.3106247442148145 2.4576812957500462 0.3087120994652812 -0.7690650351697271 1.656155789627335
Ni 1.6279485283508606 6.939275660112791 0.5331692050581166 0.561954190887716 -0.9519440034875669 -0.4115171451486655
Ni 7.840693668749664 4.189284625537644 4.018571899535578 0.08419360122978403 -0.14739440225798486 -0.23954582488226486
Ni 7.492599864478887 4.105989290465304 12.818917612074914 1.734711475845051 0.7820797022618402 0.169536742682979
Ni 7.817084539301929 0.02124821650296122 7.198117322400917 -0.45985285613957577 -2.8917377232203747 -0.6165819055349253
Ni 7.183736472766183 1.1120917761452764 0.5232630033602815 -0.1705083625676289 -1.071466104815316 0.39235137085349203
Ni 1.8732726463535725 7.028541433232537 9.437792207628172 1.3273186372774044 0.08052823656305486 -0.880488932870374
Ni 9.255723835683888 5.152824269626677 1.6072828157730725 -0.005530442899925959 -0.2759333623723635 0.22951929388419826
Ni 6.626650074561995 2.1323823876712242 7.089906086204714 -0.2794192640384349 2.024445748656249 0.9419753223106293
Ni 3.5664688842636076 4.5018920362389805 0.6097498419976874 -0.2777331345852636 -0.5519803675044559 -0.28883438670474776
Ni 6.263998215874255 5.971610325196478 5.02165910730575 -0.00973908166463484 -2.01028051289946 -2.5223123650354364
Ni 5.429063806559795 3.498504034710256 9.555101773463742 -0.3268214074714823 -1.2599176821249267 0.033535412753284186
P 0.09386855374533315 5.915749925383073 12.338136501840989 0.6504921851291249 -1.2631642140866826 2.108339816367743
P 4.25417792553236 6.312443277108232 13.01799764311318 -1.0001365040323937 1.3817699742477494 -0.6409474788634832
P 2.384085877834179 8.708960751972628 1.4083890769417657 0.4566034959643426 0.7381027824602578 0.24962866303956363
P 6.509049711135076 7.697348631063534 5.981440192526584 0.8138058297205275 3.1382779771426015 1.48096107732763
P 5.017003619616729 1.5134197144825772 12.86078792151696 -0.7311554046081473 -1.6754076958784114 0.8915058528061679
P 4.073429047658825 6.727665887857229 8.275260680520752 -0.7154181963785486 -0.596758700161411 1.0378538160775095
P 4.809892122602364 1.1766579288497243 4.20701146495785 0.7122125449570573 1.0597662998798847 -0.9026361583913745
P 0.23972353814180403 5.941994408002418 3.8931627120384373 -0.24838784865392705 -2.149260980062137 -1.75962623680886
Ni 0.8894071593716413 7.596632702784379 2.87560559787118 0.06498797483561065 1.2971613969677338 -1.7464907278681663
Ni 1.9735069411220536 6.818930894417506 4.862480140770607 1.8374257615868421 0.5008249276765634 0.3034891605034451
Ni 5.830328132923987 5.904690529487041 9.449523164211731 0.3803558890545127 0.49974763545198453 0.2120260221954413
Ni 8.66901243286091 2.597594921858246 10.155507016611889 0.7251853030676414 0.30188042125542847 -0.0175295242433311
Ni 2.4732516892818976 5.792242735881857 7.038925633471153 -0.36923303966847376 -0.1095369650905791 0.9580871402708273
Ni 0.7586981857721449 0.5552371072716958 9.378592179226608 0.675517760639185 -2.106612035043359 1.3758698067132304
Ni 1.7841886217284215 1.652802634986563 11.35484079638961 -0.815484502974531 -1.2856251141933601 0.8918609221527415
Ni 4.273288779738898 7.265532382758122 1.8102331810037129 -0.08827908415306732 -0.15327914317353603 -1.031968818051642
Ni 5.65085149451261 8.22662750959487 8.154958625721695 0.8411579964812353 -0.7694157336409265 1.2906948154067837
Ni 7.114672044820538 1.104921798033551 5.118459264268882 0.3412715214585413 0.12295940914407211 -0.5538292477877365
Ni 1.058312396594971 8.10347472965811 7.033219639483382 -0.32183243889732316 -1.6587088950664917 0.25032877443038176
Ni 5.073545576284862 4.951828609455393 7.284250660216339 0.12593211861915085 -0.01780488939190482 0.2630328522606115
Ni 7.957112666961723 7.658699813688162 9.374509199295558 -0.5210206858981479 0.7441099078862863 -0.8429647106726708
Ni 4.55761612468144 0.9038925143907671 10.827507535492899 0.14560465734741374 -1.0406367781392853 -1.4977292979249046
Ni 8.569423345248238 7.541108537685973 5.00979547432114 -1.5273296372898406 0.6559357247421994 0.7944073705892576
Ni 7.494799021263472 6.20990986388314 7.258873117916206 -0.7255997648972407 1.5957585194862 -0.43513452745728937
Ni 2.562780997718803 5.206140190515769 2.627992357579059 0.34623966409709406 1.7082913339803094 0.5166212712788715
Ni 3.3173643975733444 4.632187532013276 9.217125907887002 -0.09675729682740755 0.9126146097603252 0.44403491527071276
Ni 1.406160840398046 3.7969350628332763 4.07471310077313 -1.1092137558777349 -0.6438327708310783 0.4145348489290667
Ni 0.6086738909096922 0.20975412012575928 0.16180523228202282 0.019450395415127792 0.32377053646030046 0.30188324946890593
Ni 0.9933554846271467 3.982636587184492 8.327185316683728 0.1693577939029535 0.10896438041656073 0.9030755599216382
Ni 5.456798626834808 3.3112031236066146 4.853875258294065 0.9972553258298567 -1.3548240417865247 0.15906721061022283
Ni 4.4308011125786155 6.998116735237534 6.033058582476169 -1.6107290247531032 1.3523241581828065 -0.19250929231875233
Ni 8.183089657714925 7.336932278859297 0.5630059466731079 1.3821314713522261 -0.2662575298454963 -1.235862698058252
P 0.3651472655185128 6.226203616423474 8.070474655494714 0.4524689049706789 -0.09926540796124195 -0.25737102598914385
P 8.705225820408725 1.5881183457606292 8.033167142009445 -1.1072003249921318 3.521433540429438 0.5173072416023027
P 1.7307363894683847 3.664485847398044 10.622269865457795 0.8804619362871805 1.3088123509431007 -1.1737157922158625
P 4.309156845146985 6.314924144059438 3.735407744958437 -0.5691419668854069 0.3721720676921397 0.8975574583168865
P 7.18175541417511 4.1687743079227335 10.639785876624272 -0.9865212272418042 1.2023015742733552 -0.8645761182948595
P 6.0897468466824485 8.034483001110305 10.71611751812625 0.8294738752750876 0.7791735843586387 -1.9439673914945232
P 2.8377210329155753 8.812003060982583 5.933624889826374 -0.4551688204003452 0.1009808479904519 -0.1098390697120302
P 7.257771722038967 4.024066156527149 1.650920629325044 -0.32384381290039715 1.2570778986832867 1.9158480075504876
Ni 2.564425821594877 2.043361975019181 0.3471877880252264 1.2671815627761918 -1.7687163720355863 0.13181737375533428
Ni 1.5135015013051445 1.2395338205544495 7.2152480267588555 1.3968800904163106 2.018563321733543 -1.118165308644068
Ni 6.8220933182234385 1.0922175782614445 9.359679430879176 -0.32475526897107293 -0.194716070162084 0.30981998781747927
Ni 2.787622060380794 2.221957133231779 9.247251629608398 0.733254453229021 -0.08352382885626905 -0.4416602443909491
Ni 6.577941478010857 2.098831615569209 2.886392371025322 0.09867585400635909 1.2718622560813129 0.3576229662333712
Ni 4.144310960550407 7.153411736443207 10.717885930978648 -0.030412036632954078 0.5764462138563039 -0.12226366862862813
Ni 7.106511537413278 6.328082735068029 11.597159703034212 0.2540167648049303 -0.3887489982142143 0.4137689172973197
Ni 7.6787921097655065 4.299269727041082 8.451105075267673 -0.16015658701965965 -1.2126381803126727 0.29963970485036784
Ni 3.4401173308219977 8.758496304174168 12.656121850497357 -0.44428405516704134 -0.19276254598013898 1.203344927936205
Ni -0.09702552509642745 5.807555046551384 10.160880410854555 0.4598366581896597 -2.2577674470056732 0.1568491199129815
Ni 8.960064472103422 2.9647087060882638 6.249908163830871 -1.436458624039881 -1.048386597288033 -0.44944528765300656
Ni 3.77455273572405 2.9580021866377524 11.776409155827347 -0.7807560983544103 0.36498686279761017 -0.6543411265615698
Ni 1.1125370599570312 3.7214094759048226 12.772752585705616 -0.5942536743513701 1.0722382070946501 -0.20188944798207165
Ni 3.3566856843787134 9.094058549742702 8.228137839584944 -0.6226070286830826 -0.8957024073860187 0.40529404705708905
Ni 5.877473692421619 8.295092167508354 3.9680576316906504 -0.5199282241649174 -0.3624959780549563 -0.5497501926223564
Ni 3.1381603819038575 8.787694199830662 3.5151403831628993 0.2729459976092654 -0.10990103329821717 0.5562972497122548
Ni 4.0509921960012205 2.8799957327580934 6.897010047695003 -0.751499258371822 -0.38220399800684496 0.6999285853833817
Ni 5.1431370748648275 4.671308895474591 12.003193109896547 1.2463237454905762 0.414849294845692 -1.265650470843646
Ni 8.098967366992184 0.2873271038458123 3.117858166315257 0.6538803848750675 -2.4822507211278606 -1.767588171968414
Ni 5.0635039719585535 0.5291189398560937 1.953650918087681 -0.7207704618293974 0.2722291740478989 -0.9729203486289179
Ni 6.129649728670517 5.780874367545015 0.6685663810756601 0.07970059845543692 0.6265534149253402 0.1758673128866971
Ni 7.9144381204310985 -0.0309263238400811 11.277432295057162 0.021626577130840176 0.9197944153382158 1.158125393976773
Ni 0.37466906915028203 5.278421566815722 5.876979336516324 -0.5594332242380752 0.04569493093395356 1.399224165168455
Ni 7.3084977268800975 6.431624852438117 2.7282902643206484 0.9029542038524255 -1.3945085048603403 1.4236722709084901
P 8.67690940495101 2.1167429297114277 3.8402012007138038 0.9424440344169317 0.7301842989441295 1.069071122220578
P 1.8795884065407071 3.3217354488683255 1.8127331315468507 -0.3463769610059067 1.6472484598353758 0.12961239568421548
P 4.876357547075317 1.5520321821590302 8.463274954465673 0.027730890256365142 0.09720415455683905 0.03657060003518218
P 8.835066944946536 1.8347510529244166 12.305098260493727 -0.3896614827261547 0.05207152388425871 1.0460633484714954
P 6.716624666810656 8.126883935761791 1.7541719491037822 -1.6403378487584717 2.0691806296697783 0.023986335612268365
P 1.8872218433136467 3.6618777565006235 6.406200055529391 2.3367699909528206 -0.6108146640338449 -1.111303548527228
P 6.869048041801747 4.334292661949307 6.223201131292785 1.3851039237169886 -1.9409532872585475 0.5388042351338139
P 2.4871463616935934 8.713213666746123 10.68354455292515 0.2035614363678559 0.7611416665575923 -0.8517941360388427
