# total energy = -340872.2990300472 ev
CRYSTAL
PRIMVEC
9.27243352801333 0.00000000000000 0.00000000000000
0.00000000000000 9.27243352801333 0.00000000000000
0.00000000000000 0.00000000000000 13.57114374019191
PRIMCOORD
 96 1
Ni 3.170977552504969 6.046043933174559 3.1040055467137435 -1.0284739175245061 -1.9327949198174714 0.8236806656320782
Ni 6.852634382697198 2.465530808130086 0.5386634821368306 -0.34694594613549923 0.41214423720970306 0.37432330970718763
Ni 0.42826217933418725 5.737661338216359 10.382711959940957 -1.4303658808785817 -0.36925772225882214 -0.8896736846934357
Ni 3.9656807422183458 8.5066974412581 11.035972521061156 -0.30071005509641113 -0.10238261343398496 0.6478976849290713
Ni 7.245729930555094 0.7434702126274864 11.556331292129764 -0.11433438647922245 1.4666575162207645 -0.8196502043164465
Ni 2.3901830131144406 1.9321618855494869 7.031399483566706 -0.44283009632933407 -1.2113929950516622 -1.0598555171595812
Ni 6.433270030596215 6.8517164117758895 0.6722032156165648 0.5544833364319677 -0.49362686726622723 -0.41846837965551803
Ni 1.709020772203252 3.2763123976166764 9.656153738862699 -2.0412779897222397 0.5788198562948031 1.33332396293122
Ni 5.045752346822383 1.73754277779864 12.931399806621291 0.26704531585411434 0.25059899737263297 -0.8315487555262453
Ni 1.028600325975948 1.2887384491809604 11.31457484119143 -0.13188062289310187 -0.2456997602988027 0.27601203812909886
Ni 2.070599318429574 7.0538554631346235 11.58621449097008 0.2937022563200103 -1.2378085089307134 0.002707371628834047
Ni 1.9013588613011514 8.695187470433345 13.00510452641213 0.7232608323514189 0.7479141121237249 0.2715951400083258
Ni 2.3790282755555165 6.657598015436666 0.8288767435566159 0.10480330706033564 1.2276439096928857 -0.8191982043806924
Ni 6.023372833148316 8.398274875774721 9.58044060996524 0.013917381412040547 -0.2467315439974267 -0.6112895467877344
Ni 3.379941114955447 4.40650150555071 5.155500870303207 1.1825914974389375 0.26164085700909134 -0.3016369377860547
Ni 0.6751064145606208 0.3561838443877662 3.608553891338691 0.9202281604415248 -0.3144708563259294 0.8775229082635145
Ni 7.490670535174007 6.306330415316349 8.035257247861662 -0.24575992411277678 -0.19420622040520102 0.7086543952921538
Ni 1.3440856050323493 3.4711076816049453 5.366247521725073 -1.1913892982362255 -0.8955638249256253 -0.17276990490829597
Ni 2.3097539245141814 0.6403014079927244 9.545956429598126 1.8797021537575498 -0.03868558949565596 0.6009092319946747
Ni 6.155217565775373 3.1393956438385544 8.672693473887879 -1.8792432118432603 0.09633280769547925 1.9650928606192286
Ni 7.501370923489052 9.105437020356089 0.21257610256099915 -0.12076600103717912 0.2911825752219501 1.0675279461031744
Ni 3.734834236593253 6.505678464176964 7.127808684144564 0.6094401522838214 -1.5085127616936536 0.5131397404881743
Ni 4.836130441589956 8.692646823641038 13.859937593201247 0.2050040823516534 1.3589658318690403 -1.6252156484050524
Ni 8.574692196469734 5.5788523688300735 1.914033350718686 0.19804384898373634 1.0058541232424612 0.30544114202349326
P 3.2061571653882277 1.3952694382204323 11.792835836706193 -0.6985759280102292 -0.7431002356748492 -0.5866072135497059
P 1.7615954704236199 8.651569943020892 5.482551655724735 -0.8764836683657228 0.8198664340923107 0.5389492453521105
P 7.089016531150785 4.411860972141782 7.112921792082341 -0.08071952663825453 -0.402698518415771 -0.6152950684027017
P 6.5320029030213425 8.653229708626085 2.277658323029176 -0.4024100406410747 0.07747479444871173 -0.41807345820994446
P 6.22117238560632 3.038854646871456 11.41056307328618 0.276022322541744 -0.15778885811843146 0.22142906067689608
P 4.873702342328745 1.1253952597894261 5.331464768997694 -0.29320474785830153 0.9419352131013133 -0.062252321072002466
P 7.802799193285828 4.769813996850614 0.20587398759209583 -1.573189890157065 -1.5084837082279312 -1.283141685649874
P 7.358899982015339 6.726297475597989 10.284145064076348 0.6576609349634223 0.921094107986246 0.0936406055752968
Ni 7.025481816476011 2.1084401197412705 6.947340237232184 1.2992136515110722 -1.0058929469001967 -1.0704235224834147
Ni 2.6228283708479556 6.387158218559197 9.400948550305523 0.1527600374452724 -0.29368657259072645 -0.6567672195045593
Ni 6.312709849597762 7.989555277387491 11.912139602958812 -0.191832835077018 -1.3745045509345877 0.4517451394307768
Ni 8.050085723592527 7.934439932374816 3.8833693496077277 -0.3789260985865216 0.10639533413780387 -0.3032546758951358
Ni 5.263135278934958 6.1078447027757505 10.635067729668657 -1.1441640467006748 -0.09607903981346035 -0.03197295336217074
Ni 1.1963757386036968 4.233208994961566 2.9403508035549772 -1.1348078022967554 0.8534231870018335 1.5975786034140744
Ni 9.188814742824793 1.0611094779972197 6.406475479370924 0.9843417030919822 -1.0480960626308078 -0.9909144712134934
Ni 5.482493239393379 4.411295353695319 13.003273220786289 0.011095852802845406 0.4321980705367848 -0.007591439194012732
Ni 7.4536178907139385 3.6881011715084817 2.8708121881575086 0.4235977304622834 -0.39873490578233267 -0.695242492761622
Ni 7.306343828662069 5.0075870103364855 11.583228767367444 0.7505829172051395 -0.07541251260304431 -0.2985331020497503
Ni 5.634746598260828 3.1941679088099324 4.289159786236966 -0.6592473056139356 -0.1612917290653674 -0.7056330919673267
Ni -0.21494984554943197 2.879276065500639 0.9629987858632002 0.7592207953857957 2.3997998136207963 -0.46321303086106036
Ni -0.0897237759893417 3.5215775374097893 11.608742795519678 0.7071518426046983 -0.4669840678677184 0.28025075880079475
Ni 3.0940070816183245 8.45038595231766 3.718208763240675 -0.3189144939195798 -0.17066494275015123 1.7450542525319561
Ni 0.13002177219140848 5.217338729638591 6.47583791853097 -0.5925860568409601 -1.1577512984668061 -0.6477724722051166
Ni 4.270011283715823 3.8000658066074133 10.724243504835279 -0.772447835599031 0.4850967183080291 0.11727675693699802
Ni 0.5563311770202678 0.6737563482359497 0.8744238643905258 -0.5708062419617074 -2.2844734955419495 -0.5717796616185701
Ni 7.362998397643805 1.5302018912191613 4.599532245434688 -0.4267059370739618 -1.5894402905776563 0.1821135509067251
Ni 1.6858489607653862 2.1021997719630856 2.0940956650416394 1.0428425275413524 0.6107691555078901 1.592369034188677
Ni 2.750064704001375 1.5287461191520364 4.452529865685791 0.4737761510888873 0.3244562496734154 0.653089770652972
Ni 5.635340034007936 8.439815378072296 4.412372810473663 0.13742803507389237 -0.15794852362474732 0.26723994836342363
Ni 0.09989007213198921 1.1701440240948044 8.913445720272906 -0.027133365881682303 1.0116218789641738 0.9249600186995555
Ni 4.3792312784843785 5.270043241928639 1.370006693017365 -0.035870231534047906 -1.221450379287664 -1.2944054314891513
Ni 8.209608670362053 4.010679862229535 9.187813320001547 1.525023100643851 0.35549229304361357 -0.3886407547711242
P 4.543038089553342 6.4760901287234915 4.7486515217627225 0.34736400750952434 -0.395948344176131 0.7815503121209314
P 4.602316757229323 6.68834540508371 12.85214460810828 -0.20646858271232185 -0.2508327106499938 -0.06010030772600618
P 0.33720410015720687 6.446381251633886 8.212686191056823 2.539425884787272 0.6871532879955844 1.7940239975624392
P 0.42573822292226765 2.804132264023062 7.5342778629095575 0.6548581754073044 2.0558800559061305 0.2229231287239193
P 2.504743929606971 8.909705220579413 1.7996560284104177 -0.47698103117943014 0.7408384362238661 -1.4879241389090245
P 4.543473893930124 4.648094761658592 8.534471161466119 -1.936985046639419 0.3675790490048186 0.028009597839048533
P 5.431068322933032 3.2365522025604263 2.1356639846398595 0.1763591649214511 0.2825148722446232 -1.3158160359544435
P 2.161858609414558 4.799355970136345 11.39142847941536 -0.02991992748788395 -0.09393705376979307 -1.037616760366039
Ni 5.8725196117467 7.713811648520242 7.069548129672215 0.5225278665712937 0.8465352016327485 -0.3586436941884017
Ni 3.460407293289901 3.5394640617249724 2.9070340225716254 0.40138674158288296 -0.4206232212149918 0.016703943018242202
Ni 0.8195505298934684 7.121266055032696 2.8194456880285186 2.055388975202325 1.7878340667016437 -1.2995980314336844
Ni 2.2489823950368817 4.450044853494775 7.483169136433218 0.6938877785059404 -0.0954329215890292 0.3533508212205786
Ni 6.824770719883758 6.109291202409326 5.221891494510937 0.07323401689448678 -0.3153244625754763 0.6072156338286768
Ni 1.812176595431046 8.506159640112283 7.8417730859771595 -0.6571677973770876 -0.9349456691573577 -0.9047030682227322
Ni 7.872231175697488 3.724412021284665 5.1540756972667925 0.40585660442877847 1.1686404345754842 0.8203284613303937
Ni 0.374222436613146 8.173260730851675 9.976446774714033 0.5067317800793015 -0.16930868583257294 -1.0512888585364928
Ni 8.899403546906957 8.056975141719112 12.13106917698729 -0.12027106367863158 -0.09776954014200581 -0.30977139396773107
Ni 3.8158845782412665 8.723190219750013 6.449794434423113 -0.8183284001812293 1.0580554878363648 -1.2821572102494176
Ni 4.683849265421861 1.0146545859189051 2.829909629288075 0.17281181388982497 0.2084969259962603 -0.3144415457498907
Ni 4.386111424177415 7.522252443840422 2.0506543138666085 1.34504510802289 1.0322979192562867 0.6904692397426947
Ni 8.102456428274827 1.1389051954696863 2.3606864747530985 -1.430080231317363 -0.4431293727373078 -0.1445420204108543
Ni 4.957562231341974 1.4274725999346012 10.379889431168772 0.2837492588723565 -0.14514237299901456 -0.08366832485393333
Ni 4.912757832435304 3.1648577463629155 6.389484672136532 -0.6519803396388771 -0.4440865944442546 2.0464294520161914
Ni 5.078567489150757 0.911026795823489 7.842506535470851 0.11017768399837155 -0.39795688996572753 0.32727957805482344
Ni 8.017354033166091 8.794309785067512 8.161835238233133 -0.8977348644350153 -0.6144509752348515 -0.7940373888443486
Ni 0.3303044823537191 5.676722904935185 12.769754399812498 0.31253635830737786 -0.13510761447083183 1.3597379341483744
Ni 9.14117297925226 7.505218983411707 6.411293435842758 0.8339023433600864 1.400054374379234 -1.6793677089674237
Ni 3.5396124206617494 2.5495112387794463 8.78728869838454 2.339006079372191 0.9878492020246085 -0.536818829272669
Ni 3.035219852920418 1.3216463158448202 0.4182460966150265 0.442739850608373 -1.0534105328651857 0.6151428590955536
Ni 2.2716256777624793 6.466326256196851 5.151551740854873 -1.9143279713615355 0.9877838960043116 1.20041181344981
Ni 2.62086261493566 3.432960889986146 13.031568979003092 0.17815868002403512 0.09117414631267523 -0.487477816945696
Ni 6.131971574869119 5.866028908262704 2.8102038535106626 0.05889677433620825 -0.002820500167930626 1.3351407044249846
P 1.7229294225261007 4.66058472964851 0.9867325067741091 0.3898473734847157 -0.6494074367053784 -0.4378753234272201
P 3.9740722945797984 8.133899250438015 8.851493810004873 -0.7147024012584465 0.17383434161706837 -1.2543095919095302
P 7.548882872991903 8.879977798622713 5.787075063840021 -1.0108533762292655 -0.028270050589286798 0.8309797703966528
P 9.195537257147501 5.904648593992481 4.166029286658851 -1.2554681309940057 -1.324126612702668 2.2165953436427372
P 7.021448307882386 1.0877955417499918 9.367495464549009 0.14537557205574317 0.4966211740078609 -1.2823099337771982
P 8.773956793428411 1.6059298560102977 12.75995621928173 -0.156338241714834 0.09326419607248454 0.9990162743850215
P 9.17562934231873 7.464995166678029 0.6304531563207927 0.2579644365987686 0.42745772763832196 0.4347074672221998
P 9.269457097396668 2.5175491603375404 3.8386521115764145 0.32943853337935525 -0.8135942279303537 -0.35025315613186125
