# total energy = -340896.10615033313 ev
CRYSTAL
PRIMVEC
9.04462868560754 0.00000000000000 0.00000000000000

0.00000000000000 9.04462868560754 0.00000000000000

0.00000000000000 0.00000000000000 13.23772832647132

PRIMCOORD
 96 1
Ni 6.3137748291326705 1.928106787079809 11.622394759063349 0.6872255359944165 0.2952166360820077 0.34641244222953244
Ni 4.566099337621591 0.3934105915501936 6.167351337029699 0.7984982528291796 -0.5457418427939117 -0.8105767812602684
Ni 2.820802583427398 1.374394625331469 4.8654078044860265 -0.37297913697446733 0.20013029919911987 -0.18100154878946892
Ni 3.3369524026775212 4.234559432344767 4.646349613635059 0.8689909595331035 0.08362950119619791 0.7002967673560779
Ni 5.207535351980143 4.676995528657141 2.4391310153128987 -1.0480060740201627 -0.06480542651115936 1.2298992813859657
Ni 7.3955847644870545 6.1923778243142085 2.6343077688577523 0.07001756683971812 -0.4478514608033255 -0.0240873799665069
Ni 4.993747466203509 4.540955270165524 11.26195726546921 -0.2268962544390544 0.9754850240323006 1.048226160450769
Ni 5.660119521560756 8.114117192872769 12.400573799554284 -0.9049540078912736 -0.03614559668262162 0.9934223252370118
Ni 2.0105937997414367 6.668532295977738 0.2899789324828056 -0.35263039811478625 0.012765784306100597 0.09933122820217087
Ni 2.5332647961986905 1.6899888504194274 0.37504728214154187 0.20942329446527155 -0.0832770029527856 -0.28094932752971613
Ni 0.7697404020245665 -0.026069332959935326 4.4798063452529435 -0.5256419867202431 -0.5236745785812271 0.6960837577159947
Ni 8.855604888597869 2.3821742757477593 1.3384928766407818 -0.18094549874055288 0.7202351581512177 0.5175527819542054
Ni 7.0364768312943715 0.6380569411205709 4.7489419311700996 -0.8790691697047118 -0.21542347791276448 0.4818841249080024
Ni 0.7796307033782387 7.393857240428024 2.5206222143677235 0.3983165872979914 -0.09655006591260791 -0.3291665106648911
Ni 7.698082367389264 4.002926494377191 4.129667970224354 0.1398584988922559 -0.5784084797889975 -1.642935434282319
Ni 7.630998357201622 3.9695065917692176 12.675283590066108 0.41625800226776055 -1.179469406870188 0.16571711182657264
Ni 7.92402623397919 8.787643549437838 6.967320696698749 -0.12172065164096457 -0.07913341309805726 0.3282830796186733
Ni 6.99518810182065 0.7649123792878585 0.6952072357373504 -0.19669401982406123 -0.5398113362420897 -0.8426145264221037
Ni 1.73122331212166 6.570931708956727 9.15478944405074 0.9564478048951915 -0.14409593401237117 -0.34036726447671706
Ni 0.19999211380154808 4.999337046666764 1.3351707845628635 -0.2088666506308532 -0.18156847703653248 0.26420836062595143
Ni 6.485803664749354 1.825875350225162 6.957127400287603 -0.7139598666654673 0.09547457346024203 0.4881794709984108
Ni 3.4073648361830884 4.169456195816434 0.3839236806312482 0.4242250796336372 1.0356830336784355 -0.8440355751393464
Ni 5.916254358355125 5.51482660803045 4.689108095253244 0.05501826521740847 0.9865903899168428 -0.08689197399755358
Ni 5.15381930283569 2.841270577906923 9.52094495183399 0.07028753267165315 -0.3981165554720434 -1.4241312128227797
P 0.266239495845418 5.757448769724329 12.494959021114637 0.21933721114487384 -1.4395238932287662 -1.016143163873295
P 3.9889344539618903 6.2315501106999 12.565185135271431 -0.7421674394479347 -0.34696625785047336 -0.8576390248553939
P 2.4006976750823004 8.70857540637995 1.3294916622766533 -0.01551583624741199 -1.2905140668545454 -0.10591248096411436
P 6.370973060280931 7.686016832861784 5.6970152749325305 -0.5740859411542436 0.515592315793725 0.35181895795708445
P 4.462574518879815 1.2293368721442772 12.630142753279605 1.424783758805114 -0.20728285108350106 0.4875703766595022
P 3.976823696291505 6.003281774564575 8.259468896488853 -0.5698495344753928 0.9751703210053593 -0.4682634488007742
P 4.698277539708984 0.9858916492494989 3.7447285778034236 0.46283790690982873 -1.0745398586446333 -0.8002615153771895
P 0.34797489987193836 5.545605479092678 3.681028163168053 0.15333133656771014 -0.14688712360426315 0.0006162934277602289
Ni 1.6817672830390087 1.259346949777093 2.631329372665924 -0.5536371863815884 0.2100735264547608 0.03428283244226999
Ni 2.044918165207542 6.387081543784259 4.9077158636008615 -0.5520790978658492 0.05632335718207719 -0.9479845046191867
Ni 5.956729071256526 5.570342538262586 9.071298477616587 0.10857100163288398 -1.252335756012611 1.0243753219751002
Ni 8.660684098041868 2.298828023370906 10.349891492551869 -1.2668447482620633 1.0503951430776297 -0.5340430662997449
Ni 2.365315088072181 5.002511711298807 7.012368373810866 0.12897270521768756 0.44685978631401746 0.24663924139393656
Ni 0.4107871319806234 -0.05343566565843178 9.176473036611593 0.1630076833152096 0.2449582541470878 -0.16136783371894145
Ni 1.3501640653621156 1.0878969703896129 11.325194595121216 0.604650958425294 -0.619136810746295 0.4955410535698046
Ni 4.156287216602034 7.002550429485844 1.4147427134327322 0.084585437351564 0.37692860854051863 0.6993269472436408
Ni 5.599131591036924 7.627163434683142 8.091865597637009 0.8931205055914555 1.2450065693410495 -0.31374400546223385
Ni 5.270585457820516 2.596269678896158 4.855519312058071 0.3053933195046934 1.751796456351796 0.8148191014763903
Ni 0.7374972055950229 7.2809621864760015 6.870778331221752 -0.10815962512707823 0.07036852242123365 0.41032235350961593
Ni 4.953146128501968 4.72341256253647 6.73656056538927 -0.4540871573003921 0.3912997896605261 0.5984119194941178
Ni 7.99164387725313 7.147174040501133 9.321557923684532 0.2574748985568598 -0.525379734197792 -0.7113093164164975
Ni 4.633925007352901 0.5249466250083136 10.389816292035526 -0.9268099274241007 -1.3189327272065543 0.4696299901309976
Ni 8.323473210644556 7.061602809493275 4.876249600766453 -0.0418318484341215 0.37126781071031545 -0.24142452996221647
Ni 7.195291464553749 6.119686144406149 6.947503915477079 0.7670382345476855 -0.9652502336781699 0.38312985225522406
Ni 2.371700595850592 5.256213543004801 2.5618847144185577 0.14030047152568095 1.1130693821783992 0.39266401699790443
Ni 2.1708555735738257 5.206739424664986 11.3280400352729 0.7631502123471889 0.5198006974481177 0.8887131205523792
Ni 1.1094593649274769 3.3032702058406898 4.06326773395746 -0.2759678151547247 -0.06441307616874713 -1.094449967304999
Ni 3.6529355467944766 2.739844112996013 2.757432297735246 0.6550283824365816 0.09424815725230865 -0.3698904707468146
Ni 1.153199188746735 3.131241370224005 8.215559033652266 -0.7559061291902659 1.1318818868992118 0.1276411308904576
Ni 3.7705609414945283 2.786432994818387 7.103218954521639 0.2633539830454561 -0.8861047363952546 0.41539385449525235
Ni 4.140495295099051 7.014462205327441 5.944137139345615 0.9363718600809229 -0.4096510384742042 0.04817244594016865
Ni 0.7524181293656247 7.520264969480536 11.301352954180862 0.13069123057069107 -0.6265079063993856 0.3251481335341174
P 0.19935265856084883 5.484400477482893 7.993959302169948 -0.4143597568037832 -0.21078880735423053 -0.11262177466348991
P 8.56331867136397 1.638461601391654 8.094434272154102 -1.0054023804170233 -0.674303942836742 0.04631508101645572
P 1.6941493795668343 3.1134144072902257 10.516633742762773 -0.03891030391195235 0.7668888534540148 -1.3727808833752615
P 4.038851759102189 6.210756509591448 3.7399231666381687 -0.49209988909873964 -0.5005639607056929 -0.029043181309885462
P 6.8170089187686695 3.8456584926052186 10.335515055421862 1.4848550130653977 0.7078614670772132 0.9636204113842307
P 6.286080176416672 7.891953981029834 10.36523389601436 -0.7111815325893817 -0.9760380683222932 -0.9114277885410754
P 2.3698464469914216 8.341273039692592 5.877974776810409 0.5380275048687895 0.8927088719753334 0.17823838422203497
P 7.117589060411639 4.248271089274046 1.59361109718261 0.34980398440958466 -1.3615654742754162 0.16489590147685795
Ni 5.451695100532845 3.0178850402143365 0.6507682621287564 0.03561312121791931 -1.0296106022321108 -0.7394101884177717
Ni 1.3739966616738908 0.9742602568939227 7.022694626262157 0.6042043578061788 -0.42257905938978185 -0.33655380426789777
Ni 6.751046442525111 0.7672341354446831 9.391506367743878 0.9689652206359118 0.28052021041209757 -1.3728287058940614
Ni 2.773924273490423 1.6272191280650745 9.197692639726226 -0.0036975034562452447 -0.9519270342067024 -0.14193080804025235
Ni 6.553430352651875 2.0796314497026436 2.6686728351524733 0.19739618809740844 0.41887409973436895 0.27347538775017416
Ni 4.144701047389364 6.964165025786728 10.418224565946591 0.09221055799698957 -0.029958751145619373 -0.25013439903138857
Ni 7.879807044845123 7.13816559043414 0.009967180696613374 0.2971729884774301 1.3027759149410338 1.778933164667588
Ni 7.479039552406884 3.6720197131010592 8.225341703925821 1.0382471948611862 0.5411645078358744 -0.09528354049535848
Ni 3.0979933155590773 8.581371750012282 12.209421001265259 0.04068925018924605 -0.6818976960235997 0.6375322825343472
Ni 0.10348321345030151 4.913196004058283 10.08471293163904 -0.7418537648622578 -0.6552219865046264 0.3495702711322238
Ni 8.56222427130563 2.2516874192050724 5.932580817407263 0.8610295385941816 0.5938785504001385 -0.7850457268686996
Ni 3.6189820111002056 2.6804842156168176 11.38710688668606 -0.8846415215861667 0.2736764480173867 0.45830325226426877
Ni 1.0353838568464755 3.3680026125971887 12.560883509918154 -0.4735522080035393 0.3764087314813066 0.49487436652008315
Ni 3.398311162973188 8.360149179541803 8.040105901654695 -1.7660123428408616 -0.1576371630319156 0.6681127264243655
Ni 5.548762054467558 7.877989074500277 3.509175697808704 0.11186278501027833 0.29275943279076677 0.7416511619331485
Ni 3.1511033745885815 8.329343174593832 3.4069415475654825 -0.4672900291439113 -0.0775221027468794 0.5303198518118867
Ni 3.264079830197835 4.259594964257857 9.339349612566844 -0.23239507277009652 0.07341270856419614 -0.3858696197838903
Ni 7.15785574685567 5.892096155414422 11.490771897170847 -0.1665709751864357 0.5914066918208782 -2.185885573263706
Ni 0.5151666681233336 9.055210796758994 0.2902982078717261 0.017919303482582045 -0.7682705642928898 0.4124622826707542
Ni 4.567311317851487 0.5242610421618497 1.5075523606942194 0.19136952228735432 -0.21289325529174302 0.01822809297225248
Ni 5.833070909292735 5.551891495956695 0.29265795146859225 0.13217064332969494 0.604384592137785 -0.22942390595691456
Ni 7.904010470928731 8.830894963313707 11.398068072063761 0.19885400358985755 0.773575521445571 0.36048588960346306
Ni 9.21077840835768 4.735360516892391 5.889213632285556 -0.1446402365516154 0.14064139980486748 0.4307016884969163
Ni 7.832141852221572 8.677742267546234 2.7768646822422096 0.32209957651578075 -0.012843174511255303 -0.7365860887054153
P 8.647551297341792 1.5897743657384147 3.4794704241590786 -0.3919392230167379 0.6691193133120088 0.6234254108193199
P 1.8830012243447716 3.448056620170442 1.6575222516639252 -1.0484074232236398 -1.744862962456756 -0.5395956206868578
P 4.81983734784191 1.0720055579722356 8.193398789165176 -0.09163411666822928 0.022018156142304016 0.4560887611114532
P 8.504085398784913 1.601559516779873 12.518284213763001 -0.6442516035360517 0.8246890522919346 -0.2725600750247564
P 6.277677716464626 7.732868008913016 1.439695939225733 0.38349212069064925 0.4953973289030887 -0.7605359146527935
P 1.9544085669942841 2.9920264471003457 6.049867038535516 -1.0402099750145117 0.4924565011072099 0.13001425910832445
P 6.768267415343941 3.9086724199312672 6.053070645979019 0.9030285087337868 -0.40957467671031395 0.3031209785307489
P 2.3204265964230952 8.447818764380528 10.091358020257735 1.0027759985377698 1.0606885545838378 0.09262527693690499
