# total energy = -381171.2137309404 ev
CRYSTAL
PRIMVEC
9.18092316753343 0.00000000000000 0.00000000000000
0.00000000000000 9.18092316753343 0.00000000000000
0.00000000000000 0.00000000000000 13.43720907761830
PRIMCOORD
 96 1
Ni 2.6073270276971483 8.630168548041944 0.9741280565197306 2.042355024836502 0.9183594826639022 -1.4543409036369404
Ni 0.7770522010046793 6.910241988369202 7.414463784454134 -0.2346617573170862 0.7618523194713718 -0.9441880136912318
Ni 7.468065684911561 2.1886953037560275 6.007534167537063 0.5809677558757413 0.218619616252559 -0.4438881052802032
Ni 1.7020880264121252 0.5105309263251246 4.495431569858118 0.24114967903427503 -1.2720201218154157 0.9329085841226709
Ni 2.9206902892778825 5.607340491124144 9.717345899108562 0.03112963152526897 -1.1181848490280937 -1.6909147903750747
Ni 8.546833310570705 2.4287029910946996 8.058724034234812 1.5669624211901143 0.2790202288278033 0.4121473225334966
Ni 5.770246787663711 6.160839972964625 1.9503971042676522 -1.2915059984541692 0.22636994962193918 -0.36470712677366224
Ni 5.245768203217368 6.76346657342454 8.731403830957456 -1.2735224173925552 -0.24016057564812832 0.2629562333864052
Ni 3.4290563539751875 7.537216396449886 2.790048510205007 0.6536204463454615 -0.24823101136108863 1.6246975711180536
Ni 7.7919502841745745 5.482535024760365 2.7366357367600176 0.46520023649441816 -1.4520001713189057 0.018503458120826197
Ni 1.575951326222927 3.396858857245912 12.985933491583138 -0.41305543617006285 0.6142404018859421 0.46002820537517547
Ni 8.512726181871173 2.470485371366993 12.374768632794673 1.2859832688637272 -0.5755614972585056 3.87035512223407
Ni 6.24779249407183 2.275996699934722 8.08205092322533 0.2838474750131176 1.644933438548954 -0.2838626445217692
Ni 1.1481019556561456 4.704947575948638 11.124356308147451 0.9067123853432771 -1.6213188844538078 -0.2498523490145955
Ni 6.825740773685355 8.823179090881853 13.283647870022996 0.7393585092442299 -0.024472788330383657 -0.579691460266479
Ni 4.80819623526356 7.203774456412657 12.964218772659818 0.3605015733327469 0.677321389506827 0.4575296073230378
Ni 6.723648910660106 7.580375915162269 11.005665336457666 0.34039580372180733 -0.4509347277143395 -0.24697117081205852
Ni 7.547342954446006 0.6973131310466589 11.181907841651055 -0.3017768057980286 -0.3451430885988056 -0.5306124433516409
Ni 6.230725158337664 0.631176516507542 3.8723755796856327 0.7869118335431609 1.7598959455304788 -3.623497079961108
Ni 3.3031308150134695 2.090367619133689 0.7723653398469105 0.11288222741372816 0.29729485876727507 -1.4620938081094819
Ni 8.065679501449555 2.9861135461050328 10.47742165551612 -1.7750274018552785 1.3533263741950756 -4.436535692498308
Ni 1.8915730948454068 1.4477030137589262 8.366718292083787 0.6100183933847946 0.874588765335855 -1.7228710315666975
Ni 6.130497022668002 2.5308315778116834 11.953781084028707 -0.3626618142088593 -0.554627832429632 0.6898447187848183
Ni 8.026825835593183 4.105286413596381 4.783444467033698 -1.7335434236788787 0.33720635025023216 1.4266884320269946
P 3.6261891312124286 7.45245811592389 10.495722907292608 2.100951237213156 0.07607560010833996 0.20707433461712077
Ni 0.5566255860994829 0.6171618376489053 13.228529281096884 -0.011922205358882693 -0.24545344861595145 -0.5336306613526746
P 2.7491080205657545 2.2001163718858305 5.932447071229662 4.14257221209711 -1.4747590622819764 1.3539395822990423
Ni 7.526575706769467 2.7132656974317104 2.3917828276082127 0.9589304621077291 1.5320820643731614 1.310306161879808
P 4.53687241979727 0.1702345092254275 0.1647241192804856 -0.673306097699847 0.5746006760071329 0.08868197601844083
P 4.849611378618497 5.177728383354048 0.252881177476622 -0.6222540162190381 -0.260160672919139 -0.7956309585837136
P 0.4738476306503332 8.575294171665874 3.0184671185241854 0.12129513406777175 0.17659339241944425 0.23107429707614396
Ni 2.422000917352934 4.551607801106219 5.63291854241806 0.1809830368467077 -0.25021256056749164 -1.5579540470439168
Ni 8.284883217419951 0.636247140243949 1.6984900227143198 0.20387742494637792 0.2661785969784448 0.14421703297126776
Ni 3.1005353886305427 0.7129014200961705 10.250856675537301 0.8294605055386488 -0.04853985658191641 -2.8501881819133623
Ni 4.025329755764826 3.6019698565127345 12.409288903026232 0.09120088578555262 0.806336775036992 0.3435304926960471
Ni 5.0160798732564285 7.7924460540130065 6.422824953622527 -1.9910630594307452 -1.0223809172528908 1.1229796993135757
Ni 0.7446922019394733 1.2885149910075975 10.248196044071051 -0.20228668342049033 -0.3189363482964507 2.474647711969622
Ni 6.925317063826707 6.521044303354246 6.347401835535745 0.6519165762804773 -0.6824713091388828 -0.2291464839258118
Ni 7.541237640694946 4.592848506925412 12.09198335313767 0.3431790228938993 1.4730996723016823 -1.407354507585073
Ni 1.819787458425046 4.132204879638649 7.785934943468267 -1.0712863847043421 -0.2405608964103405 1.53503086258884
Ni 0.6058454320405491 0.3210100522924006 6.7701897632890535 -1.4664515708575454 -0.1874889562860255 0.5887008628539409
Ni 4.11174060241893 0.83580184495116 2.3205921149939703 -0.935532394898763 -0.05441019931976435 2.297614403799282
Ni 5.742988627472888 5.233520852023512 4.154529211844782 1.4487397554000792 -2.716199511538322 1.3309323227705916
Ni 7.74868977530992 6.414811844085797 0.3661104181130146 -1.105652777999354 0.969671245564001 -0.08345158085743692
Ni 2.863272797249114 6.0434251495626565 12.0292583695608 0.32625370789347036 -0.5038904539757644 0.594507442233389
Ni 7.501383254238776 7.217481574353008 8.645311562329159 1.0602620085693804 -0.690409847259669 0.06753876628192239
Ni 8.376830160603213 0.20659004595147784 8.980973449531811 -0.10680928174677089 0.24497676608984906 -1.3706633228116265
Ni 4.887693846948419 9.255196600460636 11.54983149204352 0.9351996941496926 -0.6860317727966314 -0.2344720099037833
Ni 5.330030713904934 3.619156544245042 9.900629254099977 1.7789956424744073 0.3879146752383771 0.2874578180721953
Ni 3.60081306022306 5.086001782321202 3.3403695565257636 -2.1035537078330093 0.030335160648431628 -0.06361680551969688
Ni 0.8753982474728859 2.5655721901936563 6.062411298190013 -3.3660592052897704 1.7473021680258682 0.5629751759530627
Ni 7.55794692043469 4.828265732797121 8.01696093390068 -0.23606532253283216 -1.164991010748355 -0.4726551501105667
Ni 5.039555493198475 2.6828492997516165 5.50240254198938 -0.9436750786105554 -0.41613330376443813 0.6237820228277902
Ni 0.5709900581219022 6.0268994882815905 12.63429496229087 -0.8559420967689452 1.5589994575892956 -0.8847556785665279
Ni 4.289400642113316 1.202783532650604 7.681178776607593 -2.5065597301868703 0.2410684321743784 -1.2292912154883215
Ni 2.0525054929541815 7.918977533888363 9.154729760794693 0.49176333169492725 0.8599386195228479 -1.3002806593230058
P 8.549596768373817 8.141679181496587 12.126207079558462 0.43406469143187826 -0.27813576934032097 2.624294143486577
Ni 6.702064560842448 4.206570355403443 0.653847887600577 0.21489743020596538 -0.7898727159436977 0.8939445441546475
P -0.07540200196403413 2.6529011291411524 1.0384450121333433 2.0283923920088225 0.2378051880420743 -0.6081605142404494
Ni 2.9633448572288987 6.076173501667967 0.9964670782025572 -0.5864082101650223 -0.7503234928961658 0.2651388428600208
P 5.90078114993826 2.8900719112932416 3.5987400078245795 -1.2682501132500223 0.2703779797717731 0.2180801988093212
P 4.19425873774905 6.614350023131728 4.786078473823442 -2.1113441504117056 0.3555321451426135 0.690973690182939
P 7.699351495463005 8.679424199582453 6.959869467288534 0.10206096842850809 -0.47282098626446956 0.2790353983364549
Ni 0.386535217364118 5.600096742929277 9.236858624992413 -0.8097874525897536 -0.2709721617123462 -0.43690498909415076
Ni 5.156658165220691 5.7836784779160455 11.002802724686868 -1.1451760329049567 -0.7122364562164574 1.1582956010060501
Ni 0.7966158296845806 7.552153758063382 0.7722781210790383 -2.344344460865969 0.462768487124474 -0.413329772877372
Ni 4.672621546298287 3.539539580562043 1.889325604911182 0.12181681089919665 0.49969261384433294 0.44819007508966685
Ni 2.1758052879567966 8.45253605111636 11.659331441784152 -1.659525734540832 -1.1135224105554178 1.7002396673204268
Ni 6.044848192617415 7.468185036909703 4.182385050118604 0.3496044668042689 1.1486377662013119 -0.07992582709236558
Ni 3.065684605173363 2.5647642689754706 3.871810952925196 0.2498006698410537 0.23973711495746453 -0.6763577400419771
Ni 7.653832479556605 7.778619584074515 2.572781968973668 1.185931360445448 -0.18568558452869957 -0.353971485523713
Ni 1.7831647568416185 6.956559744570855 5.167977325105927 0.4809022206107073 -0.8650000932061553 -1.0760213282861661
Ni 9.24730100673746 1.9303257705495052 4.058265398697989 -1.5092082450987814 1.1237836832721098 -1.5139750703598056
Ni 3.355260095432297 6.11318180201462 7.165163166921743 -0.4671403909399245 1.4428622135733797 -0.24380280038640592
Ni 0.7216581843905483 4.316530269383065 3.829711830811682 1.9386390373030744 0.7732970709732038 -0.8331441250378232
Ni 1.9802424485412562 3.541972525139533 1.8997927751481503 -0.11081557469268657 0.8574107108946717 0.5408302644249073
Ni 6.0092078497879164 0.4323553675427518 5.9286039368895205 0.24858016717039122 0.46608829552632636 2.678308650029819
Ni 5.687269606186896 8.515682439055896 1.7803765105465852 -0.37258190153604864 -1.8691701438779744 1.1853924572228425
Ni 1.1253883523176147 6.5399937282898675 2.7540767360575944 0.6123915216026614 -0.4830357220139423 1.059433084910182
Ni 2.5917561824012108 8.527158592723303 6.511228060553293 1.5848752969147932 0.6968185789994902 1.2654093013671173
Ni 5.9536908088064715 1.5034403968907861 1.2036538841447402 0.4962877019278421 1.6442389835850908 -1.3459977017441465
Ni 3.9796730260144164 0.15431387076570785 4.44158912921982 0.26228080458593533 -0.5513306497355989 1.4750557675867886
Ni 1.657808435101804 1.174689908472793 2.1932214987624525 -1.3220468473555038 -0.045439877500354 0.23616431000454166
Ni 3.197614467733868 3.0734608468983975 10.2973901834279 -2.089819903186685 0.10512469495549637 -0.7076781474218136
Ni 0.3016263697020043 5.033734788058367 1.1561591336229584 -0.06570916927235135 -1.5475176822019412 0.5686750545513173
Ni 4.130396237820666 4.117533764790236 7.981124119320397 1.2535485453737896 -0.7696576744484035 -0.7081743703319417
Ni 8.592737925240332 6.786740213062041 4.527586834341898 0.3323405375174986 -1.0036486309507102 1.080822092108919
Ni 0.10991951791871263 7.70904655008123 10.30322190567553 -0.06518672110997806 -0.4815642796747384 -0.2185607379901655
P 0.7734459344762334 3.3263126454216305 9.616473262648938 1.0614017786007783 -0.3266074916884633 -1.6951188011540934
Ni 5.99209460943908 9.18835948150166 8.540877645863468 0.7684024618850638 -1.9296003241395736 0.07568093577308256
P 0.24659959000523035 5.051334617322701 6.4694649602191605 -0.27506124418005534 -0.3824690787427735 -1.2227942949100683
Ni 2.5093757609151 1.4940483127293804 12.23976499723589 0.28229272893148805 0.016393867976991123 -0.5899784440147839
P 5.882134695459459 4.3440271335701715 6.523952819739713 0.7294281375043954 0.8651918975019873 0.8864631481759377
P 7.00512682689132 5.39408601321493 10.07093262024741 0.7498591516652376 0.2495499872828283 -0.3492565965465469
P 5.155740072927299 1.4186637545189207 9.891371211413407 -0.07531043980754126 1.681895360485284 0.10254407871251371
Ni 8.332504664678222 -0.06627800075229928 4.902377815088938 -0.2994831246678455 -0.3511134472496276 -0.6333519259044125
