# total energy = -340874.02635644906 ev
CRYSTAL
PRIMVEC
9.18292431246079 0.00000000000000 0.00000000000000
0.00000000000000 9.18292431246079 0.00000000000000
0.00000000000000 0.00000000000000 13.44013795550092
PRIMCOORD
 96 1
Ni 8.610056733710952 3.1395867145135874 3.8044194130304567 -0.3375027984447284 0.17889298708689835 -0.0030621838650915
Ni 0.9182529416383042 2.744959726413455 7.70886015563427 1.6983529918206752 0.2339711590079648 1.0085743503871016
Ni 1.3226900477490338 7.8483974449784775 4.8032231298867245 0.6040012406564372 0.31740191392979533 0.9392478960771373
Ni 4.932332290416148 1.3405875671748997 1.6515783174982748 2.3150218006424517 -0.4518307571660476 -0.6267580747369788
Ni 5.69316511596323 2.8686261677208615 13.230767406905542 -0.3240824112737644 0.5725977866444913 0.19315129677812543
Ni 5.298078981648991 7.008159873163841 12.324176779105537 -0.4213644702563904 -0.07325458571977707 -0.6418987870331591
Ni 5.862075825208677 5.9408102180036355 8.556045527960764 -0.38682349905672736 -0.7919008021173201 1.088432043245693
Ni 0.5525126784524585 0.4533205669417772 6.618165670364042 0.5316565683454392 -0.6907392055746298 0.314794043993303
Ni 4.5935833965727575 8.040045074746471 1.2220920305307588 0.5379629701794412 1.8858033815592812 0.17103312472284737
Ni 2.333987133091135 7.070989441102155 10.451602205833591 -1.7009248663129095 -1.6181489713662585 0.4420983603696322
Ni 4.707809791718137 5.8862269160706715 2.3351974425115194 0.38506023650871746 -0.3092345476276545 -0.9502385907606862
Ni 3.2725003605730967 7.299038182724502 6.437369502220236 -0.20430937027747392 0.016093820238069056 -1.4444640108428608
Ni 8.813917652774174 8.094508998663768 1.4632549063204108 0.39163171907864813 1.2730313366887493 -0.8924255364069598
Ni 4.334496370876822 2.764326513724461 11.047161678443377 0.4966273446554479 -1.1739423064043717 1.2687072553920988
Ni 7.8468730795476445 8.457886495431822 12.664064355559912 0.12961136724295097 -0.9597511582368116 0.3984641686194492
Ni 6.656407958536959 6.744508934099687 0.8216706172086035 -0.18351968722563233 1.4266244115582785 -0.11105160196289263
Ni 5.488395087396077 2.2327637587292473 7.659910577748391 0.15588855577192506 0.6155295530110109 0.03291192023667235
Ni 9.123143445050525 7.732472208840904 10.34467256232279 -1.083063065624296 -0.8559305268047194 -1.1079073783614855
Ni 0.9990378814254616 0.7312647276510613 9.35107005377992 1.5901614850143968 -0.8087019328350589 0.029760776202200363
Ni 3.1516989916417133 7.323804529513398 3.4280150198757764 -0.37092174022480634 0.6341371408098692 -0.10178688883151502
Ni 3.7165131154625097 2.498921636122421 5.844094741171844 -1.2126096410675824 -0.342406663504249 -0.8874039148226522
Ni 6.677363391748774 7.58865843165851 10.224477266394027 -0.33149567301870003 -0.20794182482373866 0.39974200689060835
Ni 3.7982227757248768 4.912221686238289 10.611445695642866 -1.637993259785695 2.5273355292816406 0.051770961924704394
Ni 8.501027873709255 8.602398174859658 3.818275527479758 1.0650506882072754 -0.3075350484380445 -0.3318468857105317
P 6.028819364323542 9.368143864897679 7.734732126506735 0.647139209496492 -0.7848963457750289 -0.21518410820844874
P 1.2124214929692507 8.892927533297597 11.460647638141714 0.6504559325745507 0.21830928410099174 1.4263657585802532
P 8.031541686861221 1.1457810114538538 4.896214930922113 -0.2029430860575666 1.1898034418063446 -0.3617945811125575
P 2.6669324187882197 0.5270025147967092 5.532175597203546 -1.9608279146952874 -0.06373044827942571 0.8640729534061957
P 5.332900630526816 3.962349181419336 9.269112454561933 1.041597856500974 0.03456462534874692 -0.6217464804550001
P 8.800584046716526 2.339588716903233 9.354268466307383 -1.121516741614804 1.0536997819708305 0.0907440007537921
P 7.233444554577267 4.061038068679357 5.8797373434804925 0.19901675441996694 0.7105780946774278 0.003261444360091157
P 3.056536347306029 1.5645039928702886 9.897008676738803 -1.0537576317919592 -0.34543593724887606 0.9560395137131793
Ni 0.28798385182693387 0.9736379128610977 13.703833097638748 -0.3367849464420974 0.19509942164343175 0.13408457252295616
Ni 1.261394028165835 3.3023356815657277 5.385543580558967 -0.25268750447054544 -0.8419645515429306 2.2378275135486363
Ni 7.924303497094541 0.2288779596850223 8.92032662447818 -1.2096094207886783 0.7640495842330067 -0.24634664985418223
Ni 7.064239991754792 7.046985277028675 3.1009220118236915 -1.0149668841770068 -0.19527245688618627 0.7703557289566927
Ni 6.116497925369293 -0.04176669451239902 3.6042417648967944 -0.5453975720806156 2.483543728907671 0.9436596519915877
Ni 3.2292028725828668 6.446651602084611 0.3561220682927457 0.26104076153124717 -1.2841930097325238 -0.6689344509947125
Ni 2.1406590281795115 1.617094600234031 12.242890451652576 0.9979623791992103 -1.3012396808021656 -0.4960159363236941
Ni 0.31964841133656474 3.220699484697617 12.939532799882734 1.5707334581967722 1.3711862851946321 -0.7423602721850312
Ni 8.591810263162365 1.1687750538563002 11.326676119204906 0.9168631006240338 -0.6371836409456768 -1.6248472093220405
Ni 7.583268055104901 4.033829064031414 8.253427767997833 -0.7530280363115224 0.5113523095704484 0.9604453560903587
Ni 8.702299208124918 5.475263505672634 4.4069266861521 -1.362568461618634 -0.26305624929937926 1.9911635895643516
Ni 4.617054951037875 0.04436362549938458 6.004489206438047 1.7670186726181891 0.010760323840297596 -0.07703976379382216
Ni 2.078003935802558 3.2840524793200125 3.386874600799419 0.3301083057528702 -0.1169455988498244 -1.145236196718931
Ni 1.4941903416420408 4.978063253341141 0.8070045688376181 -1.71545057073291 -0.22636866407035855 0.6183371976631351
Ni 0.28795446646923106 6.539105283757067 12.713174634620728 0.7560058879929238 -0.29318880701870154 -0.14368918549225576
Ni 4.005766047425234 5.369815986140968 4.564445977825568 1.277929288210999 -0.16649795585665517 0.4295287512347377
Ni 8.06525220190091 1.4042803299957338 2.2291006902331065 1.576359546134298 0.4257116914814926 0.7122094596332638
Ni 6.597563779737088 3.1574199534694785 2.29089809748211 -0.8842843953570642 1.2938374748008235 -0.13532795801175404
Ni 9.225808538524706 4.776149114225729 6.753239140214706 -0.16692115943700284 1.6657560317212603 -0.23518934768578206
Ni 5.845215976226691 6.390543934720814 6.29581747928853 -0.2783139467893981 1.2996206571415037 -1.7356956941351913
Ni 3.582809737914738 8.719801861806653 11.524716900858115 0.5877845216872586 1.7703873319801058 1.0169075528431455
Ni 6.105138648032301 0.3591643711074144 11.588960639135877 -0.7292730999837699 1.2919099187608074 0.894227622612705
Ni 1.6022825433669599 3.1396785437564088 10.409023740814652 -0.7542858199780236 0.8476163505120693 0.12380273098097387
Ni 1.407264780387425 7.604388780953794 7.998428061899871 -1.433431664288099 -0.42614337970227256 0.06956248158017052
P 7.874862632759568 5.332202728281374 2.2357133140086662 -0.4938415543801946 -2.051346943922467 -0.440314528996332
P -0.36317455414141936 7.204628538179953 5.964948452771635 0.5795775603964342 -0.8112897481668931 -0.00024888278601247464
P 4.455903812810825 7.268312118076503 10.118568764063397 2.0416860237939356 -1.1279717532115283 0.7614260305672306
P 4.330097750145683 1.1813648430470967 12.993280455706024 -0.7402157150382026 -0.5408675454207459 -0.6725661342100288
P 7.43829722946296 6.245196609183305 11.976976840045307 0.03564320312490636 1.9481840006790319 -0.6973536255673538
P 6.7956210906540075 9.146174219150101 1.6254501430383383 -0.866714504794101 -2.6174771205647436 -2.248892770223862
P 0.8846654777839957 2.873520666363235 1.5996856123799743 -0.47745102883731316 -0.9351917237298928 0.006160620284757131
P 1.8494134016475663 5.192603913344478 11.730659588856097 -0.4512496878515971 -0.5580774815411292 0.42230806511658237
Ni 3.3734941618279315 3.6958974504491344 8.55064229531316 0.5960783862649347 -1.9639602896766821 -0.07946997050186959
Ni 6.181861980409473 4.973820742322797 4.0182116647048005 1.4565371399573108 -0.8998596240875019 0.7784583034591689
Ni 3.764356150972392 3.550118527470365 1.8606927875433033 0.862867620244185 1.6859026818724643 -1.4095826255846433
Ni 7.562266707271676 7.26587864314174 7.8099301751606465 0.9144874013030057 0.6362678139996267 0.2913684659805111
Ni 7.203333745856172 8.592342872770729 5.8951132318984865 -1.384176012586081 0.46311147228618954 0.24569898896785428
Ni 3.416699820575339 8.546336422117271 8.82456617177173 -0.43931642674912086 -1.1476951997823848 -0.20671617994675368
Ni 6.061179989493758 2.225628626562034 5.079713633682147 0.5473197288039929 0.37349644293051804 -0.1905295428845622
Ni 7.369902809409677 4.764936763677251 13.505994340319743 0.9576667649039572 -2.5987222085547437 0.2550752879764317
Ni 5.042499833028827 0.8358784376579106 9.591299026170079 0.8841836081131418 -0.3493234452287403 -0.10217589673981758
Ni 3.5893112483064837 0.4881670097151652 3.411348930596144 0.4080656962649553 0.7434463061603583 1.494413089067478
Ni 2.005872065566449 8.387297356475111 0.027970269070931156 -0.5446702069962878 0.6328140511230714 0.5067405218300499
Ni 8.189947130727916 4.379198846282217 10.992716120374645 2.4127957116598315 -0.1038075188059696 -0.6670392908545286
Ni 0.9447759818423721 1.180106782420445 4.34318066237043 0.9259537500713925 0.13619364844615897 -1.2825199929054751
Ni 3.5259123390626783 6.243470219418264 8.400032235869565 0.9605266029502555 -0.4524316239748402 -0.2567776153795191
Ni 0.4801145034121678 6.396237347775733 2.656067182777607 1.7355367999598241 0.5695294321318127 -0.3107928932537099
Ni 2.7025254333057447 1.4119297059227456 1.3179213551693252 -2.1180778695911133 -0.1996361331715207 -0.4560571365425694
Ni 5.077358213603781 4.253916210301155 6.454720637651317 0.3524895016615478 0.29822148434660256 0.7923936825933385
Ni 6.685416816344199 2.6161600304323387 10.131364250758114 1.1081449482935883 -1.3530345539862698 0.5318067207700583
Ni 1.6324484496337477 5.109746387546845 8.678579714704185 -2.4594391225499836 0.22911383091566348 0.3790533681930053
Ni 8.065481775007964 2.1812567364307958 6.817267998064266 -1.3649161359152042 -0.32969847190896123 -0.22876647487857374
Ni 2.9232186525781074 3.698285010762487 13.063572067915995 1.3566803782689731 0.16238547635017841 -1.167944436949724
Ni 5.988148192678001 4.657175147226489 11.373286806276127 -0.8913413022038457 0.21950150463688003 0.6245497542317502
Ni 1.8842258676011105 5.4377237112072985 4.931038416384796 -1.8485982332638937 1.0670780030499494 -0.026185657256432317
Ni 3.0061588246942796 1.2534416157375128 7.8972368277729705 -0.3710945183572448 1.425367399222726 -3.136422926211734
P 1.7192454499484136 8.936482143167726 2.690957703587549 -1.8435370166909024 -0.8048128821932978 -1.3079579733626054
P 2.4375705189935295 5.460038217212867 2.6523040204067914 1.0590337925892341 -0.9544384877746466 0.23721769096972048
P 7.680588686646885 2.34082841168132 12.701333253758925 -1.9436683721968655 0.3583570161859183 0.8066543062774109
P 8.789913488700694 5.946641374922787 8.910837908817458 0.3777899280995494 -0.6341577096351594 0.47348381665944905
P 2.7473289208782434 4.5752634626299145 6.761881190256616 -0.46940836103849476 0.14107797312165382 -1.3577887808418037
P 5.124512529792504 7.500695199960014 4.404305879561981 -0.052156884509213394 -1.7820830231504792 0.9144912579577475
P 5.005841599294575 5.024115618616008 0.26092544713721794 0.06953471366602865 0.06026485832832848 -0.18389686805939298
P 4.641334602839819 2.5550384864105 3.4215502411811594 0.6068901321684581 -0.2161996939571567 1.875667835787176
