# total energy = -340889.13352437946 ev
CRYSTAL
PRIMVEC
9.10631128246560 0.00000000000000 0.00000000000000

0.00000000000000 9.10631128246560 0.00000000000000

0.00000000000000 0.00000000000000 13.32800704193849

PRIMCOORD
 96 1
Ni 6.45851452765772 1.8391925393367534 11.650890296834584 -0.19378353104548562 0.24178165619131906 -0.3803258071475256
Ni 4.575511525790831 0.1077622638721946 5.963483620000372 0.41032106795803525 -0.6117245774426239 -2.5706262216494764
Ni 2.66265803625531 1.5438384462786687 4.788246790456239 -0.038792033166533194 -0.6072076634088769 0.38171086042051033
Ni 3.342216499425426 3.902992241073385 4.7868070826769795 0.25110653313667075 1.452564785573124 0.23917404336514292
Ni 4.74318603141698 4.469149812560319 2.709410747890307 1.60266013170204 0.9560901644454568 -0.5362184766845087
Ni 7.468805102370557 6.4074463352093725 2.7194331538476275 -0.6221270037228704 -0.41025087684173217 -1.2611217297353572
Ni 5.168942498915213 4.565922580240169 11.716970243072359 0.3639558504299345 0.2495204195964735 -0.6771038741793823
Ni 5.860830907266331 8.059613457908434 12.346759073751889 -1.3882386126912285 0.1563264146402921 0.8357471098783091
Ni 1.921577335535079 6.361541421134457 0.5967110663697265 0.2988640030266078 0.5684912206752855 -1.5637318300679584
Ni 2.862040717007199 1.5858458592180826 0.550294377613 -1.5804627696693943 -1.2117244102491518 -0.2427008255714788
Ni 9.046509919497195 0.04975141986845713 4.809490903538042 2.0936354202780327 1.837377681957726 0.5552716366612178
Ni 8.570741591634066 2.385033930839332 1.356351339670018 0.7141691544627958 -0.6596401701769801 -0.20395764336501002
Ni 6.806931095287227 0.975386084403542 4.73252163052963 -0.5618184366408002 -1.3147428574949227 0.2021604422552712
Ni 0.6036755730716697 7.441950591042065 2.32857571287205 0.20281581645108296 -0.9950511190896864 0.8490124595286475
Ni 7.611956312300664 4.289336594285516 3.9081983191088203 1.0590700451438084 -1.7999730160570226 -1.4102706527906035
Ni 7.688057753864652 3.9374960536958516 12.606388197873791 0.40815517065496804 -0.8711648272559706 -0.5842747087617872
Ni 7.8084796113783765 8.908212373364336 7.074159435992249 0.3336163189061287 0.636040271369853 0.013400332566305954
Ni 6.916789631966412 0.6359292162301586 0.5367104933984491 0.3063608256242853 0.15464774138628848 -0.7597545564020786
Ni 2.420785308077602 6.463777975452861 9.372254504470021 -2.216393512044576 1.143149489393231 -0.3157435523907659
Ni 0.023396845017393364 4.767454350403223 1.09118284652773 0.608285726964404 1.3149372328939162 0.88563551006832
Ni 6.368216347144557 2.0171298575323187 6.802028257410231 0.006279919471440797 0.24000245280370922 1.17078781993579
Ni 3.564911336501811 4.359764804056474 0.4898630761283833 -0.5961786592882249 0.6861323029302377 0.5266413745190349
Ni 6.054840864490309 5.5779615666773426 4.894963649818258 -0.8469524916758252 1.2865455691251002 0.9125058520966027
Ni 5.124103023234816 2.5846989072342126 9.561019226520987 -0.1175112415453073 -0.1733095794618499 -0.5986469183230593
P 0.38009833445315877 5.643636282072758 12.384104055426404 -0.8896873115401904 0.7540402796261207 0.8281505284779737
P 3.915404143053966 6.505311860216933 12.79713900636787 0.7559452099583174 -1.4355836776340953 0.010416053127001418
P 2.142523760887126 8.441741589097814 1.3401047701002784 1.8264188689533774 1.4700863393966552 0.4594301667798604
P 6.508972597264764 7.725120439896175 5.739439227624264 -1.2208335716392718 0.8578213160695292 0.3095417944554282
P 4.631132873771308 1.000191675742576 12.890141761267119 1.505032259344221 -0.21535920033373235 -1.5778592706082761
P 4.223006224493475 6.219273523377582 8.270215113891485 -0.44358625776906824 1.602372682368608 -0.2156098828919577
P 4.737858839444391 1.0532723629361251 3.930695460593065 -0.33947329190753794 0.18872488557565562 -0.6630347976808258
P 0.2867641098311716 5.589289817641277 3.5322014671590023 0.2133725089210067 -0.0721451547056822 -0.17281412788267012
Ni 1.4439240012816503 1.2298801597163092 2.663708904552125 -0.6091228781537188 -0.40742317758495 -0.4192695354005747
Ni 1.8459767410796242 6.4236646752148125 4.851860747657813 0.7733973439964937 0.19121602742862553 -0.5231436457784215
Ni 6.255106857415431 5.498773085662571 9.052275125031974 -0.5365015551425664 0.903780813518779 1.8788840287316286
Ni 8.775424145425353 2.548974848929136 10.300576441400167 -0.3986163779265974 -0.2134427000373098 0.013095142621061318
Ni 2.40942063186941 5.138354400050376 7.207239976516394 0.12379373211990938 0.4923408014649521 -1.1437750387923722
Ni 0.3855867081315859 0.08544998050255415 9.26655026689835 0.10930916535048917 -0.4763379982787926 0.3345789399297141
Ni 1.4263397146165715 1.0927755403328683 11.311412484145752 0.49857752640328323 0.6802848430105252 0.11912949387502063
Ni 4.240599617469618 6.874363328718044 1.6986812489841743 -0.3320204351739185 -0.03789883192830248 0.07749202083989236
Ni 5.715958604545081 7.958132727408362 8.000402402106426 -1.0859229036705944 0.06649129885401453 -0.07887501723034802
Ni 5.583744074203145 3.1419231875671114 4.530082871784576 -0.3543108711410027 -0.6312140536258032 1.061606695522733
Ni 0.669889382082089 7.556498877919344 6.6420658866244 -1.1854086551727585 -1.6517697447444972 2.730096581235389
Ni 4.852297850588898 4.4723279151217445 7.450076152404701 1.3553035525261048 -1.333304422547194 -1.5722596650333114
Ni 8.377132312096917 6.938471758610406 9.517450081234053 -0.5297992034217263 0.6514234386941425 -0.10919937924550226
Ni 4.678467478683312 0.29101766772928567 10.460699083260728 -0.38950156010952275 0.2695130606683165 -0.14402934244049387
Ni 8.347837309403204 7.1266445704421955 4.851154097919227 -0.6552970627169359 -0.8618206670369093 -1.0974496733632713
Ni 7.417645846811565 6.419703429901861 7.129510326534117 1.0384500549006115 -1.769829659704423 0.33480776811106855
Ni 2.285638545572976 5.21825317332816 2.6963486552997384 0.23367393948252013 -0.45896711110051275 -0.3155211519673147
Ni 2.481752060652797 5.311738562713813 11.582011070575657 0.36862960175651993 0.2697886829272063 0.6820344787117802
Ni 1.1222617755589297 3.406834882737388 3.9762242840210265 -1.568189865839312 -0.18264859747458867 -0.5225849450614742
Ni 3.6790225204480045 2.487980777420748 2.527842743473423 -0.363081161134465 -0.3891290072614524 0.8519764272529777
Ni 1.1742588117358326 3.439326200614654 8.23001712496054 -0.2697678569915999 -0.7993158636344685 0.862325888808102
Ni 3.6651171834528853 2.609021864086841 6.8823823462412275 -0.5778032421048306 -0.22410377929558178 -0.13744294747222782
Ni 3.893394189211659 6.880774171707279 6.028417081675157 0.667397959745528 -0.47995554042672184 0.04123123873564512
Ni 0.9176247533229651 7.618640344621827 11.342667164980492 -0.14007087201337812 -0.6865987010436949 0.1892607034744676
P 0.45929410051678177 5.655438061212034 8.126805284727153 -0.3467292021390029 0.3178266601720397 0.08339527369820475
P 8.57062320959023 1.642632815014784 8.079237558251904 -0.8210080038959215 0.8878566860893549 0.4428964307908953
P 2.1444907240770057 3.264721792268606 10.465057363736083 -2.0129660301514236 -0.98408947787186 -0.02746323841727528
P 4.206368994179079 6.146468566418855 3.896935633584548 -1.8711414086717324 -0.051206604780802134 0.06892356244459097
P 6.788581878492749 3.729225613345249 10.408439785325175 0.39440979604441756 0.5754897634803056 0.011994196247398699
P 6.333739853455283 7.832074063345864 10.160032368327757 1.6893716142576714 -0.18901670578446156 0.31189178274484347
P 2.090681531998316 8.564585725354629 5.6930179857120065 2.18822836246427 0.7943572340776125 -1.5912691162562789
P 7.142316531783781 3.9880178674803446 1.5943092647212023 -1.8826866903071706 0.34020219965376247 0.4738699963542742
Ni 5.478129078479902 2.833337624532663 0.4477236216785379 -0.005802722724706135 0.5870844102964405 -0.03283992934815635
Ni 1.2718693600335942 0.9235984933811172 7.108158758981756 0.2394514653962457 1.1592739057589196 -0.8029532032767398
Ni 6.814352738804595 0.7601857413330404 9.250222651160138 0.3050338792827456 0.21554509109229328 -0.327202702070301
Ni 2.7451430018753418 1.6045320095219362 9.052208648961207 0.41546455983218766 -0.3780784058742457 0.4785488898871822
Ni 6.231785594779871 1.9288259591422268 2.5182865806425925 1.126485141363673 0.6804756188650926 0.23720637811581086
Ni 4.450390811767952 6.8521530360323215 10.561885679913425 0.10901760225199934 -0.3688340044578422 0.39228786460540827
Ni 8.101593551914654 7.329196247444446 0.2848089848456758 0.1545775502699854 -0.23744729048202334 0.21612230375200198
Ni 7.918939164587803 3.9708797900574146 8.329924284908707 -0.2894522227944047 -0.46711442279799553 -0.5559586354259134
Ni 3.1436078551139994 8.514045698948008 12.223154560521209 -0.22344249156249904 -0.027901354395958398 0.9507888068372014
Ni 0.3966681780656793 4.9462658744609564 10.394112826127781 -0.20287392338252802 -0.6597676968937799 -1.0053612427664427
Ni 8.565214060818063 2.3198145309971294 5.840678640881133 0.9752366554669204 1.2250800056204516 0.17082100871204128
Ni 3.6088128621425892 2.8600828601283834 11.98411753760891 0.7011974247934762 -1.0786037443013616 -1.0738379474816022
Ni 1.3377535205834876 3.2706044692161154 12.69006153708771 -1.2511682180670711 0.3786787584624059 -0.22917270917805693
Ni 3.089880619834888 8.479031932905944 7.760058623556407 0.0865135076122123 -0.3669082481900391 0.98554523648178
Ni 5.686171861053898 7.8619245510144955 3.7198333641135752 -0.16881760512876734 0.5450617860077517 -0.21386667494860587
Ni 3.189412599767208 8.459380513629277 3.7270838089829357 -0.24422266153264394 -0.4732187359235205 -0.36885688727597765
Ni 3.623710787043713 4.415950743322934 9.599776597041568 1.1799237207987872 0.1591029489441647 -0.6191092999424692
Ni 7.164727163312915 6.131670810939439 11.759687037643678 0.6274003363066678 0.009916487782763567 -1.6386694599171134
Ni 0.5241428734986692 0.10363710496008656 0.07024608354967206 0.45857398942715216 -0.6903563683139143 0.8601453362170153
Ni 4.71436455689861 0.20318456562121567 1.6346137974916002 -1.140921885614293 0.1268083505765171 0.4949265599142572
Ni 5.938617016377208 5.4215333552155505 0.497689039857005 0.0882176347875126 1.1069604410671838 0.462490550872739
Ni 7.930048864086196 8.983995094041076 11.465977544363799 0.5917090535526455 -0.4256877802220927 -0.3782722670526066
Ni 9.055925845137635 5.074792348821868 5.665402186778543 0.39772060558520533 -1.5731731779865163 2.063141365454234
Ni 8.241785210748876 9.088836053323858 2.649807210081432 -1.7336125863539174 0.5706589177505655 -0.8336490896986998
P 8.329779494562786 1.9993088067795695 3.5588173931376104 0.6750333648035988 -0.4852095897368095 0.5784907550901585
P 1.6413032935994027 3.235326620153187 1.572664473952572 1.208423628010693 0.04686195465886123 0.5765287462677813
P 4.766352486764448 1.0054369109155874 7.746237064623079 -0.20714272596121103 0.2610834418437245 4.284364951897603
P 8.66572041603426 1.7422285391245536 12.489595205319175 -1.0318109523175392 0.41875711454053044 -0.7450679009241814
P 6.296449509647154 7.845788167808634 1.44818120170419 1.020123745787598 -0.8916925148956772 0.2405261865176632
P 1.6447090539374343 3.1743325486447995 6.114369730548458 0.29433397636673825 -0.05790432851595188 -0.5250704304874892
P 6.824815890217425 4.050769457024134 6.318515011986953 0.29523129137002707 0.9424939138182606 -0.7158419141795284
P 2.477845453206231 8.66490995434954 10.051889460653076 0.13477594216302596 -0.2832196116211316 -0.2592039654328246
