# total energy = -340896.07853526843 ev
CRYSTAL
PRIMVEC
9.06473276833017 0.00000000000000 0.00000000000000
0.00000000000000 9.06473276833017 0.00000000000000
0.00000000000000 0.00000000000000 13.26715268368780
PRIMCOORD
 96 1
Ni 6.366678361475563 1.9977492130789822 11.577527178735902 1.0573443207019533 1.02781751488743 -0.714795218082569
Ni 4.668645465517115 0.285688643495323 6.028116039473938 -0.3852723525195236 -0.019102268047089685 0.0931595521738202
Ni 2.7753038419794573 1.5170373810798556 4.868328833026232 -0.9123122480285579 -0.4548021810895458 0.47516326124440106
Ni 3.2263921279965517 4.4209879074464 4.871791560861341 0.4741646447765576 -0.264529491410796 -0.3388531418250358
Ni 4.932737383705771 4.459993451620416 2.6896103927930617 -0.21112613608899122 0.18489779852008156 0.19279545610060345
Ni 7.103088169319597 5.994752384840686 2.735474313616406 0.28055543452540715 0.4302494314508461 -0.10134131665366418
Ni 5.01519925573715 4.599128031570908 11.12450719821184 -1.0054046944098685 -0.14068330878639643 1.0106191487312723
Ni 5.656130235604214 7.942500533159298 12.588563936941274 0.12773394771458 -0.18877167965319103 -0.5165775625251298
Ni 1.883950560613122 6.532463255130821 0.212372180136304 -0.11183861664056222 0.21217746017164105 -0.28857187707198045
Ni 2.864944982192528 1.544965822074544 0.4537297490829342 0.04033880882836279 0.47733558630537143 -0.2829797276961836
Ni 0.4367170590281368 -0.005279300238658357 4.8922760434838 0.6360487560102853 0.25427798888611697 -0.48029004094800504
Ni 8.684240403744287 2.4437340546689397 1.2875582376702068 0.14422628894264838 -0.5399907992427475 1.1789017072921761
Ni 6.803933865617326 0.7255593229785237 4.779505331689409 0.17206516553178752 -0.059411766299413804 -0.415199221985943
Ni 1.0061943780757492 7.480026943056085 2.3057380051270586 -0.7753066452040648 0.035731391963338466 0.658758281792659
Ni 7.877633307012595 3.76812773954006 3.6236440609102534 -1.5364647668218894 -0.1791089597524464 0.4867082857695231
Ni 7.597342711752371 3.8676675677006154 12.874444752766712 0.29776125688073235 -0.2800610113874919 -0.5283444732530708
Ni 7.938131332068925 8.760447610314342 6.82474286566517 -0.3222062772969741 -0.1748715246323311 0.3509414404481375
Ni 6.9045433322190926 0.6766016089349627 0.4546670424288773 0.2871240888818603 0.6003731569855467 -0.3500466965480101
Ni 1.9205267564630302 6.379586540630523 9.257434263138482 0.25995292778370716 0.932477410122523 0.09636006138898888
Ni 0.13910013396679297 4.8494687504772065 1.4502855970354596 -0.3458825378679914 0.7097807955871132 -0.06875386963594611
Ni 6.3916879585882995 2.047070422897904 6.815906564372855 0.6261286686830958 -0.13859737279164516 0.9978860174353202
Ni 3.478110686250851 4.552689406703727 0.42726616886875285 -0.21575772132373167 -0.3402687912256398 -0.7767104675301268
Ni 5.756068911997084 5.601179826870101 5.003547448513984 0.1982942744316456 0.6184837505433284 -1.0436146298206865
Ni 5.546456036449804 3.0467835171985147 9.071654382418606 -0.3537251738408618 -0.7676326735985748 0.9004324658718362
P 0.09761447896637428 5.591834087608327 12.525903066697884 0.4226479649545044 -0.7175113314621514 -0.2332391659379467
P 4.10887103619385 6.245165621607405 12.431985185666477 0.04277750017684245 -0.46307599106256375 0.32606164648732233
P 2.4968352579623128 8.584020720642282 1.1270834643442853 -0.17296093787317954 -0.5365401216899857 0.23793400031045475
P 6.110527149003022 7.687255793942021 5.75432213803419 1.3199966496946944 0.02132627228160198 0.6802187656592801
P 4.790457341559511 1.133454158382282 12.708366161776746 -0.1616326573445539 -0.7363570034137448 -0.07834357020691024
P 3.964361069839641 6.148082335968615 8.284792992606334 0.5292852398997853 -0.4620292949656043 -1.043689963143312
P 4.696555777046699 1.03766712949852 3.8132982083231273 0.5074650587009002 0.2861902642136813 -0.15344060845206478
P 0.2640420621596153 5.852653637345479 3.531331544013919 -1.222348208511585 -1.2182902363921277 -0.5084127673261503
Ni 1.4816849241245542 0.9575258290006173 2.3782168871982137 -0.7033018727309889 0.7144442625010534 1.0402860796680857
Ni 1.9070928228200155 6.414186624783955 4.724578491259934 0.360141876000483 1.214781966128553 0.29485771008069217
Ni 6.092125741921159 5.702269724297158 9.220963218186183 0.42340849726961266 -0.013905297227182502 -0.15174959390288703
Ni 8.711099206297762 2.3256205895080218 10.424306464549332 -0.2806855323453682 1.0892735653103822 -0.5344984086696085
Ni 2.242252244221379 5.173378838780741 7.01192868640396 0.41405302419664175 0.11205278953389733 0.09475980678140454
Ni 0.6059828099836098 0.2859442689533075 9.453217982703451 0.3076723453468572 -0.5614638815148588 -0.7972672086355559
Ni 1.6617830304804335 1.0481187661317157 11.575577354763828 -1.0013845175068818 -0.14288340176150877 0.07298821943226785
Ni 3.9986801472839417 6.8960315483521635 1.5385652144191238 0.8717767498083566 0.7854802433029568 -0.7510390309059517
Ni 5.699350880415207 7.805015734533385 8.018414948867903 -0.3714506161450829 0.5139573512934632 -0.1507836304451919
Ni 5.153291391444088 3.0660642033379832 4.787518555265944 0.6133106909828211 -0.961393578936241 -0.0656816584685256
Ni 1.011732929665413 7.359148734466612 7.043584545424293 -0.9889732883267226 0.4320715722612494 -0.029935868327483923
Ni 5.145858310750923 4.429816956952672 7.145847419243663 -0.15798580462058595 0.9978533644251719 0.05235537367326467
Ni 8.40501038219272 7.288933316113852 9.329090067493857 -0.5236470677774014 -0.12571871705676416 -0.7336123507890719
Ni 4.762220699658033 0.5022550753837342 10.540539904178832 -0.3062474399748726 -0.6362773270813235 -0.7509567556047906
Ni 8.129877619754948 7.13922925800698 4.893244156920423 -0.606752063928697 -0.015046609920477311 -0.40712210140476335
Ni 7.440169314022121 6.116790879196897 7.07112682881224 -0.7295386949403306 0.2768463611049361 -0.36018275654074744
Ni 2.4078830374232427 5.3617893048873935 2.426363307678313 -0.483604964253851 -0.07358085871094425 1.0140325452881953
Ni 2.4492272825958405 5.2785478658564875 11.308907426637203 -0.7296410248461499 -0.4551158556752226 0.7992451582975332
Ni 1.0643990257962594 3.574767929459666 3.5559024080711086 1.1130621830895477 -0.7869506572008963 0.7400457651192416
Ni 3.359217654090406 2.6204056921199204 2.8724179477089256 0.8759465649153302 0.16558290024155353 -0.5041066837516286
Ni 1.1920395248700033 3.376558487463609 8.264971141933474 -1.035109934783785 -0.5526596529596676 -0.37438398774179393
Ni 3.769215507446377 2.5031805707491617 6.947954336413693 -0.943362432466143 0.5022475190557028 0.13957722020641122
Ni 3.941599526399959 6.932770909388019 6.114034294027638 0.326948677077966 -0.5593689466590431 0.09022283814299946
Ni 0.5923721140558187 7.415658277199778 11.44968544259949 1.4291001267922807 -0.5271139432800793 -0.08107305332293133
P 0.24256589779589727 5.588135676726849 8.077439954884428 -0.14476827748904747 -0.6481542810245676 -0.16327636359556394
P 8.541362089249551 1.4842774376346097 7.95124346770632 -0.0909823420168433 1.1989210878368965 -0.3578638785995837
P 1.6809186808990597 3.238711099535591 10.454754901193652 0.6629278397893164 0.09439111058807616 0.22904698223347003
P 4.045182225278992 6.228803779349886 3.636367319521141 -0.4929275272063575 -0.026517072453922076 1.0775861016701247
P 6.977015868977461 4.014788177029986 10.543724344724573 0.5074056662178745 -0.6069176429722838 -0.7355669034122816
P 6.531085415782819 7.767496806498002 10.393725682809741 -0.8061557693744376 -0.3543090713687898 -0.5822376237271005
P 2.390052708492197 8.44032658021781 5.786402226537988 0.2756212304485834 0.8878219761966774 -0.48998207142478845
P 6.801676747211719 3.9471018190594123 1.7300495313343762 0.7846268941637261 -0.041546455983218766 -0.5491079310526673
Ni 5.133394303491041 2.9308365231176787 0.6084737984890757 0.24408742150636026 -0.31504344099994774 -0.31994293518409417
Ni 1.4413649937304054 0.8693323265762032 7.134689639944616 -0.04924896683379905 1.0823626971231617 -0.44851711941178246
Ni 6.992833827281821 0.610719132742365 9.168928933914257 -0.9825889820669337 0.3697120361874214 -0.1343967044467363
Ni 2.7172532947123416 1.6115553474062476 9.325003686059125 0.8714239944546281 -0.2911059563477438 -0.6060588945164143
Ni 6.336157406970819 1.9338972369781762 2.5318631974922297 0.6788074871340503 0.23322990996656606 0.927652220819738
Ni 4.325663179922822 7.014525732280291 10.2641054461465 -0.3708345798276388 0.5092584031558972 0.6271103158700748
Ni 8.015471630208062 7.023463558577195 0.4422356682061849 0.14718588579160458 -0.2837256047232727 0.1376162398252985
Ni 7.702412026770038 3.987394555255903 8.26360508673779 0.3190901002654956 -0.9453216130750429 -0.18427610577568265
Ni 3.2641829980085135 8.327461595204873 12.286656673962764 -0.1368618781577772 0.026582378474218734 0.5410485510833005
Ni 0.0072563184083894484 4.998583600968158 10.249432363563537 0.021263280254150474 -0.7228067755331358 0.6671146241771543
Ni 8.671912367472693 2.399271541498233 5.666148578021392 0.42480460628619093 -0.18475921605968826 0.36724197738037395
Ni 3.5523145869267734 2.658314403655067 11.554257103800017 0.3996347918887827 0.5237547969998593 -0.04775695566930485
Ni 1.1761037250424597 3.2417931086034892 12.719709768093123 -0.3008671494995657 0.6274743840777128 -0.4828773420592071
Ni 3.1570016003060815 8.411663895886358 8.1171353252057 0.5386800508511239 -0.09084478799771452 0.19607515529313974
Ni 5.539884105349139 7.96072971032266 3.484073467323978 0.4444642894986474 -0.4751133818430721 1.1039921024674793
Ni 3.1513724013908915 8.404167362065325 3.5116166571851792 -0.42867025988918434 -0.1190248499763563 0.30599958563012464
Ni 3.343354372123284 4.2566443062670105 9.282575298873232 0.5681718896626538 -0.44041737312278345 -0.48275367199714925
Ni 7.04335158179769 5.92647681925419 11.667797411388127 0.7325036911059256 0.7594460240227243 -0.6428495809822026
Ni 0.24750345761732104 -0.1763099546221307 0.4096062569096968 1.1355912174299991 1.2939642301866747 -0.5329110095778306
Ni 4.785054760958137 0.28764390630692777 1.6003903163211592 -1.333038313370001 0.2840775887460527 -0.35010968857546154
Ni 5.8387211434120685 5.459153597235315 0.4860527724191429 -0.13675440604563546 0.976943353745382 -0.25543755641185684
Ni 8.108829310767714 9.034864258880456 11.215997543865651 -0.7472991042475452 0.5062766948197539 1.2368667138427343
Ni 0.014199903543712767 4.9507943309506315 5.61434091206328 0.18871511538364272 -0.696320299206833 0.32305037046482427
Ni 7.88705156413479 8.723472566232118 2.723772650364201 0.43409708733171043 -0.3893107842549553 -0.21008201109519303
P 8.701744402303436 1.5085799856082411 3.4682455378138113 -0.8760092998324654 0.9450719589580819 0.6436656491255947
P 1.9206264685211092 3.4156365494980463 1.5179211925037384 -0.4261338666205758 -0.7468375912300944 -0.5919715631854128
P 4.8005463888906 1.0981017014269803 8.217368605406532 0.3532070965538626 -0.6826430588300566 0.5842844789538002
P 8.522081403110084 1.68589521907046 12.510646215338534 0.13221640896596584 -0.44900074391642025 0.5866306105884737
P 6.337308628005004 7.831521012517309 1.4446337362888877 -0.2201216547193822 -1.1975985123707311 0.31335551177456356
P 1.7413079291647566 3.2171189065951995 6.008759209581027 -0.011093795920316377 -0.3184601799909806 -0.15068027209810822
P 6.930840121354306 3.9888539771968787 5.868605753691616 0.72376682545356 -0.17571973156523932 0.15154930496662286
P 2.4776089602181606 8.450370303886137 10.254301031417562 -0.5993452299416645 0.3796143829027978 -0.10994345650037837
