# total energy = -381172.0125400257 ev
CRYSTAL
PRIMVEC
9.21113573566551 0.00000000000000 0.00000000000000

0.00000000000000 9.21113573566551 0.00000000000000

0.00000000000000 0.00000000000000 13.48142822501487

PRIMCOORD
 96 1
Ni 6.098886432106875 8.91856247175949 7.979172158403965 -0.2663308062855929 -0.2508005718604777 0.4468479592394755
Ni 5.488280241419124 5.217970250893815 5.418334560779412 -1.0206243395731003 -0.707245430759769 1.206371887687987
Ni 4.426761321017426 7.269161232633031 12.423688864746019 -1.4406577497228932 1.53991287327149 2.1065284741906174
Ni 6.143735452207323 4.485334933426287 2.748943728017507 -0.11549318267401398 2.0842056423237008 1.2147043188130822
Ni 0.7894975008489368 4.003785966116513 1.8240370045584577 0.10313671799119012 -0.6502947244063382 -0.0810897654934797
Ni 7.095798446165476 0.3636187959509682 2.6222454765121372 -1.3269622823792502 0.6022179235037693 -0.4121982303760901
Ni 2.6809194903009725 5.92342350668206 11.210144753905253 -0.4249059077507456 -0.9736888513638263 2.021851505566511
Ni 5.615974216702036 1.6349581782274027 6.625717342898638 -0.5360094459974962 0.0741048495352143 0.5745438546272686
Ni 3.4700467034916556 3.3073412011186214 5.156848838328909 0.40022871671903976 0.049489622089695415 -0.21325783772001336
Ni 7.8153631619647905 5.3198730459998425 1.1324925637941743 0.5219005173999399 0.597384506670868 0.1464153261741672
Ni 6.949166375724108 6.625809454256413 6.9409399103612595 -0.42603282226633726 -0.5988654620917686 0.007075161679226524
Ni 3.020957778661646 2.3778547009510196 13.586852668451979 2.639174660142835 -0.6134698422685048 1.5448815301306749
Ni 6.74377647015833 8.669806538953434 12.32691943560877 0.7096278149490166 0.8013745459357101 -1.7587584894919261
Ni 1.808753888076498 4.546082373878629 9.380620675764161 -0.5059707335435609 0.1492664224697171 0.043904414692434064
Ni 9.293943888098273 7.221908106094667 12.154626983118556 0.18164818123453233 -4.005765612657302 0.1467266867669989
Ni 7.578498805447434 3.53125470073287 4.410813160532334 -0.5542869041504455 0.85877493823205 0.292949951535018
Ni 2.0826470104192385 2.1996376459287443 8.854669428439147 1.451730719707603 -0.26285776013532797 0.3424922812395198
Ni 3.382504069062686 8.883532522397813 8.84559645969835 -0.3634395729151483 0.6697173519073241 0.031028072950398177
Ni 6.755723313261694 0.9840716907848234 10.120144080566073 1.0808580875531772 0.11710937812119832 -0.7930757962620277
Ni 4.343225530651652 4.144357109216314 12.820838037154095 -0.24176905778582877 1.4693456045758888 -1.4502785606421087
Ni 3.1925336047883732 1.501626987848685 11.232496495982833 -0.5211101602881607 0.02491553229475709 -0.5875348675702977
Ni 5.697603301961878 8.198574043714412 0.7191115279190622 -0.5367560943555336 0.2545356134228778 0.9239282350009315
Ni 8.791863299140543 7.238967129554521 5.318073190068927 -0.7371458178636272 0.4411329111325693 0.9302487779023205
Ni 3.4251239943049887 6.5858976029326834 9.175541185474083 -0.04984263455373997 -0.031157142329094726 -0.36407155007219233
P 6.176250761501754 7.447230909482867 9.542721006516617 0.3433600285564538 -0.3105177852154523 0.28894545836131524
Ni 5.554139862227955 2.236279544051476 11.570664923780683 -0.2672839142274816 -0.15635084012032427 0.9186942402955017
P 6.375146816344423 6.700263064745613 2.093922361724426 2.8086085586993628 1.057731528838043 1.9657235522246923
Ni 2.1452643114344045 2.1259117151659632 2.410991761910428 0.3432486997895701 -0.968893743968028 0.4430902919692563
P 6.525748886305877 4.161416132676167 11.925698020073481 0.492286551188249 0.6143419604608129 -1.2170152263344458
P 4.6620782067241695 0.8070870857295723 13.084454295309923 0.8775550470530307 -0.21444465893926296 -1.6016921113618159
P 0.641920367876801 1.1790438017862963 10.907378405354487 0.6448321586298701 -2.2328166905976063 -1.3060964946738345
Ni 6.3609800895186925 8.56477195768307 5.61025594361139 -0.3199275085651264 -0.9689184265583765 -0.05563095910074291
Ni 5.088664326849846 5.92433540912403 10.949764367748042 1.512644010253208 0.7653104532233013 -1.0420416289066117
Ni 7.388961264554662 5.582537793829862 10.165872764133267 0.49045309752393595 0.32400810639240324 0.19030534268889807
Ni 3.314120597050831 0.551678870665036 6.730602703769407 1.1201661411241806 1.0018740555487908 0.0942944371092118
Ni 3.4503532951994487 7.97286437262356 5.061993483206214 0.7273149478161345 -0.13948954558861137 -0.9467179792019373
Ni 2.711712317205018 -0.1137326567850185 13.419035906836031 1.3024673825616795 -0.6203573134169574 -1.7910289194898574
Ni 6.12819626615075 3.582312026347325 0.44531972806987336 1.4264544616393176 0.5784164502087974 1.0212825419823894
Ni 8.222007173132269 8.46718918525667 10.097037025354739 -0.3828555155479148 -0.40699945978396995 0.5854756710484239
Ni 2.184476116439047 4.616427817811083 13.570810554381955 -0.31862190237982546 0.8850402996864823 -0.7495624463604252
Ni 0.8620407217778921 6.9670451902681565 9.881387756760025 0.013878814864621258 -0.6413071761957472 -1.9060832148542397
Ni 7.0702836000619165 3.3015381855788224 9.249325146392263 -2.894949545289453 0.0015899701949391972 0.7045169760850125
Ni 9.187278935795298 2.750795166308776 9.744470671223144 0.8253778508288431 0.6755182748598172 -0.04814313536412999
Ni 8.481457234575954 7.628524483854813 3.046452360266497 -0.2693775635317167 1.006897219794995 -0.8934655476357
Ni 1.0615741872163629 1.2816374320756339 6.943515343924638 -0.15847200022838515 -0.7283151069458748 1.4122300905098193
Ni 8.096956793817487 8.024787545001097 0.7853138029788149 -0.3708744319266387 -0.6139259559693169 0.27350829787063863
Ni 8.956420239804846 4.062755657363804 12.820339714708533 -0.3373163934655352 1.1881859608075795 0.2558849283619206
Ni 6.8588419782903465 3.863518790497368 6.711985156136008 -0.5351447840043557 0.26055019504807386 0.6750122817576762
Ni 8.044508586700635 1.433805395119255 8.127036678812356 -0.2754340541384418 -0.3531423047541983 -0.6192036594284885
Ni -0.11702563782546006 1.1605478411451589 3.446203678531703 0.9000141473874951 0.26642079489623793 -0.013568482713054051
Ni 7.8473258031125726 3.0998880011386913 2.190529674871993 0.41497167935616924 -1.557110468096699 -0.9271390286287451
Ni 8.847811737852828 5.36530236765427 3.384418143077242 0.6192777071995335 -0.3635940962151415 -0.0163352468249138
Ni 0.9809951714351521 3.381675066842715 4.517478112835308 0.5862554866372419 0.6950779421592996 -1.3555470359954784
Ni 7.238202605284992 1.3921434279978084 5.056358110337565 0.13529684766350247 -0.21335399697824547 -0.7280423129004622
Ni -0.020513199376401007 -0.01766327396685522 12.635266811327096 0.11828771470001564 3.5507225192015426 0.3768998121851122
Ni 1.9885552584524957 3.7456070414101164 6.899511906088561 -1.5690681546792073 -0.5854990680871917 0.31631279463067463
P 0.19041259879163072 5.272960731485245 11.000454169044977 0.12103905219290766 -1.116043891425691 -0.2408169782852046
Ni 4.182859656766091 7.5573131931592785 7.084840879044611 1.4256180817809512 0.11348103733999167 0.5345901970524665
P 2.907633175191569 9.303707692022378 3.2862329623709967 -0.1858953865466605 0.6612345112472935 -0.3809652405037374
Ni 1.2523828648464241 9.06641962325926 1.4732778752664 -2.132274987027102 -0.08445225420780939 2.128608851029424
P 1.1952554007546239 5.949601554561599 7.4310441805811385 -0.022115086731484494 -0.5717485512703185 0.01859241829020669
P 2.397677065144111 6.864764738595253 -0.1876160979695942 -0.21157325092873888 0.24097124447488177 -0.04761143123037607
P 2.7279976052595654 3.685799136807076 11.411921130905535 -0.25420316978412355 -0.4028450712959643 -0.021939994606200924
Ni 8.694695027824128 4.388912764107848 8.167129989510903 1.4763256354381478 1.6405954732952324 -0.9082041393974551
Ni 1.1340750369207417 2.0398797070044967 12.747580032088809 -0.9584908034671492 1.1119902901816074 -0.07109922993967109
Ni 7.037620912595046 1.5439705790176637 0.2707889695857373 0.35446230911720245 -1.8630971982110172 0.7199675063121278
Ni 8.06134654290183 2.1622772792153713 11.781514269521761 -0.8174285140747793 0.039363589399287045 -0.418866129314569
Ni 8.794746384638886 2.725160575440108 6.235416649941105 -0.14841101644795732 0.07330446512110601 0.42750914970154763
Ni 1.0346684596104052 9.244940645762192 8.932888551234171 0.03292451864216265 0.34374800802349187 1.1628261418865522
Ni 3.0095451814333747 7.29472213441548 2.385660217408838 -0.17022091323419716 0.0059302494415059154 -0.9619376243651692
Ni 3.6553194885194644 5.339428287255388 7.1272268414381665 0.09988118716836993 -1.1519748009943451 -0.20563965905312326
Ni 4.940107129030989 8.961716642876885 10.666748536531307 -0.4904559257374134 -0.6723918134156935 0.11584696646900695
Ni 4.703777018388725 6.015387486284211 1.3154800660355956 -2.042041864471457 -1.6072963449224704 -1.6808466075057955
Ni 4.69150778553315 1.669942071910192 9.021663635630166 -0.3421017306693205 -0.5780420975885142 0.5424765417790787
Ni 4.23586053202959 3.5711849743281547 1.8995738446150872 -1.948531870936754 -0.09620990896436979 -0.26963673073037436
Ni 8.8826390422274 5.032448765200015 5.6995975128576974 -0.024114633660016534 -0.15317167106139426 1.7961335877062745
Ni 1.9245010202560466 1.260507086602143 4.928163049268358 0.7698942159392419 -0.26807864221463507 -1.8119569278917762
Ni 4.522676877868106 0.8102566375505958 1.7265122622874558 -0.5092954270414197 1.2192559427395067 0.7572934964560958
Ni 3.947026947455811 5.4331608049268105 3.715994160999164 0.8494521181692274 -0.01756783368043426 -0.46239876248988104
Ni 4.553248637513492 3.991848334148926 10.139409171044628 -1.1079359176065757 -2.5577789333731626 -0.4207643747785463
Ni 6.899315708896501 6.383114448791925 4.281917132030462 -0.37909836249832773 0.6477069090745039 -0.7131191159317267
Ni 1.399263635953784 7.798350194183824 4.051438855947619 -0.5173653485337477 0.4655403934426563 -0.8414588155511056
Ni 5.061961244230994 8.340370267872617 3.277767007477934 1.0256053377274597 -2.760103926230756 -0.6311664882173194
Ni 2.103565499769848 5.720815364121075 5.277184037239209 -0.43637765583577104 0.3242847570925576 0.7805344692619073
Ni 5.4849181768603525 5.437029481953343 8.60405008286531 1.0346265673894635 0.4005593605855811 -1.3189584382381672
Ni 1.4615493360809615 8.109069437364845 6.521317408883342 0.7679062389749356 -0.7484226763290273 1.0264347756072902
Ni 6.730171622615022 6.2497372027343205 12.690419407908207 0.24119390200864915 -0.010789120195704 0.3412712643482252
Ni 2.5538426611151497 8.252901322529867 10.926562437838202 -0.44659033470271475 0.8254141033834171 0.6019495003337311
P -0.2409273885087932 0.14961739954684294 5.469698617215256 0.4277924852699213 0.32776165989756456 0.09953254557969955
Ni 0.8838619024346923 6.417075906403417 1.348398823077078 -0.03896146886486194 0.5379943376380089 0.1166344953673088
P 5.082695510866054 3.30491867240915 7.855978744061918 -0.4612114270499992 2.1612533765373234 -0.2950878238136273
Ni 4.799757053189848 0.8923619385301315 4.548391605618038 -0.5959955967431413 2.0898453571079814 0.016076336736572314
P 1.95845326673176 5.270473724825331 3.1861337076501948 -1.2750033728134558 0.011134419350264695 -0.9211455300494718
P 5.681410125265105 2.397400731070787 2.8903512422459006 0.8467635155934707 -1.4499396892454512 1.0187548904645294
P 0.08639124245678718 1.7854589256953042 1.1745644264577182 -0.03299650953067866 -0.41876894161507233 0.3978648444725535
Ni 8.49263955340979 8.26166111265423 7.694646622033303 0.050812454666177 -0.14863881618804722 -0.6043735363941914
