# total energy = -381170.04021021473 ev
CRYSTAL
PRIMVEC
9.29574246838742 0.00000000000000 0.00000000000000

0.00000000000000 9.29574246838742 0.00000000000000

0.00000000000000 0.00000000000000 13.60525873053088

PRIMCOORD
 96 1
Ni 7.261712975320096 2.8210718480340087 6.693936477295717 0.7669901549185694 0.5074401190002358 0.2267471304556998
Ni 0.5387198670022871 3.183168894615229 7.87299540606877 -0.5340903745979124 -0.1009322541407036 -0.7647471245206635
Ni 3.0815943194093913 0.19775669035155755 4.036081130257329 0.7547673876001324 0.5225756890900936 0.18070432926402427
Ni 0.9509823160321048 8.431675090759533 4.43555914501602 -0.022011471274084673 -0.23218398520055497 -0.04082243333300066
Ni 8.565924199858344 0.7486335290253185 13.385682877725094 2.3869131874661154 0.029684928658942428 0.979690834583532
Ni 6.164350606595915 7.2602349523075835 1.4706468410636364 -0.9038543470691917 0.6204581006608798 -0.18272058836310467
Ni 5.762291164223544 0.5360566368570988 8.143754348773582 -0.7541840042928366 0.5161646433574272 0.6990317846007251
Ni 6.380495204627043 0.6269373902164282 5.8547373205722275 0.5382465628581311 -0.8354542612282386 -0.035930395348022
Ni 2.632228844894392 2.100363658202966 2.236527690198492 -1.5706193012164114 -1.9883209779092335 -0.37141256381829585
Ni 2.2214407005802 5.733781122843815 3.946164345365908 0.8469517203448769 1.286972115139558 -0.6832557527133911
Ni 4.460403875239562 1.10727162992757 13.047891408318826 0.1857948564130542 0.2099434286347997 0.15976012291218938
Ni 1.5226983496080757 1.9681503166496919 4.785445304620907 0.19302942648828048 -0.2047066057158926 -0.5122146575707436
Ni 3.138651585137718 8.498474294331341 8.158093960717622 0.6991454273604539 -0.3831061981061402 0.7014295954089405
Ni 4.531060811831451 2.1466750459283697 6.592686323493255 -0.5230171475028863 -0.23500602803038237 0.5324914055419087
Ni 6.203969059925033 8.309798614551632 10.139345696448041 0.775952763428496 1.5207458134247358 -1.7418835681134581
Ni 1.993778677942132 1.5081319215539393 7.0566526203085935 -0.0932719093819684 -1.6790789740824115 0.051736766252659286
Ni 6.788132092329651 0.8442467447473542 12.185250248872348 -1.5292265972022372 -0.5671552754726813 -1.5351056816908337
Ni 2.1777693036444425 4.2918348858753586 5.730779527681926 0.8696018536442248 -0.8042765500738536 1.1876743112784836
Ni 7.356352926832005 4.134011774514077 10.462756652644513 0.5722051791917628 1.9270513324654746 -0.5129242820432587
Ni 3.058512991484426 3.1671244435485795 8.100175909259995 -0.3949839233803326 -0.3662513313323305 1.0274447049290436
Ni 2.665814361524637 8.8328607333635 13.488769870189646 -0.2749861679677458 -2.051042268197855 -1.1064899291886687
Ni 8.154466762104525 5.310778373256404 7.3528121786215275 0.24712080901604538 -1.0996579938684996 -2.085546215511995
Ni 2.6543898943398676 4.619807262777743 10.06737434190666 -1.0638908635712194 0.39375982116524444 0.08496184685437626
Ni 6.452490728098189 5.804521721115657 8.93142999511056 0.46806341697482606 0.13716398277922828 2.222217060704889
P 8.23532112790853 4.71024553880754 1.8054041802102554 1.8374501870668742 -0.8823049030331901 -0.7532239543724124
Ni 0.548744395409167 4.043973215399614 3.6270396559057225 1.0663138711904152 1.4284300973084496 -2.362911425234879
P 7.873781825860334 2.697847489204633 11.732644278620482 0.9393641099400273 -1.9235952555960745 1.5546257540016324
Ni 7.486205149862146 8.104139613741351 4.447163949599801 0.2684311404580474 0.1684676779885163 0.5045784811817245
P 2.1837836488588813 8.73531121453765 6.263969357639283 -0.619832551261739 -0.19072648938671666 -1.28730070212357
P 2.970686819017623 4.411480383951164 12.36636384235848 0.34540456979030837 -0.3712899221975025 -0.40144407718337954
P 7.815599775323742 9.156947490019153 8.051917993114339 -0.09433891719390204 0.7768331091509202 0.07756452594904062
Ni 7.140793960560552 2.4501159591199277 1.261283486979855 0.38703252974373986 -0.1445592468020349 -0.32938839686771015
Ni 0.5236979475795148 3.736070345943866 11.264282954884916 -0.22387495111422737 -0.6156989887093396 -0.67710335995875
Ni 9.01884064790026 7.94514523886072 6.363955290500225 -2.5447292992780564 -0.4426195229804248 -0.7354877134349139
Ni 0.6747704909427648 8.780460634485921 8.228473884191443 1.9649020847646612 1.7729877457174303 0.19722649528876354
Ni 3.774536127238069 6.335959303665099 6.902641692830531 -0.11805245876075797 0.06513067106106203 0.11729064089406896
Ni 4.509336662270178 4.594151014258652 5.162910072235375 -0.4741597596805512 0.3401176103597562 -1.2960355108934067
Ni 8.493872901933896 2.5271776620993727 4.436797337879333 -2.351063010536725 -0.8934910015569967 0.29148416562276896
Ni 4.037587040496493 9.090817579886973 1.669147190792559 0.1369230704130158 -0.45002558563650885 0.46054088334553595
Ni 7.4435376930858315 7.755316887046095 13.21446088353214 0.1795131371694005 0.6511197914107948 -0.789997157336704
Ni 7.464350859909834 6.186279262485964 3.0970875329625684 -1.2363105842289484 0.7154115115103292 -0.9358149591361883
Ni 4.762878031240547 6.037314993457544 2.926259678239618 -1.0957113505159257 0.48848543227460395 1.09658372581855
Ni 8.548866512890035 7.083188246041419 8.716386012957933 -0.816600104636213 0.7260880173875689 1.2674026776480625
Ni 5.769969447294838 5.026784152782939 6.99291264550042 -0.511855474459112 -0.5621637357953608 0.6336753706821022
Ni 0.5861922929306016 6.542110978812885 2.349193015443506 -0.1092050356724571 -0.12041453123503132 -0.11429839103496443
Ni 0.21756870573878204 5.109274569217149 9.124379857161676 1.449546824682407 -0.606178193703098 1.6498190487760296
Ni 8.151120294906383 5.4274027551116655 13.397832412802794 -2.2166043425038016 2.1183180106263775 -0.5225234956959195
Ni 2.0555117020056413 1.6419162435418972 13.131455482979106 -1.548289013150327 0.9524445972730694 0.6450915829388438
Ni 4.406070261980834 8.720614646092475 6.0345718199292895 -0.002433034921524842 -0.23494226467198245 0.3033037839655164
Ni 6.208245101344882 3.2808392580899 8.686672172961094 -1.193045860003042 0.2552231264082056 -0.8052476557378712
Ni 0.21022135109041615 1.9155828944122055 1.9069127556463517 -0.1631794330063835 -0.17424443257129346 0.768646973795702
Ni 6.976677631718321 4.959120445184944 5.241126306398179 1.3595358454398974 0.2651874367097691 -1.6810440682285823
Ni 4.936866438317298 4.501676970683318 10.771881912201806 0.1337284747351181 0.6063417158641558 0.2834746650547312
Ni 1.328937898835633 6.586172796921759 6.741704507826534 1.685580522646355 -1.2111775366067463 0.7340586942978713
Ni 1.5230794750389751 9.041894088598575 2.15486924269271 -0.5281434129858581 0.5619423638131742 -0.6251747894102587
Ni 8.679425212328672 9.088884065505825 10.198147772990511 -0.6238699545559062 -0.9501730276300733 1.6803442139480804
P 5.497213779161802 6.909385753809008 5.404198723389435 -0.05286933719520572 -0.6441693282348906 -0.8155456952297696
Ni 6.706078575779643 7.483936988761183 7.25660961284293 -1.248548521056037 -0.09105973222199802 -1.0846712906516804
P 1.9646086388649913 6.510449680821571 9.04700674681796 -0.29978831461309013 0.5324376694858378 0.224846056778245
Ni 4.9541565188410335 1.911883189009815 1.8723688479935272 0.6586790918152914 0.3880882247017639 0.9092570061420019
P 0.8269752557080529 8.92078915899469 12.152598024760698 -0.4902602647868395 1.2463803097601245 0.4100660145244357
P 3.728903328694511 2.4466207600463123 4.381328714495901 -0.5265089627062287 -1.0274681019678111 0.9709745377564567
P 8.766842372137924 0.5401142283348465 3.671283670562051 0.4924649857476422 -0.285629763724521 -0.7665664371175895
Ni 1.0781852525303828 1.487597626996449 10.301724651069904 0.9651237354026346 0.2494137188152801 -0.25039922265700104
Ni 1.877321619446778 8.385187083932006 10.414784115784922 1.3270792675730887 0.49591849151388134 -1.5129512570809815
Ni 9.059602477522079 3.4702493015047575 13.594279333075967 0.02238968054910983 -3.179267532181086 0.5458410873759374
Ni 3.57984610224392 3.92533165748325 2.951157394193797 1.6584106470997826 1.963983943825766 0.23711613239484974
Ni 4.353289037672355 0.13360677331161197 10.727556095013966 -0.18924450552455152 1.4305515145268266 -0.5797390256749628
Ni 4.779675437426778 7.946809176717574 12.137359514544265 0.7608562741066897 -1.954052286534351 2.387233546920011
Ni 5.6672886787651695 2.1891658836025605 10.654917306181401 0.017947585617356186 -0.49999857512052603 -0.17003296559310718
Ni 6.587334764698892 0.7612980482218439 3.364689641610466 1.8798497350790078 2.4454829174802075 -1.0009949953779471
Ni 1.0616016484151438 5.163942829195691 13.00902126223818 1.7644524545529094 1.322365149926871 -0.6684199732521392
Ni 9.033741722674211 6.257856477557342 4.602917828743563 1.608796583617081 -0.9794550644236422 1.84615517104004
Ni 6.9064947779795025 3.8859177104829072 3.1735487309947907 -0.9682995620274549 -1.1364579363056686 0.4649089305062445
Ni 3.6985806175824543 6.032518390473539 0.3848000377979511 0.4742399780991833 0.3964569083814333 0.27120844609286837
Ni 5.998049778332674 3.3447195986055513 12.80239829295999 0.19459471409287132 0.32728497737146217 0.05912431696598204
Ni 8.101648354827176 1.7975362639977337 9.168229732348001 -0.31490151610544476 0.651562278264852 -0.2857518911246821
Ni 7.133784970928888 6.709415747235568 11.132570653837142 -0.048867415124664235 -2.498511405961097 0.7289224015125705
Ni 3.814303312442661 3.374698367255576 0.5822787854572185 -0.17310234854705026 0.6981879485431911 -1.5984082984042214
Ni 2.7874119654660263 6.613400025875534 11.733786725338959 -0.18731334994010965 -0.47287549365148884 0.1360031297019077
Ni 0.1808904956729201 6.862414368386194 11.112298499210171 0.20764306263639723 -0.7896055783252401 0.4715698874661879
Ni 6.254686629461324 0.19123107931517996 0.7754164215011179 0.417962386553377 0.42184526654755083 0.6494809702557912
Ni 5.28905422369513 8.434036209282667 3.5838702290496864 -1.6094977234491636 -2.4854216626566745 0.7937985333606652
Ni 8.397671265729521 8.422537376160161 1.7693636580604837 -0.47150946654189757 0.6380045941850754 0.8408852024358228
Ni 3.3169718080876205 2.3964144563319603 11.332772124391788 0.11110713779117638 0.8410944902331514 -0.8648304003975107
Ni 0.5154182299867776 7.363928956738912 13.554606034867767 0.04924151063463132 0.2059008831343099 0.7433180081126102
Ni 6.009994807081599 4.93315743717269 1.2812089104221276 -0.475525015459194 -0.8866649797740989 -1.547083422878
Ni 4.465079633574744 6.800569795416079 9.611788156700001 -1.4484199101668151 -0.04713860535901559 0.197429355328189
P 3.2561125837925147 1.0507070385367472 9.312282131188926 -2.018455592511085 1.9795607152181007 -1.1880620336352057
Ni 2.0033997711367912 4.681726201685595 1.4699533786942434 -0.941842653387507 -0.1080423828229236 0.3938518666584185
P 0.12296314847307586 4.067193979457835 5.711827368449779 -1.8406823208509269 0.34065317114825205 1.6630915975152196
Ni 8.678244653067106 0.8869030466330088 6.208500734255852 1.1877578721312252 0.8602834044567765 0.5912814790969236
P 2.728495551294287 7.303636772719046 2.0929512333590807 0.5883061985186836 -1.4070858273047187 0.28651448032231946
P 5.77394802496374 6.112350224633669 12.916084290700438 0.928926202436155 -0.2790801355314613 0.2481320238893791
P 4.3108167914825986 4.743449930006887 8.540687189313243 0.9769711216595239 1.0176506016567572 0.8319483049575092
Ni 5.869368818821883 2.5297432869512817 4.849104406471793 0.08976235356681316 1.0751646367128256 -1.999055076497286
