# total energy = -340862.05380157015 ev
CRYSTAL
PRIMVEC
9.27407827383917 0.00000000000000 0.00000000000000
0.00000000000000 9.27407827383917 0.00000000000000
0.00000000000000 0.00000000000000 13.57355099196213
PRIMCOORD
 96 1
Ni 5.33713000726948 3.7066357652630093 10.865640820328494 0.07391073124653723 0.747214514953539 -1.5501209241527432
Ni 4.832406847685845 5.309882765425835 3.443894637114688 -1.0836014546262691 1.5249644794917736 1.2749007857973202
Ni 3.0116919870765777 9.34725070857451 5.448532089799853 0.2750087936755651 -1.9429698034679441 0.1647722314148001
Ni 0.7814607265986795 3.9959220875328643 6.943929906802727 -1.59254746874807 -1.7346153165868192 1.8115419518415448
Ni 8.879262172865168 6.863828765710913 0.8510673207639217 -2.096772166134802 -2.567974900069558 0.8058343814792766
Ni 8.96884976857981 6.795386068363702 4.530253669277842 1.2817214082635797 0.5008341836479439 -0.3347810286381912
Ni 0.22569304042980723 5.951055438027018 8.831712118957498 -0.868206515958595 0.4689920994366826 -0.01742590878593128
Ni 8.254847759627998 3.0796709805122218 4.980977580951739 0.6424173785407904 2.9123777680682297 1.0690780641991138
Ni 7.309494595117443 2.6431586663200135 12.725991236482816 0.46531439347477926 -1.2736280897324839 -0.4524059129432273
Ni 1.3729067191312987 5.944099879353521 6.148791769628484 -2.3045227008833407 0.25241753863861044 -1.4243271308836696
Ni 0.11382818139568981 1.4400046751349662 2.3687878440696046 0.7428996896282689 -2.4206517173691404 1.24442010070996
Ni 0.21585973528112876 8.69173103694946 5.717844829782896 0.5895004759371009 1.7895644191291888 -0.642020657323004
Ni 8.460509718485955 2.7184641815584074 8.011000711060364 -0.29120674359166626 -0.18510117278013927 1.567869506385416
Ni 4.627292059443533 7.178461143786992 7.7147449189996635 -0.1674029841694278 0.9985886999292996 -1.2685285637223895
Ni 4.485704707085829 3.052507205372658 8.549762519976447 -2.8833703250922857 -0.9548498642804523 2.0468225736895524
Ni 6.956393340537811 8.907306985436708 1.238714516755256 1.5865282591371839 -1.0023080577624157 0.2677341143910228
Ni -0.08475580095611866 5.204529236717933 2.7964369216961313 0.4326426142733711 -1.0806907087373776 -0.24790576681118595
Ni 7.494391892815456 1.2658931304199899 6.2339788152223585 -0.49618202958791313 0.004455464668192326 -1.9047652673737647
Ni 3.123073666634843 5.1234552448196515 7.241855960352889 0.2515050541266701 0.045277126670244604 1.6245741581663118
Ni 5.315975834823818 0.6928320705731577 3.2878128278892382 -1.6853879470195747 -1.0684903100164438 -0.38750741249762943
Ni 2.7847089223647923 8.586609360197341 10.938449753707014 -0.059534407920207144 2.7838318659753156 1.6932629788922773
Ni 4.030440206709872 2.880890387701909 2.4803624244550813 2.2368641211941025 0.9939028644178558 -0.7882264385895263
Ni 7.185778391511509 6.712939512887185 3.105288766810623 -0.9115735700903204 -0.7982447420574769 -1.0223055839302653
Ni 1.7691509856430752 3.4408128609184168 2.792636404436933 -1.4642478783380075 0.11791567607257758 0.9380862716688682
P 4.722017494498331 7.800714696796263 4.16994460109682 0.6970345516650382 0.0515354488751306 0.590756459831389
P 3.7410054991883155 5.3101609877727745 10.76781691573661 0.21336530983215513 -2.4976094629721177 1.120984780370734
P 2.5264351177005024 7.399230576083785 6.949061254288122 1.4620950936610626 1.1724965750967806 -1.6082589659460558
P 4.66850606310356 2.0895982107701974 0.4928356461067177 -0.6023117687691563 -0.863609640616532 3.112161482561208
P 5.610659670624307 1.0260561932795822 8.130895994434988 1.235787878956259 -0.6026079598533364 -0.7198651764063086
P 6.683383025563938 6.309201791164495 0.9981977896804919 0.7825165326889427 -0.45085373796475897 -0.17489543589173107
P 0.9408645106465909 4.033407911743898 4.989718399684768 0.312176660975114 0.2649100146786664 -4.369400589412707
P 7.158967031344737 4.567335143677989 11.924649668379635 -0.9999071616304068 1.5896197535783139 -2.0743853137991692
Ni 1.1090962897629049 1.6256253509350227 4.946025434913507 0.4853234896068545 0.9705348791158768 -0.167029402880093
Ni 6.7418375406560065 4.26706831278224 2.4739289963860083 -0.3622229268992278 0.3537244025099134 0.07979161550734645
Ni 5.641922588342117 5.960375886649505 5.896798370742449 -0.5938371556392418 0.2423069325671698 -0.44731692845609416
Ni 6.189529085667421 2.916317366545587 7.28735458815579 3.1413864408645966 0.3237761928872553 -0.9850544128882907
Ni 2.9362102643517884 1.9975993547154105 11.843370719352443 0.2844043759578521 -0.5460244070313371 1.1927188156809265
Ni 7.252941266062797 1.6223423272411321 3.7923282481204916 0.6100934695971042 -0.04951404756972763 -0.9369372456660895
Ni 2.914573839838097 4.157977330547113 0.6940293540728223 -0.9122356291543515 -0.06844328037406278 1.8480765564324688
Ni 7.532768028536697 5.067986982918071 7.383387668241205 0.18227861572967963 -1.0540522802142427 -1.7888681643931126
Ni 5.64661527192717 3.4134265079013018 4.563849017670833 0.763910230441665 -0.6551163141646976 0.443835654775713
Ni 4.71329058688265 8.880495625269937 0.27447469192659946 -1.333324477151852 1.5251269732115669 -1.140684058571874
Ni 7.9384811289226604 9.340016927554073 8.033397609989024 -0.32773132088026136 -1.557970502104149 1.5571549481813893
Ni 8.916126633834704 6.0426184124049325 11.5554078080462 0.49254314728374526 -2.321054894210409 1.3088691723229653
Ni 1.7592184478573216 8.839763873677938 3.5369414640096144 -1.6186719337492637 -0.2535578228906407 -0.8291643144544687
Ni 7.781202036197546 7.217226790793948 10.172032509407375 -1.3259364122178972 0.9444258407336509 -2.3955672635966874
Ni 5.2405497565684165 5.258476549789576 8.629955474442752 0.4109849267942793 -1.0758773465091342 0.5506665337890386
Ni 2.210457998280881 2.141542322943873 7.739638399788198 -1.4276258562395994 1.5382090032065057 -0.35358993381457815
Ni 4.638745546059225 5.410534336470452 1.2203193825834142 0.3574332188200683 0.37093228174776766 -0.9138194287017035
Ni 7.27793490689623 4.387853907667074 9.481071020413477 1.0793485928871864 -0.4234653186494772 2.1460491579930587
Ni 5.847157939601436 8.604990583251835 6.148166696755692 -0.8810391489468892 0.5224635889922615 0.9458260635152871
Ni 8.644015904449269 6.989010273677396 6.865474914596973 -1.1227940656653308 0.4766313611494952 0.5585857886361154
Ni 1.083082500324026 8.478204659751333 8.02381470495259 -1.620757355523383 0.6783241197397286 -0.011304369269225694
Ni 5.624598610205995 6.312345703684914 12.682419762136385 0.9296263138269732 -0.863287481390423 -0.6964853640297876
Ni 7.105706000062213 8.677819919602465 4.2979287355048115 0.14622943541560623 0.2145945542535659 0.24805694767706954
Ni 4.777383741539367 6.935990368428887 10.308867824079346 1.0296681949429236 2.0150954177896003 -0.1904336407366462
P 1.5545209931354207 4.365725957007122 8.791018391086247 1.6767441553016478 -0.5898876840731906 2.1182092529626555
P 5.497673575532022 8.433874565805578 11.808337888833597 0.02939387978108486 -0.24552081151877717 0.6718192287416752
P 7.425606054573686 5.403272733215321 4.932885920875359 0.3798604374753329 -1.6091213139463514 -0.34899280136219896
P 8.694726564218179 2.8346405595622697 10.459819213227226 -0.003532438633290691 -0.7815528832240927 -0.5619333649521097
P 8.743591682419053 8.521922664533818 2.9646130563430577 1.0531143417810056 -0.33699449134974224 0.135871746330366
P 6.679886698070727 6.971482265820183 7.934907826580129 1.2833149780029447 0.7610899873840505 0.811219299940274
P 2.24512450270959 9.2760257877579 13.488729453948089 1.6902339622579665 -0.7111193118928786 -1.273971846225148
P 2.412929674227263 5.600615843899777 2.630418865053636 0.18656155937574967 -0.6952149819577962 0.03226914444635088
Ni 8.049287815630583 4.620512708256432 0.24455373332886168 1.3879205672301775 0.4905428290242649 1.5546329530904839
Ni 0.7794259938347258 8.099961379086567 12.297121690161045 0.3610903559566813 -0.0689911824577328 0.2612089116779953
Ni 6.171583744289798 8.928906313637475 9.845046131719343 -0.6538970970456158 -0.09049023287177319 -0.8489980613509442
Ni 5.369941696051923 1.371024081250339 12.346189910675186 0.5253727922192565 -0.9130097883162147 -2.8547711732983547
Ni 1.6994377395781728 4.038286076893577 11.345778398520876 -0.06116911531015271 0.7114147316461102 -2.078673656761878
Ni 3.087442658070076 7.911558479817112 8.939473198374252 -1.4657157211327854 -2.428113572963825 2.067308866568362
Ni 2.6905955764732625 6.839187539850271 4.572454434861683 1.3668681174352524 0.5083022098902149 -0.9786557084507984
Ni 2.6398107240785036 7.37274380865511 1.4542570785608733 0.14054241233315795 0.4178628848610352 -0.7739293052405638
Ni 0.8411180896373516 1.0970585362186394 9.518887001809546 1.9422185271242165 1.0313298989160624 -1.1693505732686311
Ni 2.4211743297749146 1.1228775700146603 1.7718237749893444 0.5114641525579643 -0.014349840963768833 -1.0209413565928869
Ni 8.40346486328505 0.4285060024551019 10.493779960302529 -2.006515132319757 -1.7029647795610736 2.287224575924525
Ni 1.310677654199079 5.816989363114922 13.320838960910686 0.6746870372077736 -0.9183389138386119 -0.1753734039694141
Ni 3.149866478645153 3.948401710675533 4.89474441933337 -0.3676068169189604 -0.24015800454496708 -0.4025316538206036
Ni 5.146909388666684 7.559820514737484 1.9112920004711904 -0.63234328213424 -0.5970309799861911 2.7835521299513672
Ni 0.41205100544925427 8.759153585691223 0.9143554854301593 1.551513947845528 2.7879309757453536 2.087514909202592
Ni 6.6537337974583775 1.9260127448477795 9.964289447394306 0.08762396706757168 1.0410173014071555 -0.4724995983693089
Ni 6.715647543730732 1.840218247129752 1.5028634499790934 -0.8129866762533419 1.0727226029302364 -0.8373874736952094
Ni 4.158561597475687 1.82625148531337 6.252954506691482 1.1188443369889636 1.4323885677355654 -0.6891597769026517
Ni 3.4227284083673246 7.062396054721905 12.574089254316227 -0.7793481622632901 -0.1719450950141555 0.38546004305029746
Ni 3.5823909391978903 0.4655772753691946 8.07265200091877 1.439686129838243 -0.28035000338282035 -0.8413940237514412
Ni 4.598078713014846 3.7249706179263473 12.901375184731132 0.6118315353341333 1.4705110856388997 -0.2079155995714935
Ni 0.4147952051979046 1.7707461270988638 12.203477612628022 1.238303960509893 1.0933711324185234 -1.2239572048699179
Ni 7.678862582914827 7.917011637817133 12.504335202307107 -1.09991433285368 0.6524449379801215 0.45932243755740254
Ni 1.863765131759097 6.370095388831403 10.602423004559084 1.705869097692062 -3.1311413660978205 0.9063046083818972
P 0.3103412620784425 1.2102115647190885 7.021407411162898 0.7862315196466846 -0.37677537079210593 -0.09312818471525251
P 1.3061704521786528 3.4718068303675196 13.278828313930589 -1.9951431430373898 0.08251389953451596 0.35552880270850384
P 2.9379259688245845 1.6398888832548073 9.800307050923587 0.26144185362440786 0.03658371266130474 -0.15630456026342116
P 8.439160790397437 3.1076137782232167 1.9803134003000358 -0.1758994516762132 2.8114465423687904 -0.29681766202054044
P 0.6965491211282744 7.87261662532376 10.190289459813568 -2.5976719129133583 3.0977239669796397 -2.2124329847349316
P 4.6768712816682205 4.040892092876581 6.429587673277557 0.08911469268048522 -0.1724857980089739 -0.32146451403494314
P 3.2524656061183497 1.4518013026452172 3.7203474899280295 -0.9907118682843842 -0.5431144324733936 2.3408289915135425
P 8.391705332087724 0.7151751798480763 13.364260195189772 -2.6189611613094383 -0.9630007755223609 0.2132560379478005
