# total energy = -381170.96067051275 ev
CRYSTAL
PRIMVEC
9.20706013600542 0.00000000000000 0.00000000000000
0.00000000000000 9.20706013600542 0.00000000000000
0.00000000000000 0.00000000000000 13.47546317294266
PRIMCOORD
 96 1
Ni 8.024717023568588 5.385292289476136 8.49774814799378 -0.8288254430578114 -1.122088554957874 -0.41131531355050455
Ni 1.017582691354521 5.092121083217557 0.7669545474902332 -0.7890512484836669 -0.43594339651182984 -0.7307113750921932
Ni 5.766344883955873 2.315041594248778 7.327377057151187 -0.5764667826815942 -0.36636214587858196 0.3026054723469111
Ni 4.194322243173384 5.9554763115974705 6.129004534564537 -0.6129479083267637 -0.6825052477006117 1.49432927110442
Ni 1.0913864847521961 7.912842036845141 11.00530292304221 -1.0378324759212707 -1.2389518785065372 0.3399229778504469
Ni 9.007193194934919 4.393636679235369 2.891726721474666 1.6751320736195214 -1.2091959874003433 -1.1545734149594569
Ni 6.564910030731566 1.7194829146169657 0.3357317620669737 1.0270168733630054 -0.0033020677900394745 -0.6275440609733838
Ni 6.234928998374695 9.11559712001778 5.2085627717280865 0.5656069571489549 -0.5352494279030201 -1.3589200662327694
Ni 2.965621664766881 -0.20867157119547483 10.252819111839793 0.12166203048888724 0.10276005137806174 -0.8443757320875844
Ni 2.8685148023710134 1.3128715214256579 2.6533052978307667 0.10270477266009409 0.8826419746576348 -0.864019474460441
Ni 9.571383420960709 0.8453278047930063 10.498611707763404 -2.2846118208920263 1.3168136239810224 -1.0623170913261963
Ni 5.973982502307217 7.60289556716708 6.928624810422486 0.9372082399392891 -0.6880696291622667 0.9649594419106284
Ni 3.161916185130957 4.4870515105493425 13.352755210095193 0.21481386935322358 -0.880898766714283 0.7185238318870657
Ni 7.104001811048515 1.2847347458987997 2.641001903479805 0.49440539730346467 1.049564162535902 1.4806885403925338
Ni 0.34783628392075655 4.201384058235263 5.396073756800074 0.012751386128397393 -0.7080489004976709 0.8140025191123659
Ni 3.310628619132859 3.3670863113876677 11.292478491793235 -1.4400478840530362 0.14535808855424642 0.29138337837884654
Ni 7.535582751107898 5.933885755769433 3.607058203944761 -0.1526602786426145 -0.7897264201738206 -1.2053655579106595
Ni 5.47214248697118 6.886328497237658 4.543710837419347 -1.3762189625225332 0.16898189862077348 -1.3424768330750816
Ni 8.666264968173127 7.06854542277825 7.022697025824358 -0.4842174010268692 0.811367395482364 1.029045216646944
Ni 1.053048286684841 8.48359689668986 3.6519315732388717 1.2188859609945975 -0.08422805401214527 0.917481193824007
Ni 8.12507397816373 2.961662628943403 7.364542275767586 -1.292381201970271 2.446756899096625 0.2196596274812991
Ni 7.988330722232808 8.322233962172938 3.18015537109912 -0.4624972357409583 -0.20906334002269156 -0.24238200877947932
Ni 0.8388966733448681 1.9395868922822375 7.171021842597961 -1.0080881547793026 -0.5309726549045372 0.10309326634776438
Ni 7.450454273843065 8.687873938121275 0.8107267524018134 0.4022382909499009 0.6328567314355489 -0.08116715569863439
P 2.61758558764294 6.910018262758144 4.8930082817707685 -0.24494668418286203 -0.25841515098294204 -1.0135399219224932
Ni 5.363950324269572 3.4427407238563172 9.940795529413416 -0.39181786694752524 0.007130183286878043 0.2505223784984266
P 7.391105564731112 7.256387862012202 5.103656608759965 1.8119695262972666 1.038292703387141 2.5125190330940987
Ni 3.5855330182431113 8.656726453956562 3.931466202850582 0.435841580826643 -0.2100287892597544 -0.06644399055584686
P 1.241572048362834 7.100806961209569 0.18094082701702455 0.5282675972685483 1.2976504207890103 0.8059865907864249
P 5.964176983349067 4.739978657309265 8.31728516739359 0.687322466583597 -1.6689370005524031 -1.2755391907122677
P 5.019265617005506 9.382086266238128 7.846896469204067 0.2013752273498145 0.6349082146479388 0.7521767440548207
Ni 7.692553917978777 4.871335783108244 12.969675220991432 1.6076277601199602 0.559646625800462 -0.938991299981641
Ni 4.1224427253271205 7.2688173930859135 0.40845464661423864 0.30689381530961984 -1.1728727274892767 -0.6498789770251582
Ni 6.487607554513143 6.96491075480367 12.841011160258422 0.365164526026055 -1.5472798551595224 0.42578933879696346
Ni 4.698123362301052 2.5953045023108077 3.514414003557358 0.27203325598700895 -0.7287758486323772 1.1985295088254326
Ni 4.476122730264532 5.386507621403344 11.756343987934072 0.8655014583226062 1.5906893324934088 -0.8385223586306011
Ni 4.514516170692215 1.820889474058332 12.255919987202683 0.19707428598161544 -0.23631317687758016 -0.4381170071243809
Ni 0.43059578463354115 6.4764209765468035 5.009988583294491 -0.17984712347005155 0.5556778709607011 -1.3879105399278486
Ni 3.7394474411758627 6.5019337399581 2.646890739090727 -0.9139117313051939 0.6681659482598041 0.19513747397021877
Ni 0.8051905471909823 5.839237178408143 9.358183817630382 1.0335747290861812 0.75369498047156 0.4192271121984135
Ni 0.9617234580032618 3.898471782438917 12.166497337128385 -0.5263796362172161 -0.7782580145229048 -1.1448932115572152
Ni 5.418327220952042 8.905086898929403 12.770683032031359 1.1042160455528274 1.135903092243463 0.046166471253733396
Ni 1.5631102066496363 2.8356271838559812 3.7837352414505006 1.1581652460757732 0.522298781279623 -0.5534091295311824
Ni 2.978041988780537 4.9436112045368565 9.601739097960724 0.03183462801209356 0.04823003865098145 0.16488484573326442
Ni 0.8372762307752584 0.0030134707558706385 13.570599775223064 -0.3589529978987044 -0.6373885578676313 -1.185423567571094
Ni 7.330983462574574 3.6897569380611857 4.268083684094808 -1.678114039065981 -0.17196206429501998 -0.06295217535250448
Ni 3.7954263663078316 8.325585332032812 6.266952994656605 -0.1889981938417003 0.015226072921135068 0.5588984347805278
Ni 5.75639205203685 7.714623240929654 10.683145129613733 -0.6115769961211661 1.6490898839194892 2.6833351567101333
Ni 5.37149090645429 6.587209530183807 8.957598445244809 -1.534396571438951 -0.07147024012584464 -2.434012712057079
Ni 6.889799558878242 1.5939446507724921 9.34426366353383 1.6370915739070322 0.9956632987523883 0.8894538553731456
Ni 8.852072647135014 1.9618587705543153 4.355081194550725 -0.5853013502540887 -1.3316799995698936 0.7645779459326509
Ni 6.945308923947426 4.368998586529258 1.5764678093768503 0.22322857577948005 -0.2805443787818136 0.8744946629601521
Ni 7.988045303371115 8.636075018254095 11.77545232037139 -0.2171134640206777 -0.7322213839788164 0.45051152413399187
Ni 5.097608491010099 4.843438391142806 3.2624232148049894 1.5792499803082156 -0.45618594881094987 0.032884666543162716
Ni 8.399821857253054 6.591813060211107 1.2883687725023505 0.5220270156754752 -0.2650020601718404 0.014157008226672393
Ni 3.1001460192246446 4.586892869781427 4.448991365695637 -0.7730885545068233 0.936625885073258 -0.22727137839028602
P 3.666960257365995 6.873199229599798 10.475851855308434 -0.7924343060232869 0.8838907594630713 0.17990908705623854
Ni 5.299436454466989 9.315611292643915 1.9524058819962573 -0.728463716708597 -1.4182940373157122 0.5618590600707485
P 4.0800718349558505 1.1967244588368768 0.6911224387625297 -1.1171564077635792 -0.9031555212299541 0.9232281236101132
Ni 4.885726417973585 3.0987281319762365 1.333216362028308 -0.742919744232927 -0.44529398448879437 -0.08496904594322785
P 8.86377482046441 5.616232976825672 11.230370426782919 0.27448968794730144 -0.38563359251368423 -0.41031978240645467
P 7.144687809429794 1.3201082706285736 11.606294688812243 -1.1074682339415378 0.6959199784446208 -0.27897909117722275
P 6.593838613423119 1.9347071504532993 5.225299365495338 0.3093962700164994 1.2746809564770307 0.103414397132609
Ni 1.326203344384719 6.16264436988603 2.7188365477693837 0.4395218578917076 1.1826619456655567 0.9951205388750409
Ni 2.6209553716229235 8.458102547398672 1.7160459190985835 -1.041048411755407 -0.6591670871953035 -0.8744039030185586
Ni 4.432490472665782 1.2079478650434343 5.434317122148865 -1.057043758742399 1.8711635201589194 0.4694682677421528
Ni 9.07126512585488 1.9659559122786123 12.550076348887105 -1.1377468303204212 -0.7452797598246712 0.8234243266468981
Ni 0.28236119704847285 3.2996814247279396 9.425898061507944 0.5864812294948029 0.32237031367866414 -0.667977743508398
Ni 7.608493459680277 0.7853226322991604 7.377816094248303 0.5235308539145113 -2.419586766439736 -0.543612969376367
Ni 1.3166832442882623 2.7911754979123717 0.8651487636785495 0.005347894575474661 -1.0097352034644222 0.5915797270636328
Ni 5.092830026841761 0.7424361465648329 10.31065602169078 -0.22210140415357232 -0.3832622640680302 -0.6939777671165854
Ni 3.0670374312683024 7.1801902330003315 8.425870471559529 0.28438714956667155 1.0654340396886233 0.24944225806037043
Ni 6.770420818210296 5.642270542660082 10.46685011269305 0.6383761185918813 -1.0604427571216188 1.6799325803319585
Ni 5.6978351500895945 3.686838300023877 12.637073859343023 0.6516723214801552 0.9369467587477863 -0.3487722007109606
Ni 8.70203439648525 8.97721500739714 5.5036352358879395 0.4086143696795737 0.6733806596915242 -0.5511465587492509
Ni 2.4961536725828184 2.163576249290551 9.535830358559869 -0.3285139646825568 0.20823904434918333 0.3073118766836449
Ni 7.680759674048834 3.383769504206603 10.969390785299243 -0.03784355321033483 -0.0811211329520474 0.22242870558600403
Ni 1.7913992607034475 6.174604340896955 6.906781060442946 0.18614889731836326 -0.38703252974373986 -0.507376612752152
Ni 2.8940920152026925 1.33539199031921 7.485485295938807 3.349533953941238 -1.767425935358937 0.768658800870244
Ni 1.8918759070792994 5.9007955819332 11.978999241940475 0.9241259528340342 1.5136894207985867 -0.9600972287223207
Ni 2.037375077122146 0.9689325860260136 5.373112269729905 -0.28548886727128253 0.6023683330387044 -2.514803201142585
Ni 7.669011465419165 7.814096317759554 9.357455539180062 0.939029352308428 0.08886503856352437 -0.832419845277289
Ni 3.9977330968875613 3.9366258393051803 7.745103213240407 0.9767633765240918 0.7121243561186252 1.7268228171255935
Ni 1.4508577304639507 8.565926427698095 6.729106898333294 -0.7188161663165039 -0.5743438228013206 2.2941130755142423
Ni 6.104151917359154 6.837144382425984 1.875649384439072 0.04589907652495966 0.43275599992278374 0.26843628266437
Ni 7.261175533240595 5.1500795262612655 6.230299688579243 -0.6099008939703238 0.4964527667507966 -0.3494193473766563
Ni 3.095478039776962 9.070970499933134 12.643636651749942 -1.0955833095784937 -0.09009582564683193 0.4054516556808759
Ni 5.131545714371355 3.8394269063087663 5.633390333237419 0.5392225536181552 -0.38776143748996444 -0.7465141464524047
P 1.2078097591426151 4.301888325791278 7.52045371002618 -1.0426802909318753 -1.8684834022235952 1.2361552895980066
Ni 2.6805526713563506 3.2148383663247992 6.246658792884255 -1.4451890619343435 -0.0462564598643784 -1.9289709180856909
P 9.455834817275477 9.001567681241557 8.77197398677801 -0.2606134441858415 -1.3714655069979478 -2.9780221455409164
Ni 0.35708385503959694 0.8119457671530423 2.13455375458644 -0.5367463241635209 1.0073944711463876 0.5581016499108452
P 8.367744460022827 2.642499892150688 1.4966122154052863 0.5164456649329557 -0.07861173626663234 -0.5021670435267545
P 4.995640300905402 5.2191048554906025 0.9642314611621348 -0.664300551767127 0.7385020747812056 -0.9260347398209728
P 1.8718229302803802 1.4270574802228093 11.668188229323286 2.2896876927530374 1.452774330480769 1.2699287865040259
Ni 2.8136315173855415 4.153700694212489 2.1001506539864208 0.29279234291123124 -0.011219008644271002 1.492323553528301
