# total energy = -340866.8607351158 ev
CRYSTAL
PRIMVEC
9.31731440154252 0.00000000000000 0.00000000000000
0.00000000000000 9.31731440154252 0.00000000000000
0.00000000000000 0.00000000000000 13.63683143522959
PRIMCOORD
 96 1
Ni 6.42740007276793 7.971316292696112 2.3503893883404805 1.0086766802929208 -0.6646800465937327 -1.0611984043407208
Ni 1.965366289787759 6.813844993456273 6.436816150423626 0.022324888749445423 1.7579020550289015 -0.6505256094702216
Ni 2.749474177372102 4.8694799297084295 7.255844399620657 -1.4744222477678477 -3.0010718282715283 1.829567698995004
Ni 1.1755096193876977 8.412500433874474 8.157074652693975 0.32918013751164593 -1.0844080096879647 -0.2934294622745979
Ni 6.795387394172746 7.466942127115485 8.615122200708914 -1.3062528177460406 1.1355048283637799 0.4667621816648993
Ni 4.606480103874939 3.3793525642294195 6.135456010602143 1.057827945206591 0.2324547223634384 0.05128193810342781
Ni 7.604549539441797 6.735765901080723 10.98801290266359 2.4413051319534342 2.1342562791231887 -0.2411594492262879
Ni 0.5590770485455546 3.1083118963052243 7.667226179835722 0.21029232733378622 0.5808813668095222 -1.3765694038834164
Ni 3.1409597650025907 8.980763422416814 6.59145747643502 0.11128557235056964 0.2959188043553549 -0.21455058838950794
Ni 6.692375169196125 1.631154232089551 10.775674108927184 -1.3983157944215725 1.5134911887448514 1.736432829411532
Ni 3.285480624410366 1.7090935647532117 3.844836260648287 0.6562306302747989 1.9564130734570435 1.4083204710427681
Ni 6.469160274680486 1.3133779165095374 1.4664641827933085 0.5085919732164917 -0.24449982645343057 0.446016978697748
Ni 3.289021203778231 2.4580192741979277 8.110532805171978 -0.23753625065140385 0.00944031947729342 -0.36371416673277357
Ni 4.452278555090291 6.663258562552498 2.0626520935025643 -0.8453481233031829 -0.20608343145876123 0.43520343302201175
Ni 9.134163682186628 3.852336698519685 13.032787865552674 -0.3229071600187407 1.1370297496487385 -1.1079713988302016
Ni 4.271634468816165 1.0158201725828584 11.61338450467818 0.5144803136764687 0.7077323976985167 -0.37578781006785605
Ni 0.9792869838949668 3.271756220702826 3.2057598212858216 0.33167693579157076 -0.4165457087115085 -0.592227902170593
Ni 0.09183610668253103 0.2438723116643063 3.709709117342305 -0.8281466718232319 -0.4364103088459194 -0.8779587102493526
Ni 0.2527759370430743 0.16485030709920898 10.165084425773433 -1.149459233661343 -1.0799384039523854 -0.0473023846303895
Ni 4.688025237105347 2.3692159532633967 -0.009381603593429766 -0.9134139657331688 0.11443980170883518 -1.122618202209099
Ni 5.481739275553554 7.080422667914133 4.480149436835276 -1.9589234985837227 0.6288290983333944 -0.5598343163312358
Ni 8.113675535226664 3.586262159024627 1.7290410025654808 -0.41906770380241376 -0.271273495002849 -1.4842065808481213
Ni 3.76737211100505 4.594311691626435 13.499766990888759 0.9584987738869494 1.1735664111221917 -0.9987581356276283
Ni 2.469237320405584 4.165743193774623 4.875303251037156 0.4262081715019369 0.03992177589560221 0.4511782111837133
P 0.9505430698163783 1.4969755913615919 11.652139872785114 -0.16186868461475992 -0.6136508479310594 2.8854783725742243
P 1.4742599795224998 4.8770176368363325 0.6115214145663493 -0.04487449191518723 -0.2957524539808197 0.2096364389173422
P 0.858700441013959 5.397799592592776 8.180025992580456 0.20936878707825232 -0.3782313865123421 -0.5739113632495922
P 5.8261537922196895 0.5607578920138779 13.023828336289151 2.3570415967176634 1.6624619343510207 0.34766174125560123
P 4.668058232933413 2.7472193873536197 1.991481789551414 0.38814633163320894 -0.38946813576842604 2.8365201975079666
P 3.3677525081425985 6.292326969883878 4.382631631998734 -0.16715358716278308 -0.3115536826791344 -0.1534264673846777
P 3.7655645520646135 2.6155005175549144 10.213795344023954 1.3872585081661462 1.0679197822249544 -0.201338203464292
P 8.442781704783846 8.486396052207468 1.4595498039804329 -0.6407322775288836 -0.09501434599437185 0.3389009643438357
Ni 2.082988063313886 5.402113509033096 2.666491382572059 0.8506952465477091 -0.4809523571223524 -0.06684996774501391
Ni 7.3836173868870185 3.6181180560212867 7.206547422311612 -0.16904463353790886 -1.2756062965047772 -1.3537094685661073
Ni 2.471361668026303 8.82947819295359 3.7264141298387394 0.5281822366435935 -1.9987282892854867 0.7993418317763976
Ni 8.792665484841919 5.9911913773328305 0.5526695316211315 1.276127716225886 0.5001569550752613 0.6948545132945839
Ni 2.2802635553028505 4.2311600562529925 9.892702996346513 1.417606010109752 3.8328743516797927 -0.6043010312850431
Ni 1.9432190341103504 7.18747860722142 10.142788093070008 -2.9274832562511 0.17011498378395218 0.801004307080485
Ni 4.284566900822999 6.0451106741797656 6.418556078199568 2.186298492431409 1.1687895585588388 -1.1132979532494376
Ni 0.5268102579959404 7.081624601436382 2.604770698607458 -0.2795946132740346 1.1039481366034214 -1.5142794889741016
Ni 3.0431093320517517 0.7896693923861293 0.028364699393661964 -1.219348759563629 -0.6822687062097733 0.671014987672825
Ni 0.6265856480452026 0.36856965353768795 6.0160928310658734 1.1990792106813157 -0.6207350084713503 -0.5273396861376402
Ni 9.260627586818293 4.992188956747331 10.745250283111686 0.7648875067532699 0.027761486383984447 -0.7798549266963795
Ni 2.3664114417114823 8.770993412184936 11.72166101213597 -0.8284935136396893 0.006899041112678441 1.3899615089196062
Ni 8.74111278578298 5.028861905147113 3.4170625296914197 -1.171323637834602 1.3386291771942171 -0.28044924796484605
Ni 2.8765530247360793 6.774069379452548 13.579474749773526 0.09688225244104605 1.3624237085106536 1.4822715686089376
Ni 6.540447045058211 4.93155187641558 5.079269506299972 -0.1240133043298832 -0.4306214700782842 -0.7368997632910922
Ni 5.87556350902966 1.625163199106558 8.424152666920401 -0.300205861766483 -0.442579927991741 -0.38233486715775444
Ni 4.639603155592729 8.272628914215552 12.873686341269181 -1.4776885772239454 -0.22591794968618512 0.30271680111379473
Ni 0.9225519947191673 8.683233630432513 0.21664246113118635 -0.2321914413997227 -0.05308351008854084 0.11297761534101189
Ni 3.4570030601551753 6.907101990543013 8.619636439402942 1.107986568338853 0.23736861472528795 -1.6063558353860723
Ni 4.677962537849309 8.347446946647016 10.31991768845582 -0.03591522583937041 -0.19344620231072493 0.31738443042829856
Ni 4.406195119423289 0.2626159524915013 2.2967421570660242 0.3160199459806041 -0.3223289189177675 -0.01719065284667362
Ni 7.074440952245267 5.351026675680453 12.820421119873892 0.34342841990054396 -1.8177570795133209 0.12114858118757844
Ni 5.699792378043412 8.739500890439189 6.628167694091304 -0.1604890306584139 0.28918637072752773 -0.5228847356900802
Ni 5.586847896208518 6.580576716998722 11.589329063067774 -3.2029661613496065 -0.8327175790233659 -0.6890430488191294
P 4.538827086006338 9.244545902636885 4.726294241414904 0.2330373343397858 -0.17891381302250478 -0.6021058234059372
P 4.36875815126518 9.021265786922363 8.3893646111683 0.45694570979510984 0.4872754711269027 -0.744255432325215
P 6.660780156994992 5.706836267522638 2.800746425275851 -0.139264831172315 -0.012369063088314182 1.1095433713030116
P 0.14861488723472255 7.528166198237172 12.130315614506364 -0.10698077432762867 -0.5555261758741852 -0.6005063401293013
P 3.4545432892259216 5.969332958393327 10.850267594088214 2.5809021496541873 -0.11254592712023198 -0.15291327519368506
P 5.234476393278812 6.405634826969687 0.09085778869930515 0.7129383673794882 -0.8618574338121158 0.034670040578359644
P 7.829739704552139 8.163681560140695 6.827592690449128 0.6011822831504033 -0.3330607035129748 -0.7062645549037384
P 6.727911405272539 2.115878182178527 5.637234067538887 -0.10314365996972559 -0.2818384150028888 2.609620857745118
Ni 1.9015520053390544 5.368645716692645 12.149843773182965 -1.7548815230350228 -0.6551520524986395 -0.8868992072720919
Ni 4.4729723097640495 4.38393605597637 3.5349805938067522 0.7351886941372564 0.03748514142965157 -0.5360246155061479
Ni 8.740795997102696 3.347673696201153 5.190505192724166 -0.4657823342501333 -1.0289426296308086 -0.12854718764449474
Ni 2.708571168359135 0.7165657457538421 9.839068809311831 -0.21564279301242215 -0.2117141473819773 -1.6274273113443907
Ni 6.730501618599556 5.216354217303818 9.361480058380517 2.3252630187544856 -0.47564714285935505 1.3036449478095484
Ni 5.886231833703884 4.470913183342212 1.0626722866652516 -0.10759321110064696 0.02945841447043314 1.3229685878388249
Ni 0.5839971369068491 2.046249893715223 0.3817899905510135 0.12610412542064087 -1.2084701649779122 -0.4310140775310125
Ni 5.322403886685502 4.130430573237232 11.369816869185792 -0.04390981400907277 -1.1309205514272072 0.5536194457697755
Ni 7.239021988966236 7.693977120422767 13.406436387020422 -0.9657647114207432 -0.3872762703234298 -0.10997713795179123
Ni 7.9815280689781645 0.5351185070020595 12.931779794844548 1.3137565823222535 0.825669671037649 -0.014787956942451951
Ni 7.852930499411656 5.926762150151813 6.75035401980774 0.44103572343307273 0.8031426935797265 1.344131337959369
Ni 6.893396221463725 0.22670516038722383 3.9147524541180827 -0.7539551761114822 0.8287043440989147 1.0875774085548817
Ni 7.674587789726643 7.267253450767896 4.617171721834478 2.3864496175661354 0.31804751793359415 0.18891746120243594
Ni 1.7136217794184285 1.1218418900221645 2.2483722525125125 -0.0721613526555983 -0.4767151791125531 -1.6845227708058021
Ni 6.750906536535409 2.750992899574634 13.153978170389044 3.0079983801880323 1.0488152001850195 -1.5922571912011612
Ni 0.46939883181459613 5.4380783415593035 5.420736024776653 -0.4273998778171929 0.3782444991384647 0.1501035736590318
Ni 8.964588565094145 6.837529605964465 9.113099098410657 0.3316129153228547 0.15587210071169286 -0.33963552851701506
Ni 8.118595077085171 1.0274668152403093 7.197696905623363 -1.2858580561397726 0.6854141938172905 0.49691633665077645
Ni 7.988730352797532 2.843597684672557 9.174600825493298 0.7629620075957828 -0.4032669893247313 0.9759581070139773
Ni 4.523528056211512 4.71754248825639 9.238121614547035 -1.3954251031373388 -0.4693425407975659 -0.68292973683254
Ni 1.0028318366912694 2.6642580223760666 9.930926345816852 -2.388278700355074 -2.622797761446709 -0.10435259267616222
Ni 6.467846533388725 2.6123792173227174 3.710350148554171 -0.34247274085549406 1.2690702951584725 -1.8671888517818875
Ni 2.5849769964782676 2.908893422067289 12.030166600160651 -0.38196899917790345 -0.24079306702580466 0.702798450732009
Ni 2.7346130613411948 3.027614638660279 1.0362735405521672 -2.1131264391231093 -0.17441361115930606 1.4526257207180466
P 1.3840497441549489 2.288956609382372 5.128716492366446 0.48183758794078313 -0.29293555335731486 0.058600583252028104
P 7.548142519723231 3.8720707698384698 11.004472869798512 -1.4097924276026044 -0.8705516191520039 1.616019069507449
P 8.541452061377768 1.982668542119668 2.996284238180324 -1.1289968520419331 0.39133989886984216 -0.3833345120668624
P 5.838219714012809 4.955143315782512 7.530271911229638 -1.2098727017523938 0.7374258109978913 -2.2140826045232127
P 1.4536966672465046 1.098036152430335 7.906116523636877 0.24978267211892466 1.3736172632336279 0.5080260734106928
P 7.30507242880517 9.25862436428121 9.970118695956291 0.7871943977805862 -2.228021583201808 -1.4892174037991515
P 0.6989168893364475 7.752666882102194 4.533864684502852 -0.032277629086783124 -1.9184270811315738 3.289416934044683
P 2.7113104587121675 8.350931622130126 1.4794869927471637 0.3019498410407832 0.4409251659971374 0.4487266643194272
