# total energy = -340884.8422324081 ev
CRYSTAL
PRIMVEC
9.15457694582871 0.00000000000000 0.00000000000000

0.00000000000000 9.15457694582871 0.00000000000000

0.00000000000000 0.00000000000000 13.39864871903917

PRIMCOORD
 96 1
Ni 5.093661452444633 3.5454302714385175 9.335105957974909 0.24442089358637903 -1.4164459283633797 -0.8580208336748448
Ni 4.541182743273572 0.31137370484116644 6.207379800773114 0.05083790858747374 -0.21203939193187998 -0.03589774233787366
Ni 3.927414142505157 2.767327862744175 2.9715390071597323 -0.9367510977972124 -0.06623701675136334 -0.20404223265901636
Ni 5.273063693764025 4.612103249652167 3.3695324021136686 1.1238227640401612 0.23552513375864598 -0.9873077276988417
Ni 5.035749599682146 5.048346297342781 12.4138615375633 -0.08257612023101907 -0.6725458224950546 -1.3313915217951973
Ni 5.6996852812501855 6.045874757074757 5.341331203789384 0.8265204490737185 -0.24601420621542794 0.8397413186393667
Ni 3.788511748896996 2.749897548539342 7.331592955931648 -0.5576303667013814 -0.49719350157156306 0.21414101165591506
Ni 5.4875279641824255 8.303246919829306 13.266430935684006 -0.16539855214488933 -0.4672743454146275 -0.1060369223571206
Ni 1.6897609381525052 5.54650174785235 12.082137208521848 0.543906846467702 -0.3163786148716035 -0.4691453371850952
Ni 8.227501951483301 7.445096891698481 9.373037946897034 -3.2449003396895475 1.123439926779446 0.3375290236969735
Ni 7.969178103672381 0.4165112728812143 7.425504266456262 0.8723359647459363 -0.8591940280473397 0.8703148205508495
Ni 8.701580865039764 2.562420970492711 1.6017552451139938 -0.6885409123717303 -0.8517326866732878 1.5460331272366148
Ni 1.5016618488842735 1.494951544098484 2.945438393278745 0.16364763089205364 0.1111891559820214 0.10392861776486619
Ni 1.7136726927234218 6.782452005457584 1.1881249175480426 -0.17274136566320575 0.8775524759498693 -1.6759239733931974
Ni 7.573114493505408 4.030293276451543 4.584655997525627 -0.5746616111520555 0.07201711376825017 -2.237640594348811
Ni 7.4674249044850285 4.291171251186386 12.927793070252067 0.4169357450610755 0.38035306084103526 0.4320317201622495
Ni 4.435456535946039 0.283447668348601 11.261604251871631 0.15414457649762484 0.07690272399532562 -1.7211221671963908
Ni 0.5449499852204023 0.2288744897407891 0.793350271792856 1.3524203174410387 1.5638866104782678 0.7439502423799703
Ni 3.1264893738777007 4.549604953918764 9.947397925507378 -0.6129643633869959 0.6026398415325364 0.1964425659348875
Ni 0.15460981646144525 5.053683415610332 1.9328085436768674 -1.5193335064582414 -0.6764189322972157 -0.7713515172110587
Ni 6.10060997169172 1.7896648346427089 7.321584257129051 -0.13772551170965314 1.3272253062326498 0.2717082685474224
Ni 3.394709319196722 4.879627447135281 0.9278685385771227 0.2324092138374836 0.013891927490743817 0.36538538378760943
Ni 0.6092727881077035 0.2397592815420218 5.163745230504782 0.48546412894977686 -0.2898288894075331 0.9515146292596321
Ni 6.84073919586839 1.0998766282246426 0.8698413381471028 -0.42093792424193305 -0.4177708393678612 -0.7182353541123695
P 8.95008185195689 5.9631814649464685 12.985246278717462 0.8902275003143766 -0.35025521301439033 1.8370704351299523
P 3.3717130223046308 6.593171975783667 12.993942211208623 0.2934299764952301 0.4354489733739145 1.7063840896552676
P 2.2119746164616028 8.558952558678785 2.3614716017868087 -0.3215925549723752 0.7971265692926336 -0.6697962847743755
P 6.400825162885686 7.964847988851538 6.661325969056852 0.002923344294382062 -0.012201941382830598 -1.9301304856114305
P 4.770211945362083 1.2855222909136226 -0.27955880412895123 1.693066032390123 0.030203520166573787 0.7852961523166088
P 3.902989731634099 6.34200700702116 8.972740344965494 0.07372792581176979 -0.06085389806257906 0.725226697828538
P 4.84468442753452 1.2748114360713667 4.26432087746644 -0.07616198917455916 -1.0444751780487689 -0.02626973232980637
P -0.14382389408952576 5.686035807258901 4.253494674956652 1.6316153812838092 -0.4251087677901711 -0.12008543003038674
Ni 2.7695707340572975 1.7408251674773798 5.14879214477885 -0.09862597460503014 0.4147899023626663 0.17529755642615616
Ni 2.0179433614345825 6.36622086262609 5.6503704915495465 -0.9517946223938961 0.8293345214837458 -1.5840101207010204
Ni 6.673118894875479 1.256136099423331 9.686405518562681 -1.1299952113994602 -0.44483864211893065 0.5968993395043333
Ni 8.949486804465653 2.8918209524876266 11.14854614399439 -0.281760767687418 0.06333321284100706 -1.1433358943724243
Ni 3.2165795640508974 4.385976048405532 5.253945275599438 0.6997779187381303 -0.7940049929445164 0.019360663914798914
Ni 1.15024510971361 6.863662256146174 9.793206473205155 3.453212917589143 -0.02756916786752026 0.6246207166790018
Ni 1.4684856626036449 1.3538612066379305 12.303912323963345 0.22542224099668923 -0.09512696031283617 -1.2055133963424334
Ni 4.09564780014288 7.302743222641148 2.1609341890363774 -0.36926954933336403 -1.3024177602706666 -0.5923883390078571
Ni 5.301287254002208 8.628390023617683 8.341650369456026 0.9967765864212252 -0.4568238395052649 2.046908448535139
Ni 7.330756227613202 0.3302321330249674 5.182209096429009 -1.2218969799067794 0.7416012825318197 -0.0758665694213274
Ni 8.287867230825041 7.294595649299603 5.482338234601165 -0.8532146705354532 0.15274358238504018 0.5024735190235798
Ni 4.876093780495015 4.823848610764456 7.278815905289691 -0.061199197217139754 0.6363403191087751 0.49459231650329016
Ni 0.5985216531275792 7.8175508483285485 7.366577171127957 0.3476694545650851 -0.5211312433340831 0.1215779554155132
Ni 6.49186742904486 2.3409442942545096 12.005001659961708 -0.4288350676018228 -0.5059627631237609 -0.3462512340613198
Ni 0.4299923026595955 7.6391281467255 3.4843857224990895 1.856430584824119 -0.1969490732576608 -0.5709913613893198
Ni 7.145366893074293 6.168024275160415 7.646420682595022 -0.6811757302559107 -0.7357525370605265 -1.1098107660317853
Ni 1.9861861345561334 5.63516382404658 3.199075097774079 0.7974327876791427 -0.8484671285481388 0.9080881826448811
Ni 1.6903834493741066 1.4569783595808108 7.594822741443393 -0.8626166805756434 -0.6948552846255323 -1.3820502244923294
Ni 0.8237755077486144 3.6767709846195813 4.5584345432310345 1.3487878628947738 -0.8200158151859812 -1.1257312939167838
Ni 0.7529749263259454 7.851724883479096 12.135209951994064 0.12319749329680718 0.2500058438733243 0.1856606448280351
Ni 2.1986272435043297 5.548442518131459 7.804350864057567 -0.9535455436467319 -1.0082413925277154 0.6385537818203261
Ni 6.691693531178845 2.0190510652259612 3.1960064836346564 -0.4496885140120643 0.21480435627152686 0.18802271730230843
Ni 3.853591635284686 7.14443312624189 7.075706056461761 0.9405347332093609 0.2579976038295492 -1.7364284585361578
Ni 8.341128558579095 7.7395904723997875 0.855373444990948 -1.1996086008222244 -2.5346096943455514 -0.9549527084069037
P -0.06736578421171649 5.7053245005517494 8.445503550372683 0.9526559419529271 -0.6612918468477902 0.3211266710795502
P 8.55389007771488 1.8812380662556027 8.99070711737012 0.4186396151260596 -0.7312039984578955 -0.5267575883819251
P 1.9424730303922262 3.4420476357687777 11.333836609103985 -0.3058239792842088 -0.7206622183863073 0.7459122512023476
P 3.939315092329886 6.14048730818135 4.088650957103619 -0.37866101785059303 1.0132882109230033 0.32417677075978363
P 6.430238818106342 4.332037281969146 10.712192325924635 0.384045422090958 -0.5470582476124901 3.8753831715762805
P 6.44994862193145 8.216836869524986 10.605579955564 -1.158994683955604 0.37154420430015367 0.26266081363317345
P 2.307493470670233 8.45925921745471 6.174204529950164 0.36910345606914496 1.3983116806565143 1.312083822605521
P 7.022988510568927 3.8984856798542777 2.0774737433732335 -0.03426740582330227 1.5693836290370973 -0.5913976929598138
Ni 3.2126797143391017 2.311182765115899 0.581331188834598 -1.6135636659884212 0.12714979307633587 0.4794549466412194
Ni 0.5863945852561807 3.4983849013236856 8.483648840933974 1.7319897060385139 1.1927722946266814 0.5785995127538809
Ni 0.438095934032557 0.02342381562810265 9.457918267420036 1.3591926031678656 1.5021243416688066 -0.06428400679005057
Ni 2.3956886634482615 1.5384907113034147 9.812969373575635 0.4485394880092856 1.8878471514621873 1.090417706217154
Ni 5.295712116738162 3.397721174960057 0.7863387814307331 1.0803400102661782 -0.5670472891399073 0.17009570051024253
Ni 4.272898715917033 6.9319096261026 11.159144397542148 -0.6878150899492993 1.3458313513696112 -0.8653885868938258
Ni 7.21444732951845 6.777371215340104 12.128765129935136 -1.6339995652452697 0.761478738182037 -0.06571354014772554
Ni 7.566303488374949 3.959015741578206 9.03529814544802 -0.48876054031286154 0.23678291742514704 -1.391140359719056
Ni 3.051806336439134 8.906972949861006 13.584220167938382 -0.33750459821694134 -0.6721694129922423 0.035672256590628885
Ni 8.70364979939391 5.520081639241453 10.819797052409116 -0.6313328385918546 -1.673389894117434 -0.3986739706374101
Ni 8.580658060243733 2.5734796992529203 6.260706126022366 -0.07511195064348998 -1.2064328228329095 0.6042023009236497
Ni 4.036033196097778 2.7763085025734515 11.525343031852804 -0.20271065833178636 -0.10092531216216812 -0.11857464981281514
Ni 0.9400010991945942 3.4708113160374685 13.509455654766398 0.789509161956692 0.8366577946180366 -1.815545416573983
Ni 2.8045869902723646 8.607966162803091 8.766105984074086 0.4503742272251792 -0.7456276300823933 -0.5771308986281544
Ni 5.655523602823654 8.03247284758636 4.099852497261725 0.7680545916273418 0.4563947223876463 -0.530532224933009
Ni 3.369625778796909 8.480387980681998 4.2767949037981134 -1.419371329540291 0.010778321562426599 -0.5123596677890402
Ni 5.339388602594917 3.1236148367661896 5.300813962382255 -0.7131844219520234 -0.5333612097413718 -0.2373717000490815
Ni 6.011618330733114 6.216177349066625 9.808038718517484 0.1873082077337871 -0.22441462566778125 -0.8907514911386465
Ni 7.9489373343935545 9.005631823908008 2.750233521507471 -0.23547756835016218 1.5488181461809198 0.7447310864100529
Ni 4.804944409696714 0.44027563876583997 2.1930905554627946 -0.17121438749571802 0.5114417839604611 -0.3429249979015643
Ni 5.965506727450685 5.892462359257214 0.9032994853928096 0.548527633069165 0.09945644092612548 1.2675183772903205
Ni 8.14917539248301 0.13822678584118792 11.338097149141237 0.1735875157135849 0.4296380231190923 0.8732407359483928
Ni -0.1494850843753813 4.9580363973266675 6.345505886269631 0.317907135700988 0.6475582993117815 1.1729398332817862
Ni 7.4937992402119855 6.430055726570577 2.9431872828465133 -0.9219081192471091 -1.0246877110091965 0.46041309951842
P 8.687226488635785 1.6904749951419888 4.072398836931433 0.03670892538525936 1.5886992986465738 -0.3726472075563453
P 2.002462972085647 3.5824971528541534 2.048693584866324 -1.0513582783218471 -0.11994530490809664 0.9540301965926343
P 4.461208360451394 1.3577702109265144 9.014610632821926 -0.15999563596176317 0.9745607124458183 -0.6543920344041634
P 8.455341058589338 1.711503058024606 12.899964072273455 0.3220944343094582 0.12398065131973489 1.0175256460431186
P 6.343883695262752 7.858975308295393 1.8485846063095834 -1.1744400719763968 0.9758503777915194 -0.0818317858658268
P 1.7651671871573442 3.5897841959776025 6.725250547853864 0.48188515334926685 -0.8506805912596898 -1.4792240400318653
P 6.770065863063077 4.081494824428241 6.521926481929088 0.3945596913587205 0.23918252800557516 1.7886856160686615
P 2.285595722992732 8.840080457269243 10.892297638741367 -0.6054827102979702 -0.8102512796000497 0.6987451065982417
