# total energy = -381167.1099769695 ev
CRYSTAL
PRIMVEC
9.27438230068027 0.00000000000000 0.00000000000000

0.00000000000000 9.27438230068027 0.00000000000000

0.00000000000000 0.00000000000000 13.57399596598121

PRIMCOORD
 96 1
Ni 6.871631134288468 1.6984083943485757 2.1933404540912105 1.7670837215281698 0.11005118572283626 -0.6766297627564412
Ni 1.4190639932008653 0.43558714094901 7.29462459122956 0.23753290821729414 0.10954416417943069 1.4616510641451086
Ni 7.671314766060093 6.024982029495196 9.603832688310767 -0.2480302082041922 0.7681787759100318 0.34588510897115265
Ni 7.894113257055161 9.111477979467168 11.401233986675626 0.015490896546747514 1.4725386575918897 -2.1301083183930865
Ni 9.848466785483199 5.906260659007419 10.84839175511339 -0.44027262001480305 -0.3752882447236182 -0.7573297490106699
Ni 4.450275349041314 7.470941731969911 0.662971814094395 -0.148274490870093 -0.6868365280861138 0.7454458530888903
Ni 8.874137256699205 1.8250964594109174 6.656036056187538 0.20247051729652224 0.15867306049559768 0.17493477377009872
Ni 0.6307730129023424 0.6586944688816021 4.992299013407707 -1.2085059033118541 0.6058424076302341 0.5532556346724536
Ni 5.040738185809911 6.0462852861165866 9.159447868114455 -0.8608107377151563 -0.4589185172507645 1.391803190114035
Ni 2.4000525286257637 5.243457638674674 5.439439252647212 -0.9082347355250746 -0.536732697316766 -0.8552715530644819
Ni 7.163495951822281 3.9559229382054433 1.0012938684884045 -0.14399746076129394 0.23791060327168703 -0.045890848994843546
Ni 6.681274433307167 6.4090434835432655 0.6331973364899922 -0.5386383989799111 -0.19694418816165438 0.7239974534071273
Ni 6.674717444873853 1.160726068434282 13.160708625211353 1.755629714054957 1.672215414193359 0.29179192667117493
Ni 2.8443325482997324 4.460736852510591 8.041955261180512 0.7618080964969977 -0.09705194524969092 -1.0101856607382795
Ni 4.349295872291769 1.7952422221169437 12.994494996775462 -1.0251301978632539 0.1629277220068936 0.19381515561436943
Ni 8.152247145406564 5.414254666946129 3.1711163434152603 -0.24481658636290093 -0.3045188873195401 -0.43034456226781376
Ni 2.1019738748114407 1.069141541165569 11.405984325396338 0.23011064761129404 1.1337953018718407 -1.0072003528577105
Ni 4.301486430461874 5.462759687464141 4.142797108554905 1.3176952552550276 2.4290096024155328 -0.8355882157029416
Ni 0.8674543270739713 4.700210683255445 13.055170789459016 0.35635901191928304 -1.5288591865604897 -0.5003551871289964
Ni 7.036715142934858 4.521446960409426 5.369180240517909 0.17152831919171105 0.8039263658232865 1.0412656699725358
Ni 3.812021619207837 7.665824331615225 10.457257656964547 1.71106272607786 1.0920814670728223 2.1316298972439354
Ni 0.39325051223721774 7.826187679564928 8.872126570571423 0.04378768660891169 -0.5584178955996835 0.3378846072641794
Ni 7.876853631207356 3.7060432502863607 8.089178562035887 -0.0865657010063864 0.2189165786676875 0.9190930183958171
Ni 9.233315542477708 6.449210834186384 5.089067920498517 2.4911475093968583 -0.5125959521695623 -0.0020861931050673746
P 3.3006878139994087 7.98906438517436 8.497796726089232 -0.02531251062285963 -0.629094179069323 -2.3391104661605397
Ni 7.541000417437036 0.409767260046114 4.021146888071031 1.679088487164108 -1.082652974670071 0.24408099374845707
P 1.3848136985979935 4.174826188547057 3.9702444396746426 -1.1827982141331048 -1.6480200478940776 -0.8212566295716179
Ni 4.19867990035821 3.079994607833707 9.72846925996229 0.7926099123692026 -0.6969139669267739 -0.10098753285867122
P 9.047271429362732 0.7607636855758627 1.4881034240303364 -0.19160066446155388 -0.49608535610904886 0.15671362277638173
P 8.080917869535812 2.4016384480346704 11.921782818344226 -0.7101129821155513 0.26567363231756824 0.26493958236502113
P 9.161123749033692 8.289062836167886 6.759986117654466 -0.3274089045438361 0.26191390816481985 -1.188215271383618
Ni 5.90406263035297 3.1771530389898635 11.786952772877916 -0.19767052480471764 0.12357210302740652 -0.332281402144789
Ni 8.425952721989274 2.6910733773513282 4.2228702722544105 0.0012912080075977762 0.9727552838059633 0.43971057686374593
Ni 5.942634787204675 8.433464971820936 12.467050661711996 -0.5529501876168929 -0.7729034350792109 0.7654487785733786
Ni 0.6816151778124272 8.6246841903755 3.2401808150775033 -0.15190900229888676 -0.6225607488261794 -1.8070566623766813
Ni 1.315886487796872 6.241242080821966 3.251257210107076 -0.3547531008847439 0.11086673964559615 0.7052299429916371
Ni 2.8431639761036958 0.3456005897864638 4.135860797877005 0.3900096100941928 1.4992660462844052 0.3297758621141159
Ni 6.091303138811507 1.9825105537230054 4.455338234452553 -0.31829125851328405 -0.02197341894729764 0.466825430802667
Ni 4.006152993869985 6.4379517338214 6.593731681935538 -1.7982778877427867 -0.9886300460546908 -0.5852314162481018
Ni 0.623302497791968 1.8175285632842066 12.985875385672317 -1.691651154320467 -0.042864917684326174 1.88818833685169
Ni 1.832766373745219 2.5739379262724578 6.045382888698537 1.9112411049060956 -0.4186131327634985 -1.493933064107266
Ni 8.670369798611013 2.053533774970986 9.894451956273727 1.7144216152477638 1.1220682432428999 0.2265005616625325
Ni 1.9260759361604616 8.111263649102721 0.8713838829427059 -1.073251993071145 -0.4285321916494233 -0.8159609283903173
Ni 2.5211666898006624 6.1209718884553155 9.549904008901946 -0.9865651931058623 -0.12265087676471781 -0.3619964127107185
Ni 7.768844172516578 4.626117641397244 11.87488504831489 -0.10320870887970612 -1.4962280307890294 -0.45849377100852
Ni 6.927156862365206 9.335964408078732 6.338458940587924 0.8470267965571863 -2.7066051829816677 -1.8761260063705174
Ni 5.941225081063424 6.438999739044829 11.556792277047819 -0.8737940373487015 -1.3724625808038944 -1.442007321772252
Ni 4.927590719209577 2.5774065453305335 1.5693034252045912 -0.6347233523306424 -0.009925743754144196 -0.13444658384806524
Ni 6.247789794872772 3.890186114987151 3.3439407517030135 -0.34905836449281175 0.8810977700989664 -1.8151615508720027
Ni 1.4336711456513183 6.242067500865198 7.1049829451396445 -0.05342469547804348 0.42235588763538223 2.0884870433078744
Ni 9.02268504133343 8.748988739133228 13.208543107874021 0.9451519202663979 0.5218223558638369 2.7017278002847083
Ni 1.182864019481413 8.288821702222672 11.211061845906238 0.003628083670890526 -0.4852887797141771 -0.31876408438464454
Ni 3.619698749134794 9.347093667088602 6.572691817777382 1.036103409045306 0.40712827205235047 0.6978123103713273
Ni 9.712133362612303 4.2199831569796 1.7350551893915727 -1.2259557233571856 0.32859649709403405 1.7664990526692932
Ni 1.4618281709462866 2.615997250947254 8.34564584385056 -0.7631898073358727 -1.2731079555629559 -0.6238280455743773
Ni 3.130910967803858 6.385681314005049 12.535286931016255 -0.8252415823612949 0.2869510536391058 -0.30865733496794584
P 4.178758526730545 1.784363371434797 5.118157021235563 -1.5858816266921205 -0.1316379107546765 1.261293222316215
Ni 2.2681522605938005 3.2394490662976048 1.0049850727266776 1.8683918709510532 -0.4699254098842294 1.2990609279832919
P 0.17202681139204598 5.1101476645014605 8.758770430364653 1.9825401095613988 -0.2829650724081643 -0.4310356747975673
Ni 9.066645614422413 6.528358414511569 0.9935237908230143 -0.2954819739282524 -0.1118895244831557 1.5239283249177755
P 5.2110065742783975 0.22636541850773118 0.7916325403162359 -0.6859204440297477 0.5041107975166866 0.08481323709165393
P 6.7408901640700325 8.065958290550046 9.967290174178565 -0.9749561481120241 -0.10562811695447615 -0.670968964926238
P 2.4812219243377416 2.7906153248120984 12.613731513147318 0.6354373476785314 1.9248684658815431 -1.9401001952296328
Ni 3.3678899896540004 8.772239616081347 12.505844476305647 0.2880448009239168 0.28433135662807163 0.6640866359841079
Ni 6.701705897972786 2.1792294811049473 6.698414419620617 -2.0307873746035603 2.1048467156128203 0.7186040503056979
Ni 8.377447701471262 6.311486253939256 7.119425013581451 -2.3441338875170596 -0.6171447200169308 1.3954752396489838
Ni 3.4024463388796438 7.750833321685607 2.9027175685037556 -0.6565520181699596 -1.9107842198743348 -0.10867744530376122
Ni 3.897902401233993 2.3918539744884937 7.6063106190599505 0.08460266374274462 -0.8684523134208141 -1.2494422365148998
Ni 7.322236282833045 8.540695382381022 1.9263263444881837 0.3464471521222098 -0.5334352575124168 -0.6762183862506355
Ni 7.443953278870979 7.335591393644888 4.466917301014071 -1.518266498646308 1.631413035465016 -2.631234322249836
Ni 3.229469830718756 0.6515160968202366 9.452292987879389 -0.24494694129317812 0.43505250926644434 -1.7354483540110757
Ni 3.657297095823134 4.517950518203825 11.297541753042426 -0.8493310192103308 0.019852773059869034 0.29726734796344934
Ni 7.969857138999828 0.3309971470890141 8.356409692189606 -0.09183800514891925 -0.3539642864348614 1.3554133386310914
Ni 5.537826539485708 7.528257415870736 7.559345146038303 2.1933985938113 3.0537046239758956 2.747688840395855
Ni 6.52161593842809 2.000131880488631 9.846535859044986 -1.6132157957306994 0.5807116740008773 -1.1139019053820236
Ni 3.661331452214212 3.3248846779633654 3.5471025926134185 -1.2770908514701038 -1.1961736069987465 0.0033334352486071627
Ni 5.1389260734244795 9.277535798276922 2.9025821625191357 0.5953656764686263 0.99633795622191 -0.211251605923262
Ni 2.252460005389885 5.945565492077273 1.3517542347091778 1.2268612658905902 -1.566273622653206 -1.830213560109119
Ni 4.9160626617518535 0.6826826592391236 11.017239308181615 0.5155074693894025 0.21820952529833385 -0.5701292704993407
Ni 4.380745303377157 4.818950602508239 1.8366838729166926 0.22291747229696446 1.2646634243400285 -0.22522683715643146
Ni 5.485333534489159 0.5137887342583558 8.013571940952342 -0.43769328932340107 0.9843437599745112 1.9623320100446402
Ni 1.5256730201329016 3.7578128534472675 10.181800149526035 0.2411890169126427 0.961147781474022 1.6658331648160989
Ni 4.283345738275788 3.9727466680753616 5.8442437906131754 0.10033987197234333 -1.552893087581242 -0.43093154511953524
Ni 2.7885193143652396 0.6400752185580914 1.7584980460576107 1.091566475109617 1.551774400595766 -0.04312099955919025
Ni 8.1074055059793 6.731736348534415 12.35311023540721 -0.5171568320673673 1.6230083563410886 -0.3622486379308406
Ni 1.9519236402108824 8.143798182941572 5.681464466020079 -0.6451697444749469 -2.6783425885915486 -1.1343002665327175
Ni 4.978265945234513 4.980389778828896 13.095540321640815 0.5198747452191628 -0.4830436924337423 1.1647146171585168
Ni 0.9314262353009489 1.9350999103409636 2.9277073921721652 1.0059970765782287 0.12338929759263911 -0.5485931961997778
P 6.286167189691804 4.389157168312116 9.691005391820319 -0.6028133909959232 -2.2341829748175135 0.7074300359667495
Ni 5.6495735743273 4.534941186958892 7.471018709344729 0.7146576640634401 0.08562287747714287 0.6038472315770761
P 0.8944641112526726 6.76993753008579 12.789731470005885 1.98728122379081 1.5842505188466005 0.730855099758909
Ni 4.9750941064167 8.273444776024036 4.964431348846995 0.3000665079751413 -0.8251112274310176 0.31156319576083114
P 0.8342381261207666 0.6537196901041906 9.445139656650795 1.2324125347261226 -0.7596589113644788 0.6525017593599859
P 5.601940345765061 6.845672137647949 2.732961125949723 -0.2742752579436502 0.024511354877802947 -0.255937635976727
P 6.239350106790289 6.674448487781115 5.91871059008646 -0.4603063987372266 -2.643692859728163 -0.3444308930231294
Ni 0.14147235821870163 4.038891564124016 6.315017011360136 -0.1849350795159202 1.7606459363226257 -0.6165171137352609
