# total energy = -340888.4802887147 ev
CRYSTAL
PRIMVEC
9.08120592173787 0.00000000000000 0.00000000000000
0.00000000000000 9.08120592173787 0.00000000000000
0.00000000000000 0.00000000000000 13.29126280882273
PRIMCOORD
 96 1
Ni 6.315424707563913 2.030630275277848 11.602926839422427 0.07347852880512507 -0.6478580899403874 -0.24629239957747903
Ni 4.959310077193838 0.2713745822115285 6.134914854737626 -1.3323117196166216 0.017938843866607816 0.005018279150197809
Ni 2.90878287992244 1.4609843954004338 5.169158581724627 0.007649289015141666 0.27746265453269636 -0.6887288600128202
Ni 4.030738617730355 4.59816868338302 4.791300504205124 -2.610231237635608 0.4471608624942041 2.049410903242019
Ni 4.621816143388134 4.648941705229637 2.482794411455509 1.8230646077691637 1.007089024090827 -0.7074210371056848
Ni 7.38072280214145 6.222360510124432 2.5401594806207566 -0.61601574861881 -0.926542789805643 0.671632823762482
Ni 5.014396671814047 4.80631900242189 11.557151205149086 -0.45471373514079755 -0.583664328871298 -0.4248963946690489
Ni 5.6626767130525515 7.9203643779263535 12.737575378631705 -1.3848375574294796 0.2604167547940031 -0.7462259257880245
Ni 1.807841052426289 6.557720360557939 0.320010796324197 -0.8489204140354734 -0.045610341639947254 -1.0338909747750193
Ni 2.6286276797850494 1.5929524786547795 0.3967787698853455 0.4210353690517458 -0.4905880804399035 -0.20721317418783022
Ni 0.9926938538936326 -0.02501327336332021 4.63431733134629 -1.1755870410966465 0.26014087542479714 0.09779627961488319
Ni 8.626300995037543 2.42868677082476 1.3897877416215962 0.088560362838912 0.050835851704944715 0.05109681867581523
Ni 6.962378892749904 0.53374696507472 4.893696548764902 0.6910094285168809 0.4041103111616331 0.32890348681149156
Ni 0.5591180379481022 7.297838636447642 2.3033361622653943 -0.11743153734730745 0.33790697586168256 -0.3740852255544525
Ni 7.744216228264604 3.861237910742855 3.748959697988927 1.3240695342124873 0.3604550363655276 0.0668463682005881
Ni 7.275344489584099 3.8628997714114166 12.61619961386813 1.2511864728995161 0.3005928127922565 0.8512503477202307
Ni 7.8853381670048 8.562360224724175 7.237198884456801 0.17049242172802898 0.22092435312633568 -0.761656658520798
Ni 6.959009765383584 0.6997568565376562 0.5001873688961875 0.5140820497967856 0.19225835265021082 -0.02431286571375168
Ni 1.5450854426766856 6.4529868136151665 9.059005923343099 2.3319769404395516 1.6747664627499865 1.4543846123906825
Ni 9.077882117800332 4.971487974224122 1.4504093312007584 0.057122970265237105 -1.2299509605595076 -1.2206749345742203
Ni 6.603208120606179 2.072894207253194 6.912160732580058 -0.9605471717755456 -0.9780702682609737 1.3252440141365627
Ni 3.5516686848924977 4.14975690145809 0.3505690539728945 -0.8849436262076178 0.5266930536925768 -0.30789346021872777
Ni 6.144561819700542 5.599017460120199 4.638517389046892 0.3585295372080406 0.7200981183527211 0.9196694597245775
Ni 5.252905461973152 2.990659031768103 9.56901824883665 -0.19530999499234103 -0.32088832981649895 -0.6406813696862901
P 0.06480984171217227 5.330386310192672 12.317199095373361 0.041071316119013136 1.8405457952730624 1.682992964424837
P 3.859685024544362 6.375278935249668 12.717040047867663 0.05924464459393022 -1.634868083893152 0.5584508057201479
P 2.0537237817267746 8.643146631869143 1.5855676420663927 1.5268565543081638 -0.9928152877806322 -1.6248055574508273
P 6.348725489376029 7.7269982619936 5.872744074644063 -0.017747039570775884 -0.9978572210799137 -0.8382583063359371
P 4.721001073563193 0.9122888573939096 12.812165679032628 -0.3104946452870007 1.0187204376821681 -0.4020377449033205
P 3.8974900844526914 6.1760554415506705 8.503324213684527 -0.20144490424548533 0.29072260486639606 -0.6025999894335364
P 4.757434871389813 1.1948324146669933 3.6986398283136825 0.7631862077914469 -0.6528938525920821 0.8751510655972282
P 0.13933929803397338 5.612820892995687 3.58632801509815 0.809170130720729 -0.10105001066549048 0.31234995332818466
Ni 1.6556582049740234 1.2695162514880598 2.6603256287665586 -0.8432357049458702 0.4916576593549985 0.48461463646528796
Ni 1.795817535895271 6.856464789048045 4.463272819366137 0.35586870254642583 -1.0046346490130633 1.281181990820342
Ni 5.922753367079609 5.454589962454556 9.152642236750445 -0.40499399931816704 1.5992667897497748 0.7415424042694262
Ni 8.655633289897956 2.443861465781959 9.821007180943372 0.12201761405609308 -1.1127333389952192 2.1458815220669427
Ni 2.4327642322465333 5.3683094257769115 6.9816873526050784 -0.19035547920054316 -0.8980426254834212 -0.43026511518013
Ni 0.12335092703358798 8.836721615536197 9.282205616698588 2.018875196547007 0.9432428761691433 0.7085152986111282
Ni 1.458823068410719 1.1399365253694074 11.325245359755616 -0.3872104500825009 0.5352018624945364 -0.08708274985212099
Ni 3.8845675285435988 7.074531784863252 1.561803034505954 0.7008068742232769 0.8331754924963909 -0.0007325072906503513
Ni 5.730849325286957 7.797577393775376 8.082482972687218 -0.2079351399555193 -0.13870664467599983 1.0436593670156928
Ni 5.533887051841904 3.023741864640081 4.767177189014039 0.957320694418448 -1.3264290355835993 -0.024993179610227925
Ni 0.6119688396907145 7.038715509033694 6.811665384402411 1.0049364965241985 0.8183942204221583 -0.34094216314358056
Ni 5.055298422913521 4.737755898336402 7.178305448348827 0.3748627271504254 -0.19759287748924678 -1.1316468880702706
Ni 8.018069071549633 6.96642002934832 9.225239212469678 -0.6383064416962104 -0.9845121672315755 -0.011610073435102584
Ni 4.494061739643148 0.49454612382891533 10.393528170589457 -0.4203763953115083 -0.648918927104734 0.7219323433479825
Ni 8.298178865657828 7.3850000500916835 4.765488992848543 -0.2888564981919348 -0.6124228890612292 -0.26699157979804344
Ni 7.446089321771561 6.215413387657492 6.999564614420004 -0.6024922602110785 -2.413454171179437 -0.35721004706566867
Ni 2.2181935006793934 5.501739583171357 2.3187142762333894 0.09652461199131118 -2.029356041473673 1.4389376817079926
Ni 2.236537536474451 5.318480849337564 11.439231747327886 0.3102408774049818 -0.5072768539494942 -0.22014967974384017
Ni 1.2624964793744065 3.2031047611688845 4.015729200719429 -0.3592826133239812 -0.05579499548243294 -0.1941969644338204
Ni 3.498116814059104 2.859662637538545 3.218771657482565 -0.49522455077065036 -0.39367677453313493 -0.8866567522439827
Ni 1.0184663160651048 3.2782154146643907 8.041479512082345 0.34724882208789876 -0.02266247459452226 0.1672967976088667
Ni 4.327921078816129 2.564323661238117 6.76049460574004 -1.7974412507741044 0.31097287047499994 0.968011598473391
Ni 4.182458323684825 6.891145914147709 6.309774381290802 -0.09301351351425917 0.4956930057666366 -1.00158454933283
Ni 0.4879949419365616 7.2661997153040865 11.251678511252765 -0.1636499448848988 -0.31076255423640675 0.3569053713410563
P 0.26599215151067174 5.226996781714093 8.049401047935826 -1.127992579147135 1.7868871294073418 -1.9050149214907257
P 8.521331336742952 1.3266642798337516 7.969627195241922 -0.4455061004996005 1.6598316958170254 0.3147184535603612
P 1.7093190502774867 3.223464824660231 10.539679281123366 1.459648431892783 -0.5258618160405331 -1.1404842838562421
P 3.82128060505065 6.349243118108861 3.725155133122796 0.4862349456775303 1.0131324020714294 -0.5569125146987506
P 6.95179020674147 4.082991876128752 10.331763257195147 0.38530860507409775 -1.3020601198209316 1.4850804988126423
P 6.236318323499186 7.784800137159709 10.357920762494198 0.2207160937702715 -0.060585989113173075 -0.0697835964520411
P 2.4784971848524293 8.563286507719768 6.110498216597938 0.521364699501128 -0.9384346561472225 -0.056336726918515885
P 6.893452540430851 4.170934273474959 1.7287410252056499 -0.20748879644672008 -0.4861696396572337 -0.11260043450725124
Ni 5.5141263479359415 2.7267955149061254 0.9310379149693929 -0.6414683843639598 -0.10433588050561385 -0.5433584301633998
Ni 1.3632978641888323 1.1189589398809998 7.111317025355845 0.3979743734672243 -1.3505328706103386 -0.789883257466659
Ni 6.86503744736019 0.7006867720155838 9.466940954601826 0.045025672781070836 0.04668506276136476 -0.49901024306532765
Ni 2.9086012558056575 1.7559964482906534 8.692113401874355 0.34365930496442754 0.5906757271921246 1.8345489542596793
Ni 6.752003678280446 1.8976087721461627 2.971607570038177 -0.5736082301868767 -0.23110026521807298 -1.7384030657640253
Ni 4.086951281874616 7.046552589672869 10.658848312868034 0.21793261748786338 0.1653808115330765 -1.4115312646705818
Ni 7.919047603079679 7.1544554774535 0.01343927652133952 1.2420860532601448 -0.5712551565736679 0.8393165723971223
Ni 7.6565099422702145 3.8623367366493904 8.239546060157437 -0.4997949437501522 0.5077854181547965 -0.9319158811920983
Ni 2.942746589760814 8.396473837660652 12.469198502467675 0.4992750666909401 0.8392232413523675 0.22888525984462518
Ni 0.09467520335534363 4.796438650468907 10.199914137737295 -0.34118230417884465 -0.41507220948977547 0.23085523908680242
Ni 8.605968175163714 2.326405149458555 5.9954093706367955 2.0641150422214127 0.5179924405947853 -1.4882534972239854
Ni 3.8654152654288576 2.6267206265588308 11.609293672836246 -1.1692413013842768 0.0193776331956634 0.12168105665228075
Ni 1.0196559540300318 3.419546221138887 12.693607812440938 -0.14202645307785217 -0.5599374175680034 0.18344898188869696
Ni 3.4456819315439247 8.653426556879046 8.092186241126338 -0.9479078857449804 -1.4307206931148393 0.7418393666845546
Ni 5.651034607166777 7.876465828899963 3.6151172538493834 -0.4727369111910955 -0.06884771490133304 0.17589430946989063
Ni 3.231592503886259 8.642983170164038 3.6580877036390143 0.5835637987376917 -0.5839836598839298 -0.41739982918168755
Ni 3.200979759002527 4.103833243529572 8.966750861343886 -0.2599578128797136 0.6385537818203261 1.0514788630601117
Ni 7.148688911745649 6.0236909699816215 11.40448796190793 0.057052264928301746 0.02487747996797006 -0.6500952068010224
Ni 0.5093584786731324 8.825715194059162 13.257369979055174 0.2440858788444635 0.8886462718701856 0.6119703749048429
Ni 4.9244745715949065 0.32953425688770044 1.6747523483713938 -0.6982967062069135 -0.006135937694408788 0.2505095229826202
Ni 5.867167306138249 5.623573040709226 0.36805219145440193 -0.21832162539616595 0.2190937276755001 1.036041445459119
Ni 7.698365219982799 8.939420972371002 11.584039747518188 0.6997802327309754 -0.32123157208853065 -0.4650128030739605
Ni 0.47887831939465153 4.792288539400422 5.503393270754664 -0.7774293479740224 0.460139277031743 1.7315788437533401
Ni 8.019821744276587 8.834078984637006 2.7336273060589087 -0.05559162122237523 0.44921388836849085 -0.3221785093828322
P 8.772817170046187 1.5190859503592353 3.8387691912556603 -0.5039984403085384 0.9937316289473144 -0.06353890109390993
P 1.7088831523972081 3.2152826581991683 1.622264794862347 0.8980454536968986 1.2043656558912355 0.09962099152844778
P 5.079935734355102 1.1115850007396202 8.384607425990652 -0.9030025405918577 0.3256050185658779 -1.7576626853245858
P 8.447601026534995 1.7454713307230927 12.490012626250978 0.37120301891065105 -0.27056335630970174 0.04987040246788186
P 6.513994354442492 7.771468926987855 1.5127318306335908 -1.3295449555047618 1.182950423440253 -0.42650950479243965
P 2.146234025610068 3.277034857905303 6.171266013591109 0.5931568417427656 -0.3612983582024294 -0.5742805736635529
P 7.189136602553166 3.985559618680646 5.944185012859974 -1.0729100363506943 1.3597988692932967 0.2186702669848363
P 2.1647142794927126 8.33647431068147 10.342157605398626 0.4602007263972977 0.7173704350089128 -0.7887843679755254
