# total energy = -340865.15499482444 ev
CRYSTAL
PRIMVEC
9.31521023817525 0.00000000000000 0.00000000000000

0.00000000000000 9.31521023817525 0.00000000000000

0.00000000000000 0.00000000000000 13.63375177944861

PRIMCOORD
 96 1
Ni 9.49322378272336 8.864735871313835 12.804724156670316 -2.9276475497431065 -0.9245581552754464 0.07635687879418461
Ni 7.71333863996517 3.91489404082127 1.7218606989370304 -1.0322575529366544 1.2329185278282637 0.6386129171930357
Ni 3.951745012045626 6.2907011204186265 12.453682326438866 -0.01170237603859275 -0.17674842994006978 0.20662824821863768
Ni 0.5824828832028207 3.7216127460957473 1.265509486807585 2.1962342634878818 -0.2925141495491801 -0.16177561068032137
Ni 4.534094687743768 1.5531063524505702 5.775583973742676 -0.36126313408911975 -0.25367300831226636 -0.8954021025367804
Ni 3.1024120991732493 8.311831574796733 8.749637135103486 -0.8162383504214201 -1.1840845370446962 0.5603495654047574
Ni 8.903533721452725 5.167827062449379 11.170936906351091 0.014110214149136989 -0.4487636882049498 0.1791423840935431
Ni 1.543847033593894 1.2982794644795166 9.128205411231795 -1.0344193364746634 -2.2576648599895375 -1.5036065826412879
Ni 2.3686902590676784 8.56276470493872 13.08268909505193 2.1398402009688695 -1.6432141418650024 0.7492168900955484
Ni 5.641989887844267 7.409886355181391 2.6322138272043176 -0.70577964484752 0.49713950840517607 0.23353818523560424
Ni 1.53347920473325 6.36689022396868 4.879315443172867 -0.055092827209085767 0.6353779551955058 -0.5487214942475259
Ni 3.8827472507061906 4.388879877223928 0.2925982019550068 0.35627108019116704 -1.4104876538974158 0.3675083436678832
Ni 7.148399091976411 6.504326834040508 9.780226337960858 -0.1611066096377548 -1.2511412214838775 0.3002392861075797
Ni 1.4373182906915338 8.885778930968996 10.895235564028 1.6060519309924082 2.4824312125697827 -0.628500511349382
Ni 8.195000209504549 6.820401228533336 5.418271144060205 -0.26491387133340827 -1.9955591475288859 -2.66330137798771
Ni 9.34175846621476 5.28310278765196 3.134072635320201 0.4433893112669138 -0.4890446472121835 0.2666341964586247
Ni 0.11434140962780705 8.651864689711461 5.38353193096946 1.0881299386242422 1.378408256864368 -0.3323456797238212
Ni 4.1049429576360605 5.23929335446992 6.453440635732295 -0.14034598005163573 0.31006475683843376 0.32559576259449735
Ni 1.6937473948027766 6.748711371469978 10.232607407538275 1.168663831614252 -2.448622491550454 0.05982699945996148
Ni 7.023407602621403 3.8171309106393645 10.018666839814427 -1.4231986737061812 2.474277987335029 1.497430021516931
Ni 4.976427440167568 8.238064425877198 13.346038468759374 0.3557116081432713 0.6688087240501256 0.5039943265434804
Ni 3.553873757512082 1.1659941656026003 7.974940480254593 -1.4724602389454706 2.7000648107599883 -1.5916290706988587
Ni 9.610222821797658 4.85591656687902 5.787323001532599 -1.2525149619029525 -1.4733498406392755 0.3609440601868042
Ni 6.267534192856702 0.8177291995071408 2.33668878623043 0.044301135910220474 0.03340994291901343 -0.8716456235471312
P 3.0462227517452116 2.4204083056393735 12.535443788681134 2.0446996138092786 1.8887187554338634 -1.465422358262083
P 7.5259445580338316 1.1138010433149188 5.9423523174321105 0.6955525678028731 -2.017647494787493 -1.4261901522343372
P 1.5289520126162033 0.20239715934639058 7.111023674422447 0.044882719445303344 0.37457039272098713 0.16068160628519423
P 2.6832928503619606 3.8666039915727706 2.2053415290123337 0.43337640711560205 0.5902178137190995 -0.02318569408784394
P 7.749043840345088 6.61241121703247 2.7401929483219547 -0.5820697306906686 1.4274402225913545 -0.9267693039941524
P 2.6704937516606804 4.754147896346642 9.8130289188682 -2.681398601809053 -2.1867075549443693 -1.4447817991935956
P 9.009941366623558 4.393220765138627 9.161935787066827 0.6460791436630938 0.053944829647571614 -0.35090261679040213
P 3.4332324712818907 8.080171614387602 11.096401252596873 -0.9778424685208836 0.8398683311355343 0.28730303766188586
Ni 8.234133407207663 2.196815317191896 9.216388779328986 1.1037761298019313 -1.9759763403009518 -0.1872776116061678
Ni 5.001923170258838 0.3737597646657172 9.390832856155141 0.5675062310541968 -1.2537694031353441 2.0353716515401334
Ni 5.099490681028278 3.7227771473604196 5.039020994551304 0.676005756019197 -0.013584166442337895 -0.7138909611007447
Ni 1.9252583118500275 3.5326630240748074 8.081896791301341 0.20553064427908474 -0.4356654602600948 1.601572555064816
Ni 5.972083673563754 5.745938317544113 0.8789170886841646 -0.6617806135587506 -0.07278973026821657 0.6700325691548976
Ni 7.114109803534334 2.466481334879936 12.142423895576721 0.033449280797381103 -2.2412951603822626 -0.15814289902374054
Ni 5.3559104699294044 7.502358446016625 10.832819930157505 2.1890624283297915 2.561652814506272 0.6580288598258023
Ni 7.054334100211105 7.03725000485583 12.856600561814005 0.9420357432349196 -0.8074477487129835 -1.5605030387180157
Ni 2.031200196514993 5.663070208339899 0.2471064418257687 -1.3256880436525167 1.6244720853708086 1.153078061360853
Ni 3.273420726508115 8.905117307172679 2.7375483601696304 0.6579931214918604 -0.2975655959301585 -3.3804895217824877
Ni 7.271303974265125 4.493368589110582 12.954531365778024 1.153068805389472 -0.2896697381218495 1.1832229603753495
Ni 6.250738869015065 1.4865678065821233 7.526866763835453 -0.42321592164283245 -0.26543426261325254 0.35939497053212943
Ni 8.720769298949723 5.918316280766235 0.6481579090933866 0.7545521862655328 0.5802938697371683 0.45567481350248623
Ni 8.923859509928846 7.6831480439747395 10.501955776561314 -1.6539037603683646 -0.6187858551647795 1.1663387830255008
Ni 4.231518032711024 1.7855953665601458 2.9375142496753845 0.7961441507747062 1.2030759905455344 0.7825836384814522
Ni 3.45332537950508 2.5344730535266944 9.911791571095701 -0.6883010284467823 0.20707819127186272 0.40675263388048655
Ni 6.944600925028366 -0.17025782139940532 12.051295989561426 1.5245327912709938 0.2543553790912716 -1.8531994794813307
Ni 8.142136392088416 6.121415806955476 7.59814395709061 0.7598270615112269 -0.15363678362327088 1.1852790715734296
Ni 5.9750552255911975 5.130007309372816 8.220197852872063 -1.1160575182724455 -0.09072137504597279 -0.5872656730693112
Ni 1.98786583904894 1.65558297895187 2.9419725092375626 -1.743208457572469 0.7025097158469965 -2.1196367294378007
Ni 0.9576408609071567 2.7921224501633137 10.55540086308877 -0.9154934739700169 1.6231361401682047 1.8033159643873264
Ni 6.772362689958006 5.2416128417891485 4.088530488930249 -0.5188344768801065 0.31646011884181624 -0.6398362480771754
Ni 1.1957376315073953 5.653885411164163 7.835398632696237 0.7572107069343024 0.978758809687566 0.29451138248486697
Ni 1.5550532313651027 1.3973187784475032 -0.23170653645971573 -2.305810052236197 0.6097677108265692 1.2164184732907115
P 5.61133353134797 2.3753785799319576 9.38411100053444 -0.2970164082949078 0.7548653466305775 1.0442280950349692
P 8.772030900225667 0.534280396929425 10.514144728999906 -0.04400031684035003 0.5232377481541247 0.3918978282558412
P 6.821500423327186 5.063012318208617 6.205074777498655 -0.7973885647047686 -0.06865925303961079 -0.45273578547882026
P 6.240166105531839 0.8843590344347382 13.657746824270188 -0.7779278848769958 0.6850344418803685 1.4499224628542706
P 6.139086760548147 3.4662828367783556 3.0236929845553155 -1.1818877865036934 -1.2773597888607744 1.1415104111279113
P 3.5265988222883924 3.1675906243645584 6.824251204874849 0.5110805439663004 -0.015527406211637772 -1.5046535358485633
P 5.432462866674034 7.2730179729267235 8.400544978349602 0.1761061683703806 0.7003101370925165 0.1675474801670921
P 0.24412371154618356 3.3067039722575147 4.272762988547748 2.1175723907096047 -0.847861890863972 -0.8297883211917128
Ni 7.613190815993215 8.227174945249981 1.097642879845311 0.43328281896053117 1.0158276895154055 1.029972870667536
Ni 7.231714331266259 8.93092975440794 3.9931622992695215 -0.2397836519246838 -1.2503578063506338 1.7226491453638786
Ni 2.8385774030186894 8.320317731213665 4.799039756944319 -0.4354075786130179 -0.46415636861093607 1.754253916753353
Ni 3.8871440298815942 1.1150399662605304 0.407781706577425 0.25978966273296555 -0.30316777260828437 1.8304842972720023
Ni 1.886078538096326 6.845216948286037 2.52540749104046 0.19839994677157444 0.17795890530840316 -0.14626954462492228
Ni 2.2291763571396745 4.484724074121653 11.90156982278174 -0.1355963811817923 -0.49497952463937983 -0.3749727703657284
Ni 1.8656223366785594 1.1744989524397682 5.126440515418872 0.2391200501987559 0.01830394051551041 1.306647482081298
Ni 5.468829446972287 2.816323366048268 1.1249904737079157 0.5860310293312617 0.42767704273797963 -1.3007015489105083
Ni 4.461128646894329 8.781672142697156 6.869447672843366 1.0677444329893546 -1.9345442984084102 -0.621643893438865
Ni 8.171442043117693 1.8184314822239112 0.9051915703412473 -0.5608254765999116 -2.479392168633143 0.5130055289031552
Ni 4.804533867871551 3.4804699017871257 11.519443136388592 0.9813340266139099 1.3255574316119236 0.772127990365767
Ni 4.762112400997001 0.9990656002991465 11.911059227328314 -0.1208611318541467 -0.05858232841958298 -1.5365089897962636
Ni 8.700713651567003 0.41531678004137385 7.625207437044635 0.5132857791477354 1.3077062623631157 -0.011341393154748209
Ni 7.6436701834972824 2.9614357092568167 5.005195603573074 -1.4412488463396727 0.8679961997200019 -0.2650809930388918
Ni 7.206591209579686 8.174115508421382 6.809322649140735 -1.8988764126931557 1.2745855685497467 0.6517178300061098
Ni 3.644184719600083 5.50224310566333 3.694037861106279 0.22803602447045246 0.11064871009751912 -0.4907791134047871
Ni 8.793390677024819 1.2376374466153715 3.238316357180768 0.38343041421477836 0.5870090769738148 0.47506555932427225
Ni 7.94758822878693 3.691152009011914 7.419528529173892 -0.5551415388412569 -0.6062085327204012 -0.2800368430177758
Ni 0.5667094379110608 2.4941847697690247 6.694717619066607 -0.8633615291614679 -0.8318035518495288 -1.044341223574066
Ni 0.5113696376457283 7.814771962933322 8.379208489575742 0.32030108985446126 0.6720377725103845 -0.8144789445281522
Ni 5.024941054458884 7.229255115795271 5.1242868388397325 0.7357985598071134 -0.4377354554152461 -0.5301486163413449
Ni 4.307287951805795 5.742603472322092 10.070611245991975 2.009475757609978 0.10087003344420047 -0.5638547503445386
Ni 2.717992008049202 3.3622598853975707 4.400565808316181 -0.4405950363512283 0.16490207212444502 1.1204769874963798
Ni 7.171743008530566 8.898317203786991 9.31686915630213 0.2182249519173016 -0.2902027278071841 -0.09061698825762458
P -0.21485625287838664 2.887603353866461 13.074317515719441 0.5991598534037359 1.497366772379163 -2.2146680447130374
P 3.774783965445754 7.187746539512225 1.1665586673357133 -0.32280714410576666 -0.8182967756123456 0.3914643402628484
P 4.715201002845875 0.013980267344164242 4.233266497650056 2.142466068627491 -0.2462006111946211 0.34539557092924383
P 1.079772580756129 8.901586842538192 3.1655934433153923 0.8559739784481453 -0.5929760931905272 3.62314895259307
P 0.4448907091220326 -0.1334916185871173 1.2743151549315443 -1.6559192481364964 0.9890835886523417 -2.613868063057247
P 0.6296318192119407 6.661632787292707 12.29904797544833 0.35206809785341303 0.31440169365089077 1.4071076816815895
P 6.056870716052149 5.523062600275674 11.73609722481963 -1.6568469021570886 0.13981941812420437 -1.9805942986889373
P 2.792783830081648 6.962495443663854 6.522768155509885 0.35136592958006585 0.08371177649735906 0.8173033013508245
