# total energy = -340896.67611725844 ev
CRYSTAL
PRIMVEC
9.02151187310406 0.00000000000000 0.00000000000000
0.00000000000000 9.02151187310406 0.00000000000000
0.00000000000000 0.00000000000000 13.20389453468892
PRIMCOORD
 96 1
Ni 6.379787751534164 1.9016806014026126 11.302626574631855 -0.008306720093482468 -0.20622509924294805 0.8910625946211621
Ni 4.563856621730988 0.47794888016541615 6.032648088975309 -0.505863004321103 -0.7084811029390831 -0.30837785605431406
Ni 2.5830663815639925 1.5954543979337743 4.760030302412412 0.34184436324287576 -0.9163943885177314 0.5587300275234636
Ni 3.3917998251759416 4.488951007560538 4.834223217134535 -0.01342655781855107 0.1861375844644536 -0.449134184170491
Ni 5.293787157986695 4.500480499901841 2.7256143905903527 -0.7108069228587822 -0.5202588680314588 -0.4792685416620262
Ni 7.2966079304678235 5.918995982898238 2.567391504456783 0.17289177519814095 0.9922424459962976 0.06696001096031694
Ni 5.1634263095267405 4.604155715853523 11.557606981312324 0.2526113998169714 -0.7424608023186374 -0.9865613364511203
Ni 5.7790362456658695 7.7270152466737745 12.514163312019457 -0.96858546869899 0.6457125043522944 -0.3793161349360886
Ni 2.0093343041481244 6.232213858170292 0.14766410848391304 -1.2640340182861456 0.4327477723926676 0.984001546143744
Ni 2.7127415951116323 1.7343586182616586 0.2134183008773544 0.09825702130138562 -0.8873527498697427 1.1289253753740494
Ni 0.4543585284257666 9.084482157938094 4.672435931608126 0.37597575770894603 0.08157698954254339 0.25871699849407703
Ni 8.526916630033663 2.261287091400001 1.3813522664465054 0.7313425809182889 0.6428812055510864 0.04153488601899299
Ni 6.7921971512918375 0.5725935626009447 4.880832858903971 0.16762718436509197 0.8212023792949148 -0.10588368460870796
Ni 0.823414150096301 7.272475385856724 2.498494217281096 -0.29959753875852274 -0.10598395763199811 -0.32217311006619354
Ni 7.573405961779128 3.802450030092806 3.84000929101968 0.30931116650186086 -0.1713012907825695 0.09979428388151845
Ni 7.6509819435028055 3.79578313272174 12.49677344548026 -0.05899627602855001 -0.5793425615674925 0.10874609375816756
Ni 7.929214395222769 8.652541184691438 6.950134055494875 -0.3263187568034509 0.8896813980029193 0.380654394131538
Ni 6.71216731830303 0.8824644569194591 0.39553466155391254 1.0674842373494324 -1.6691750847051385 -0.47754744520586134
Ni 2.0227673355223024 6.4345844154473655 9.423342778930742 -0.1356308339641535 -0.40328807237065384 -1.1915700467884642
Ni 0.10919908775182237 4.923048122176186 1.3401293694947463 -0.19220384526319156 -0.9414060800707207 -0.34018831569669156
Ni 6.197273542178222 2.187779811590194 7.006739532564908 0.6371525305974253 -0.32866154600401465 -0.08220073916947133
Ni 3.663870584197071 4.213812934457998 0.5887889809507932 -1.0607101518503925 0.778924187351994 0.05795395080696471
Ni 5.992566413292074 5.572515792866887 4.816424676101549 -0.058572558227570085 1.2218668979997924 -0.4759780438362125
Ni 5.080681001424684 2.810372398020534 9.375174219886988 0.9368577985784059 0.6013180373973193 -0.046464719220442555
P 0.07783219266459625 5.519324958090424 12.369448335809702 0.9196712594967903 0.3283818099800667 0.7707840747433629
P 4.0504874811348826 6.124424832744718 12.632126798683313 0.47259164386248287 0.2822284513524559 -0.0358558333563447
P 2.2189762001005415 8.54485139589791 1.4644043059567025 1.7550108495240353 -0.7452972433261681 -0.924267363507905
P 6.200467157427691 7.667085342430212 5.884460732795155 0.4315005302491278 0.21455495926488213 -0.47943617758814205
P 4.679061330023973 0.9602407162096297 12.569989330452334 0.2802142491359045 0.27014426649441214 -0.20566125631967805
P 3.900811575474044 6.229696856321135 8.320724560271632 0.5490246273102415 -0.4356091531008627 -0.6837913135018869
P 4.572878133735138 1.0741102407260001 3.7792981238365577 0.5854124219106563 0.15878901724817168 0.08351251600235941
P 0.219407682696909 5.417634474779654 3.6561454634679182 -0.28826643001641966 0.42166374666436407 -0.16455394475640694
Ni 1.4032420631733729 1.1625751874386865 2.479057369668157 0.007858319702154207 0.23215673150704533 0.5195489864486279
Ni 1.7299290558676215 6.687493482971683 4.720709140191128 0.4191895740922587 -0.199012897765225 0.4730145903325145
Ni 6.018485217279995 5.659239587762772 9.020280567760567 -0.6995778869121824 -0.19801042464263963 1.590095407663152
Ni 8.476125517450303 2.311049751614888 10.146281643383233 1.0193202760496962 0.11682758521472138 -0.3239507707919066
Ni 2.4114411371970594 5.280760094652703 6.950569794524675 -0.6430904933484151 0.1698478461654946 0.3481649061442649
Ni 0.6073146558513135 -0.06014371407806103 9.102580213169619 -0.4690550914641341 0.07589485155610155 0.14523493271282084
Ni 1.4108562193048748 1.1437021843260065 11.408798945106284 -0.22168257144859888 -0.08959960273670375 0.3098007045437697
Ni 3.9448275325422877 6.908457376489308 1.5058383062893583 0.5524989590120872 0.6375379389613021 0.2906521566397769
Ni 5.37940130690607 7.915032578352247 7.882025572382666 -0.042612178243571774 0.1256680663244868 1.0467395486029134
Ni 5.216093896606963 2.9548068052069616 4.7110967191507065 0.29451652469118955 -0.41087514068929243 0.6233343937674103
Ni 0.8004534998945411 7.262163797635982 6.98854404500374 -0.008846908867668635 0.043601538740034584 0.29658780539792146
Ni 5.036737216452474 4.699982216361595 6.96803814821831 -0.47077130282429247 0.17941800635243293 0.4226865315019236
Ni 8.153940259246124 7.010211010384106 9.242118645791395 0.13062181078533633 1.2117560348180358 0.8730018804647094
Ni 4.624237601574759 0.39994798522634234 10.297598562077624 -0.7139043308371834 -0.8761288561294652 1.1619434821712828
Ni 8.073143597736966 7.136277619130085 4.775689842949214 0.1562541666414599 -0.23833020730760887 -0.18760414170765108
Ni 7.366668992692047 6.208757926959504 7.182483097161736 -0.6067039842995811 -0.409072797373231 -1.934391317770314
Ni 2.1670393554926553 5.231538725158066 2.553910659068983 1.2055416784772077 -0.1917302480608827 0.5009038605436147
Ni 2.6679317449870235 5.0168808685313415 11.374693118974598 -0.3869253147419143 -0.3370770237612195 -1.0410586961680521
Ni 1.07241419646922 3.1945534867172247 3.7919210234327636 -0.684513279269576 1.1252363565582362 -0.04824366549773627
Ni 3.475059359462234 2.84243485168328 2.8103561592989266 0.6668490292205934 -0.17087911564348637 -0.22851193566560646
Ni 1.014108164386404 3.2890808894966996 8.139356082940218 0.06433414330169565 0.3613898894749712 0.20028173717531958
Ni 3.6370676720327437 2.803137145393207 6.915618652718201 0.10934413235348266 -0.9613187598342476 0.08411621102462934
Ni 4.102713014126902 6.837584378184712 5.857023608336937 -0.3873947981791651 0.6741147096440714 0.13716012612448636
Ni 0.8823282320881966 7.245077053900125 11.294096735031932 -0.35515779252233026 0.21636681566264027 0.8396104494884573
P 0.20481899563499945 5.489328430676627 8.159069890971683 1.4911256765654577 0.06630078010976323 -0.6087181865161323
P 8.425406576962976 1.5943627949812722 7.920025985246543 -0.9111123141831856 -0.17831500309624126 1.0195714728285536
P 1.8173926147478472 3.1069275406209242 10.364476834866784 -0.45061668225328844 0.9786626504293339 0.20805803868662875
P 4.103326476943184 6.160519902273319 3.5893601122524026 -0.703306243606363 0.08319755586510189 0.528229030721129
P 6.87763086997113 3.8274035322962825 10.335414936096617 -0.39655435319124605 1.1136334822119853 -0.7431891958442298
P 6.3348967078015175 7.825124189718896 10.29741362108154 0.4482566666615442 -0.06631723516999546 -0.5604431535598284
P 2.338411997523472 8.534323291389068 5.959009997241442 0.30747205641059305 -0.3690396927107451 -1.6222156852364642
P 6.991229749127375 3.803018385349067 1.4932551013459712 -0.20645521297588315 0.8049000425904654 0.5418083120674605
Ni 5.421919692981625 2.845141305284525 0.3205072569714063 -0.2170766972454713 0.14521179278436927 -0.06926526205472587
Ni 1.3625099364746396 1.119542575178895 7.022676033520238 0.5729726534854067 -0.0006600021815020891 -0.14975904583541952
Ni 6.631226312601804 0.753601179452193 9.18544821383493 1.4127504817896637 -0.2903431100397903 -1.2486585642713397
Ni 2.6520989914197415 1.439797229814185 9.323072281609425 -0.023478542737914405 1.120971153523979 -0.6556657589102644
Ni 6.323791226524411 1.835408574220133 2.6153218955836275 0.3534148416892946 0.7012331631274181 0.49152576176282436
Ni 4.303928817867444 6.9124990138671665 10.484024499038567 0.06417242091285077 -0.08656981477144446 -0.05082402463040279
Ni 8.10209362975828 7.174943819579869 0.25608915050577935 0.013085372429048434 -0.9596192606446378 -0.05479895011775078
Ni 7.671433711216212 3.937619344450973 8.125095778915258 -0.5036770524133777 -0.8396207339011024 0.11795707083347427
Ni 3.1471003335754 8.282731364617357 12.392066168555305 0.1870647242644133 0.37266700505068723 1.0017673547675972
Ni 0.17042267681678006 4.865806628509859 10.272207516541949 0.19997191924438465 -1.1576217148674774 -0.014692054794535989
Ni 8.722512031795619 2.3862169896334584 5.8905475469443545 -0.9320554920937562 0.7359134881184229 -0.7698883024019709
Ni 3.7486457325000604 2.695366162991641 11.43944502138438 -0.23354435588319133 -0.43853583982935446 -0.18120800837332018
Ni 1.1030061436752896 3.5539795464745305 12.531948320784439 0.09471944046177236 -0.5800007639767817 0.20550364769589122
Ni 2.804273855905729 8.4476355825412 8.147396956589514 1.4976637347942916 -0.9787603523494627 -1.0918140723440488
Ni 5.766451236420081 7.8040499376772035 3.593043595603697 -0.5293438610518626 -0.08682152577093434 -0.5220462989491848
Ni 3.2854001125990067 8.304076262019175 3.74977432365178 -0.4645176086050968 0.23897066910508527 -0.5945688915989438
Ni 3.260040642355343 4.089893445569006 8.90465365270579 -0.27362451173352875 0.8573479759775363 0.9226267425806884
Ni 7.230823064933569 6.001669118904261 11.446852584890985 -0.5447277997071006 0.19747897761920183 -1.1195382777321945
Ni 0.40243882469068787 8.934851359837277 0.32199309999848963 1.188858818504888 1.0834176207502373 0.000340671168870381
Ni 4.696445783655968 0.42773063359431995 1.5959153971971864 -1.4165325745399153 -0.9937406278083788 0.047177429016751
Ni 6.00916599537971 5.483545641481968 0.41581050978323775 -0.12487488099923011 0.6013437484289321 0.6537258615750741
Ni 8.194618256872833 8.855822914680932 11.130513266465496 -1.1821726647339639 0.2014515891137047 0.384315387922893
Ni 0.19854724048971495 4.982671295011608 5.826667122594175 -0.5398833271306056 -0.8281960370039285 0.22911614490850862
Ni 8.061208137355475 8.723278860315972 2.541367148778414 -0.6611321813414743 0.9478734329626193 0.211405615002623
P 8.330428098583294 1.7066986624569371 3.6039632337335186 0.6336666289313538 -0.8808401455622056 0.6359554249655305
P 1.8078027474874367 3.276414686642874 1.5420957630340337 -0.6402195995585231 -0.14074810058606083 -0.6734853035901885
P 4.498802498669069 1.1403191173244507 8.168272735367117 0.7700572238796675 -0.6399450057408979 -0.7710414421698076
P 8.493825724002443 1.6184682750563588 12.447509674879203 -0.2328352456313087 0.02907120633434348 -0.8099887699672824
P 6.431327649613867 7.798510729306656 1.4030066017100644 -0.8056495191619802 -0.22778534191222705 1.0188893591598647
P 1.83909837262983 3.3280447998426195 5.94896183717122 -0.9550684080491616 -0.09626493057202132 -0.12083644926379834
P 6.832198535518234 4.0756935856744745 5.972597296470891 1.2228308045749585 -1.219210434213552 0.766355606658364
P 2.4874112897839993 8.458416289386157 10.331678225824499 -0.6391798454400992 0.0827113602573027 0.05605262001919379
