# total energy = -340854.03890151775 ev
CRYSTAL
PRIMVEC
9.45993411845834 0.00000000000000 0.00000000000000

0.00000000000000 9.45993411845834 0.00000000000000

0.00000000000000 0.00000000000000 13.84556980715447

PRIMCOORD
 96 1
Ni 9.422841860670735 1.5978869562833413 0.4101846416268741 -0.8561207884386547 0.4698583040917198 -1.1107703017315773
Ni 8.459498914940983 0.7476640124826839 10.715875813377636 -0.9524016598502757 0.6273036628278036 0.3882831143213894
Ni 5.588900782727763 0.33207018044427467 10.063126159335061 -0.25445642344551017 1.0446685250064978 0.7360428146074356
Ni 4.208270676726542 5.914473880320267 3.984035232938669 -1.537148166042159 -1.0985367357798628 1.0920963794711578
Ni 7.188660805995161 3.0731353247822444 13.488215500388803 0.3678366735415794 -0.40573807657304317 -0.10027765127584021
Ni 9.098801272428823 6.040858602072819 2.8029662241873585 -0.726068477003543 -0.7173503804042549 -0.1875684033737092
Ni 2.965169095039588 5.602542007934887 11.821028849669048 -0.23300031045426325 0.5646728753704598 1.4316563175552313
Ni 6.533399539405785 5.275956697376251 13.051706699688514 -0.65289796635714 1.6174293195914144 0.48119172682666805
Ni 2.9262414655476903 1.8390490604478493 3.5425136130724604 -0.34416709783878147 0.4624370719269842 -0.6116315035081853
Ni 0.9907767550922051 3.4925320503943458 1.2093021825589825 0.9154451372305847 0.5180513188571787 0.6977161511130952
Ni 3.2967114111519926 3.0003505905633716 10.446288498739918 0.772211808328825 -0.5358443811745417 -1.1588301333532818
Ni 8.128685013766825 0.2004900627945286 2.4723755774618033 0.8992060496639029 -0.2628706156511344 1.4754059518373557
Ni 4.3575957390666655 1.4056516321266328 1.1851708362477111 -1.5640159369672808 1.6061491186919048 1.2648061205654797
Ni 2.6652324192995858 9.053138169741729 2.5299591433135973 1.0575045004289014 -0.20841130826098944 0.0920282667828544
Ni 8.482921712175962 6.718975069841401 13.69817022741338 0.9647231575301064 -1.1154677072072465 -0.3518528965188134
Ni 3.993653148103775 8.653749205095693 11.577970028684824 -0.04673262816984855 -0.7114409568983554 1.4765580631639281
Ni 1.168831637788803 3.7335333356763845 10.562729883588721 0.025393243262124006 0.8604338139917116 -0.8223439490985256
Ni 7.456840482414557 2.7178864134069736 4.82527786114354 -0.06568114424789333 -1.9772071273842593 -0.1670188613571317
Ni 1.0027341120005304 9.142260210432656 0.7568760964679111 1.0682442554439087 -1.429536442998751 -0.3415152620382312
Ni 6.5954850879733 7.768696675325833 9.558012023373255 -0.8857262700099132 -0.4483150307033053 1.9391938813652798
Ni 1.1612258506414188 9.359507600780514 4.478308284235174 0.5113674790791 0.3865938995444245 1.2265203376114038
Ni 8.413069557578595 7.217532525365581 10.868896872034279 -2.0296630311911303 -1.0379862278903158 1.1523872059414153
Ni 3.5562352477208194 5.995526597084929 1.6791080598778823 0.1104147397098421 0.29382026995511334 -1.8452054055322609
Ni 1.5390083254309543 6.925220556641487 5.795021398395579 -0.0995284318146415 0.9514590934313486 2.863709613438565
P 4.6785145490018145 1.6782017981754949 4.711965822548911 -0.024190224092958342 0.07305943898983547 -0.15248544362764707
P 2.584756758524962 9.6778911483332 10.35103169067949 -0.5228014319476544 -0.17103363894347964 -0.5959847981098639
P 5.626229683329228 4.269731869632705 3.7480373068882864 -4.347068758684726 -2.650617097651822 -2.7535267872338705
P 6.850562755438557 5.626551321094167 9.289325294477369 0.01006535465580202 -0.33583723781684743 -0.10309480900966117
P 4.539595414350899 4.5596693948568054 13.660343734269684 0.281868754020192 0.22395825485665302 0.5173406659433993
P 0.4149874502521564 8.445876609602385 2.6690939644657075 0.7735120151974871 -1.2061793120612068 -0.33499802974500376
P 3.4965241426532963 5.726315787830876 9.860067724388152 0.7383917744555863 -0.4512802839792164 0.7889509754603767
P 3.9726142543030507 5.5956267959886965 6.117194595613991 -1.4820229429332412 -0.783892844211179 -0.8411304856774094
Ni 6.150773578273636 6.975992023830555 5.143725736249217 1.1050228577248389 -0.37107446375258674 1.2475131378129871
Ni 7.973674530934689 2.78237478527727 2.295927937596475 -1.6100093729782594 1.6605127810444498 -0.43651906650964173
Ni 5.65245262110603 2.708454858946847 9.517832844578374 -0.7514480934189123 0.004587105150050164 -0.06468741287605632
Ni -0.02831547523575905 2.5491874056963995 11.924206460687817 -0.11615909839278706 -2.4209211689804437 1.6251148611611304
Ni 2.1899842417992303 4.811313106184625 8.368913422419583 -0.11820261118537707 1.4503060714459346 0.4895326425921957
Ni 6.031086489979228 1.5993532460940931 6.323091956833203 -0.7915197646288175 -0.7000874795587492 1.4942925043292137
Ni 8.41065727434155 4.457757523042416 11.64267030308261 -0.683655559254971 2.5268079389129454 0.5347938284228403
Ni 6.062058314756014 8.83128379140783 2.132079038182497 -1.499141862001715 -1.084046769693804 -1.3771707849128412
Ni 6.343150801444289 8.68271552380874 12.057885737750503 0.3737540674672789 0.2880134334653492 -0.04598263737770145
Ni 2.6876430035684327 3.783462868716053 5.407969134021812 1.969796693852801 -0.11644320529210912 0.20885405222536288
Ni 4.306493174178395 6.197061036622083 8.03905686659283 1.6437198778568272 -0.7234845183264508 -1.6147278614998513
Ni 8.115119468033804 9.066514516789491 8.671093048573322 1.5544889713134518 0.4866386088738522 -1.183144798839246
Ni 5.924208152676807 5.010898799263618 6.631958810517397 0.9233571929888098 0.31832802528849047 -0.13467721180163256
Ni 6.687416729140314 7.326520428008632 7.424188573312677 -0.7681468942308318 0.04723193640377026 -1.2963322161982191
Ni 8.582336161344942 7.76982240750312 4.368678998049097 -0.5555464875891594 0.5532818599246987 0.733402291660795
Ni 0.4602437757659447 8.457644767825451 9.979914685571604 2.9880301645962213 1.594112756352661 -0.3986940252420682
Ni 8.507470241588228 8.96901097434162 13.314938830488405 -0.7576714486208047 0.9476739153573035 -0.6174067154290658
Ni -0.022881688995140315 4.687331207734852 8.153199487415744 0.2373344190532429 -1.9334379527181087 0.7675496269664651
Ni 1.590281169135957 6.869331265016181 3.6629149264037193 1.6049939220415392 -0.24558174666369967 -2.039384372243952
Ni 3.1109939817024324 1.134766414508044 6.0246367067987725 -0.94562397480681 1.0563631877356066 0.1738788217017586
Ni 0.4948046996020807 1.7571449495995257 2.7618032122291334 1.374197046996498 -1.0733188417533386 0.8193627549830147
Ni 6.1420893586202805 -0.00316623999779786 4.5920356139439455 1.695563859111312 -0.9048233958506804 0.3058419770063378
Ni 0.722826955075399 0.9268370594091585 7.048087128841662 -0.6309867681063456 -0.3926987268905818 -0.07660061937387452
Ni 4.62564297640638 1.5173545359031406 11.975490656313934 0.4506138540398111 0.5520582719302428 0.10534143895199277
P 2.6285089544909472 4.687369047471904 3.0828818950533265 -1.5624336800818253 -0.579955255450827 0.10517328880524467
P 6.171982750891093 0.10308963363012302 8.048110969675866 -1.3880516934914031 -0.08776332085891338 -1.3092083008299389
P 8.422340293156251 6.547712419945576 6.32148565999536 0.1327270300537972 0.08923656297033018 -1.868113420478686
P 6.590698361236265 7.565222949264781 0.01630892666926654 -1.1726518697277224 0.30026319736697965 0.8701857511721529
P 9.156573090972447 3.823705429070496 3.593230212642804 0.6384234268900489 1.094233994639451 -0.406001614647075
P 9.112622236386942 4.520770145167696 -0.1477263334496904 -0.9707637072972313 0.06348902169258099 0.3162184351446554
P 8.647552948153484 0.6986331731979921 4.982674139396783 -0.6264873375740952 0.06134934964175886 0.13355441105109903
P 2.6796966587875835 7.207750953337726 13.472777833665152 0.19201821161494673 0.7272444995895153 0.578171938298159
Ni 7.249667922056704 4.904890775913386 4.328997411796445 4.768486964997188 3.557139221361164 0.8315631537039485
Ni 1.0767107979365307 5.837394335946031 0.8438961397656195 1.3346313688887337 1.2891182149482832 -0.23990937886927072
Ni 5.003453830998703 4.314221940471197 11.362547459656284 0.3891773440008846 -1.109707664795018 0.5411992177285517
Ni 2.971043714216859 3.4339182977013203 12.702603907603859 -0.3927126108476527 -1.3143903592515103 0.9822493393393277
Ni 7.42022107688281 5.040224595478656 1.5117703367077415 -0.03171789992857118 -0.5792068073205766 -0.5246271723024836
Ni 4.3979896583693145 8.464607279442959 6.023806124570488 1.0283811007003838 -0.20559543607874917 0.800590359471518
Ni 6.9182202052869295 3.2514645455724667 7.566520852245653 0.7868650394656256 -0.1010528388789679 0.5130343252585616
Ni 4.1529395212227485 7.869076037789631 9.420747431224925 1.2575075300215375 1.6617841915577058 1.115230908606092
Ni 0.797990862761395 4.900056749505036 5.031936747070916 1.4561800137282084 1.656236265156283 -1.893286320199888
Ni 3.5766592457944544 3.201553932401324 7.923861355086454 1.4107033694526478 -1.6542932824972996 -0.896285019362366
Ni 4.450350394514553 9.052958430990733 0.24439267171529372 -0.1735468922836366 -3.6463233338270045 -2.273986994188329
Ni 8.872245306766256 6.771439865263531 8.333980723166913 0.3282697098822347 1.5811862780989803 1.781462873067977
Ni 2.1888585096219435 7.235071243489026 8.735128289592424 -2.6005158101200565 0.2562523390036684 -1.1319158254609407
Ni 5.952975812770334 1.5617973070703182 2.97389020843657 0.1514282060077263 1.1959512065752949 -0.46371542441877556
Ni 0.5880985713029546 2.5388666174155583 5.035827618033254 0.3764241581002743 -1.4575298428878833 1.2534529003361896
Ni 8.139724757051647 3.375247785402718 9.676336881133805 0.16909374160828944 -0.5664659627151405 -0.6811723878218011
Ni 5.4575968951584946 6.570406802242311 11.185919135046532 -0.3410246955550578 -0.06610691893140228 0.0592983806500011
Ni 8.560048556221513 4.406692797891197 6.1590775085696245 -1.9381759816237263 -0.8480338976654621 1.1802358527225674
Ni 5.344115523740558 3.3844050017692204 1.658948939963609 0.6696733860432661 2.193437417469035 -0.5506166543877098
Ni 1.6995150300698438 1.8315946322486718 9.167774599133166 -0.5569647080929246 -0.2214403735308057 -0.21138813150112626
Ni 0.9939552930045448 7.099633364646863 11.981998145093394 0.7225589211883879 0.8065761447413077 1.5058550123558325
Ni 2.166268186602101 0.36221615295990783 12.579531108836754 -0.26881269216718223 0.28543461699457934 -0.07007515955053092
Ni 6.156165740803498 6.5342982331607615 2.8992342992204927 0.9928196586560063 0.07577272415594047 -1.8588507642298373
Ni 3.754184372172329 0.6058444619867579 8.442045336225904 0.1941529985697624 0.07887990232635447 -0.47526481981927177
P 2.463253362852074 8.67593275094223 6.7627717274984205 -1.7511454530313584 0.0983665502960564 1.0440056946115182
P 4.7011048720216575 7.949428719418837 3.904630436722608 -0.5633315308512169 2.0698591437940412 -1.7847292025240749
P 2.347634046290719 1.8429370934299074 0.34405591715538875 -0.1820389889150478 -0.08468082527884771 0.3984070901292687
P 7.239914729831638 1.3957470809533603 0.9982226693505462 -1.6999948982994724 -1.9145478006818255 -2.1833730912544977
P 8.248703199760435 1.6666985181117897 8.285285711548557 0.9582660890508529 0.14039868766644206 -0.24041845729520528
P 1.4210240253038706 3.0617171841269055 7.150419967730751 0.10920143612803128 -0.27892946888620995 -0.4297683780493695
P 6.869492083898652 2.6233438303833947 11.270889210589468 -0.13178214964202464 -0.6543442118853634 1.145990558386452
P 0.5027482064026509 5.715872020404616 10.434589398036971 -0.2800916075151112 0.41581063031769677 -1.0289765681925376
