# total energy = -340867.88634441886 ev
CRYSTAL
PRIMVEC
9.30061247433988 0.00000000000000 0.00000000000000
0.00000000000000 9.30061247433988 0.00000000000000
0.00000000000000 0.00000000000000 13.61238647651110
PRIMCOORD
 96 1
Ni 0.45653264234649144 8.264747246635183 13.263228293532917 2.4697317627252433 0.9505885179009371 1.2729416051884206
Ni 2.6321290661531047 4.8739207374192475 9.793431215891578 -0.3758847406570365 -0.7066432783993959 0.20330458316204345
Ni 2.7581616625483782 9.120496578369305 10.837324492648156 0.23233182363232893 0.8119623487538855 -0.3405438992638974
Ni 2.389671405801221 7.674958222370563 6.494332924903674 0.6790975075706434 -0.0171248326057447 -0.6233369648705717
Ni 2.0447768022940314 3.927825258435203 1.9852845060722024 -1.0519344625402915 0.6104757926371874 0.4329457473360866
Ni 7.84793100871543 4.091906659483495 10.271607312969932 -1.3163328276898618 -0.3324348970035178 -0.7731456329970039
Ni 0.1982946332156346 0.3254442331403207 10.761816542157812 -0.22305502631609325 -0.12409352274851533 -0.07433496326814941
Ni 6.337939409928757 2.1853276543880003 11.296592445052934 -0.4204483862000243 0.38808359671607356 1.1464554138380127
Ni 8.579982197725242 7.698051642549847 9.186345843053697 -1.1265805292909565 0.29217759214536776 0.4184290417771503
Ni 2.9486847041805215 2.817983200443323 0.20280450008834272 -0.13572339367795982 -0.8682504818226531 -0.5315964045314651
Ni 4.649868988680251 1.5415578767119595 7.252910390068673 0.6734475083737176 -0.656278967014231 -0.19726686160839574
Ni 4.425752135655611 1.4945339812522516 1.6865469809644276 -0.17880454113815014 -0.04216686317603706 -0.07155997162617353
Ni 2.149594702181474 3.915232229469134 4.536927004005615 -0.9987753620188089 0.03432062765874089 0.8788010036449898
Ni 8.07467993500255 7.0918656389150785 12.550620034400186 -1.730198418466046 -0.19573242724174034 -0.37089731474477416
Ni 8.102386458850349 1.1916037401489792 3.357890251108447 -0.4644864982568452 0.2728974037595171 -1.462269671565714
Ni 6.568724801925828 3.174224550877103 8.18616265361753 -1.2905613751527127 0.18297332780385908 0.20599755661317426
Ni 7.699084010507922 4.477203122539136 6.651556054489942 -0.047652054660324385 0.33415959300410836 0.5134547006254319
Ni 8.886846597803883 9.02805779336653 6.624140639805097 2.447767085528694 1.6934524691952642 -0.5223548313285391
Ni 5.091043530043235 3.770784420848738 0.20816351285809823 0.34634559354733896 -0.7469013545884943 -0.23181040391122013
Ni 9.163493308731297 4.597925069348276 4.919911334859656 0.18325254960717471 -0.42845454433395236 -1.0563670443903483
Ni 5.622610721717315 6.304680420576717 3.113044193534638 -0.6926749891447619 0.7759391365817412 1.0211149060562736
Ni 7.919034189251322 1.9212460705899492 9.545032324444035 1.5880580655181489 -0.2596281974544367 1.944729723581844
Ni 6.947083008254226 0.39155019472239466 8.307230583201807 -0.48286577209498127 -0.8966876541174233 -0.5939397426553771
Ni 6.3853446304900965 6.469849993256494 0.8124633523316255 -1.3917795359649514 -0.7861160771147429 -0.6151649705827406
P 8.370783526725399 6.882239139752429 1.0202743719860206 2.7453879601768203 -0.1770181386616887 0.4355865273930434
P 3.452359359762104 2.8539486679557227 3.2531830285066 1.2262578279786365 -1.465296631317496 -1.8619165476393544
P 5.7042328946908905 8.907307944720685 6.147203384276435 -1.1956796980814632 0.3779061419624395 -0.3557434898224712
P 5.806846549478658 4.9411455626531815 12.239712658183029 -1.2930646011905407 1.4404970557753127 -2.1587686624422564
P 1.4231796841860176 0.43400097914619706 1.2427552473185404 -0.2955429090731749 -0.10095590828978743 -0.7334331448987305
P 6.120146973223856 2.8140211396312513 5.881340733235398 0.7469934000816684 0.16977945482140439 0.19320631838577695
P 3.962349131051191 7.529050217629286 2.2090181738727646 2.556639420452081 -1.0952601219111202 -1.1630449427655776
P 4.555783995311896 1.3478726269199466 12.752981825346147 0.5268100388864153 1.0552738113261697 -0.24882056531597146
Ni 3.6103674610209997 1.7036489467419813 5.214347326808785 -1.73101371527849 0.3683853469561978 -0.5403700369590371
Ni 6.92640774725602 4.212284483639943 4.103208763471359 -0.2609073212771765 -0.5764284732444911 -0.6093167393320797
Ni 5.178897113214201 4.959411965082546 10.079617564788343 -0.02966153162017472 -0.34361328221784043 1.0413885687036453
Ni 1.9090622685622163 0.9278420974118088 7.03907350374728 -0.08742419235193975 0.3643561711921467 -0.054564465509441516
Ni 6.4870003222176695 1.929904940580651 0.1921999420180977 -0.5746117317507266 -0.6981172432062558 0.4002197178579753
Ni 5.660613023309159 1.7817182858418206 3.8336156368628997 -0.05146860019293717 -0.43405157880575573 -0.5212986221498829
Ni 1.054419709684048 6.613163127184231 4.7311619199807105 0.34895243504256673 0.5334442563734814 -0.49381790023111094
Ni 2.291038413049994 2.6121885535214564 8.747129080566163 0.25376196848164684 -0.4151560274528334 0.48118709884097777
Ni 8.671872246606158 1.6010631937909174 0.8403754197098158 1.1933348519983706 -1.4030201418757773 1.6497642842786944
Ni 2.9413372205149417 -0.010074423172855146 13.214509826524008 -0.8183988484078486 -0.696260135392859 1.000402870319903
Ni 1.668715847187657 1.627551337435943 3.1571207249771027 -0.2874555040793501 -0.860264378293383 -1.0598490894016779
Ni 3.618291582645144 7.029709647349171 10.13836860221505 -1.6617690220490542 -0.7205604027011203 0.7215379361230412
Ni 7.217795928575768 7.762328173705313 7.099689313927086 -2.0123533362680894 -3.355911061112175 -0.5055459873013164
Ni 3.7096793984653753 5.690951620419438 12.445559388533413 2.0474679205830353 -2.9944743775596687 0.04460735429672963
Ni 8.054739422370902 4.414349585055611 1.7333876543631077 -0.856999591499182 0.011898551209798863 0.26814574800714464
Ni 6.957908920895663 6.287446386105428 10.670981182704333 0.41759111925688724 0.5715351497079318 0.17794553557196452
Ni 3.135887427244802 2.366791899703341 11.09917206938738 1.4480843812042674 0.13736864259086665 -0.12074286110872753
Ni 9.131806122846957 5.463514448826934 11.37934185222938 1.6160550649517071 -0.6158275438674038 0.17101666966261517
Ni 3.9306061414934415 5.47024809208501 1.2342991306745597 -0.6304434940083659 0.9350971071335572 0.22033685605398182
Ni 2.290564081826014 8.318216466373684 2.941745517392055 -2.199172005959967 1.388811454475563 0.8544158899324059
Ni 7.211248297562392 0.8960274931398502 5.4029600226878784 0.2062605804665738 0.9698867040089167 1.6374759538296444
Ni 3.885209853174843 8.845542578868644 4.837665090805118 0.88167266876583 -1.6630388899004134 -0.3155381212481792
Ni 1.379662119538871 1.5564016538388767 12.419247026459628 -1.453629993612845 0.017845255711537007 0.9961381815062779
Ni 0.1260056246197921 6.805955518201692 7.028564741983055 -0.7390777447790176 -0.9605476859961781 -0.044234287228027046
P 2.5319800736075875 7.2103368375633705 12.281271513893506 -1.6220897011815614 3.448033944491365 0.2664043398360057
P 3.962153818194258 8.755559155495884 8.757229545453274 -1.5054426074087621 0.9822364838235214 -0.03451423172678572
P 0.1614939707245404 0.4936774274902773 8.625256648023564 -0.3642080756500566 0.9382189405919906 -0.7827031947784521
P 6.576621021713268 0.45397776416556146 1.9910425151068358 -1.0856277410276787 0.7760862036825666 -0.8051268138892907
P 1.6458084392530723 9.291599941654956 5.048316517436056 0.13685442195860947 -0.5657897625837224 -0.5910835041535046
P 8.984149603005516 3.082064784241374 3.202123597398164 0.711408303888207 1.078244046969098 -0.07112005587527752
P 8.039784037897165 6.796747912089131 5.0677148043744085 0.160109278721492 0.3245048435231637 2.5170562588428202
P 1.034860522154031 3.3206533899035358 6.435037801661224 -0.01495199332414199 -1.4594142043947897 1.1168663873269862
Ni 5.128590101635569 8.723890570836014 0.16539185731219144 1.173986786489062 0.029094346262795057 2.2978193207212363
Ni 0.31407888498925995 4.157866601453481 8.287519795692361 -0.5449077769283907 0.37846587112065144 1.864410774816118
Ni 3.2074184359434987 5.742597920159896 3.4569882744714193 -0.15228875423580868 0.8172914742762829 0.4669203045093184
Ni 4.460155100312545 5.378943981774893 7.850998350630505 0.15989330605594398 1.3097153223733444 -0.17989905975390952
Ni 6.785029140673144 8.409325263826869 3.8337384049444005 -0.8828731168318344 -0.07112854051570977 0.28580742695296585
Ni 9.176690877492636 8.461669109484944 3.5446521251527927 1.264036332278991 -0.31741425522496947 0.49410303557169744
Ni 1.2394832919342986 5.4869984947200825 13.47703820807883 0.6806386268055181 2.1777973969389333 0.12579867836508013
Ni 1.1052196537111294 6.293770802425167 2.203287136613613 -0.6055115066533765 0.18460726386285625 -0.3539825412673065
Ni 5.876024503281924 5.7439651101584275 5.867550715474696 0.023573930665198112 0.7057624184563394 -0.4319417315516045
Ni 8.588603865267004 2.083020919803984 7.353234234124207 0.6244939612931503 0.26240318909641264 -1.3299648166509999
Ni 0.8329321397382168 3.148247940904998 10.650290110665328 -0.5836239625516657 0.27347101687479997 -0.7900393234285491
Ni 5.290383552074074 8.152312145327349 11.588850233616647 -0.12742927198996762 -0.28962165849273347 -0.6275900837199707
Ni 7.587011633077249 4.461717603168011 12.973733716864196 0.5052338553775363 -0.29039016122764183 -0.08776332085891338
Ni 0.13610050913956404 3.566580178619041 0.18336250027248566 2.121278121695966 -1.5135359259398578 -1.172842902692606
Ni 5.564984128309809 7.378668618403017 9.11255292545947 1.2866013620637002 0.7952488926539465 -0.9855706904030769
Ni 4.553412339191994 3.8304199464989845 4.733979075426665 1.0414425618700323 2.299666144121988 0.47458604858469233
Ni 3.358004648638936 3.5709979694306235 6.917025289633441 0.18522972793820358 -0.9177994963953742 -1.0660403058140544
Ni 7.838053758521955 0.36836655860443307 12.598576781267056 -0.3223050076583675 -0.7239154352162823 -0.026513215799180145
Ni 1.640953519666449 8.275154631726048 8.664747047572993 1.5843284232723875 0.7924960124991578 0.11091276239218319
Ni 0.9472487549011731 7.352468793737274 10.922211180516184 0.3698380202423244 0.3699894582185241 -0.1090901073611476
Ni 1.7311415565083768 5.208194041754169 6.769738934158951 1.8715113904166414 2.0350597767266696 -0.42582276313806017
Ni 0.3472960215862431 1.8860432532808127 5.060064120749971 -0.33584675089854416 -0.3510525121047051 0.4797827622942834
Ni 5.090373885962322 1.2937709655494718 9.507108147994964 -0.7499686806599083 -0.2906832669880284 1.0487084994038263
Ni 8.077637529693252 6.2398830551360955 3.1394384009960907 0.1576890993157736 0.33214924744229896 -1.2730542195068848
P 6.728248902979015 5.735231835269846 8.33035841564636 0.3210819338845438 -0.6011352319625518 -0.26899601182258187
P 3.6745974891152926 5.861366738399704 5.603184532942256 -0.6719842935646299 0.0768646716685386 1.1397566616615984
P 2.0150241437545526 3.9394789255655462 12.264079332177271 0.10182596959956657 0.10584588939223705 -0.5866879461889702
P 7.029663144287998 9.023342382963431 10.71373702720944 0.21360056577141276 -0.47215044256000627 -1.4791024268523365
P 4.488568470690197 3.366291494140242 8.87515293804093 -1.9459193730145712 -1.2524450278969657 -0.05673139125377327
P 1.1173848545143925 6.270584376123535 8.987033722859563 -0.5253401392091082 -1.6998473169780144 -0.26799431003094487
P 5.715644745903125 4.441953802168825 2.146060469532208 0.9609194675132999 -0.4387641537900766 0.2752733601908614
P 8.536892461240901 2.27017713980709 11.82804709931897 -0.3441259601882009 0.7090341472290757 0.7600126951594717
