# total energy = -381171.73806655186 ev
CRYSTAL
PRIMVEC
9.20230022114500 0.00000000000000 0.00000000000000
0.00000000000000 9.20230022114500 0.00000000000000
0.00000000000000 0.00000000000000 13.46849655640341
PRIMCOORD
 96 1
Ni 5.883058064417454 3.4594758925029914 5.845192439942886 -0.11039545643613245 -1.3547656777447636 0.8282050358649929
Ni 8.632751347474562 3.863061168234775 10.87762945248811 -0.8760314113196526 0.12569480579736417 1.228430153039607
Ni 7.595504888770507 4.293765622377794 4.674025828031885 -0.35732060450160397 0.5715492907753189 -0.7589063494691703
Ni 5.082503966729822 7.723067172834487 5.850688053565956 -0.2278161951501625 -3.2699883930064266 -2.4674357676022147
Ni 3.367158417843502 0.7563232422300129 11.405715407038738 0.6134153348814855 -0.24242983129827927 -0.22921821770401168
Ni 0.23668960032638986 0.3911014354085114 1.7136909753273313 -0.46652949682880296 1.0265049667235935 0.30432811146497263
Ni 5.636040722682537 -0.023476908029434883 12.612641236930132 0.056579696167257394 2.128281292486677 0.771472101949323
Ni 8.064141223948855 5.78118860224834 0.251879837110722 2.0127539141406174 -0.2280635352742782 -0.3689116517733131
Ni 7.205446994193971 1.223767879544684 1.6683291571867322 -0.7497231403080056 -0.526311759093758 -0.7562249459822654
Ni 3.371032586187964 1.4266325853728794 0.3554416022692581 -0.5182498080212301 -1.2528083247736552 0.7328075954995896
Ni 7.446307997158235 8.311213779484406 5.104734883324957 -0.7267822152411161 0.5691105994268392 1.7124765757062508
Ni 6.350350863780383 6.282428686700868 3.859263378981189 -1.4309289524709032 -1.047490310726009 1.8533308628528726
Ni 4.6212938877367025 2.6449803101553586 12.284386910092891 0.6234107555313005 0.9745141754785989 -0.40752293638760784
Ni 6.463447132078342 4.3398415390065885 12.613677415922023 -0.10859696977481298 0.44066137081278955 1.0166265312676168
Ni 2.6569525025927585 9.1718957060621 4.285136625568763 -0.7010855818059603 -2.490209828073937 1.3577589560451326
Ni 2.697258577055335 2.099449555294525 5.202072212692058 -1.248516639376837 -0.6565270784692951 2.9318693011339376
Ni 7.158220790051976 2.106093615970776 12.365318378831708 -1.4453911506428203 0.6834305877283584 -0.20643721525375416
Ni 6.83832123148062 2.953174542992378 8.283771600339461 -0.5820777011104686 -0.8959039818738634 0.12788461435983137
Ni 8.22941453384563 3.2447218149383468 0.6891170040987143 -0.6072081776295091 -0.03533389941460366 0.19146928109001218
Ni 6.2246198374374195 4.3036396903911145 10.3723044670187 -0.026043732361929337 -0.35835470219307314 -0.09308241907898163
Ni 2.7154883335645503 3.610715694738709 3.6043578255957422 0.44066059948184105 1.6042745273770114 -1.4181883649757834
Ni 5.694788206556757 -0.0964115779764763 7.267721719698673 1.7332549459041828 2.9245969358422403 1.0240521343077267
Ni 7.061053703236829 1.3126436939646753 4.088281021709531 -0.3837697998320681 -0.3533168826588496 1.0152700172397222
Ni 0.539202333078205 4.466097096455572 1.970777473837808 1.83999737896876 -0.03199737884220296 -0.4105136435848155
P 8.278131510604734 4.622573007451382 6.664185186352131 1.255467359663057 -0.5806206569489678 1.1672296702708866
Ni 3.004845458085384 3.9775101746482595 1.0424954506842943 -2.027514874499876 -3.381065191780299 -0.2281787206959038
P 4.240143819662399 7.983409445122329 11.625103762936567 -0.6821609769873155 -1.7403805012053704 -0.4825040178801883
Ni 2.1187651832162024 8.404028178349598 1.8613464816719132 1.0721009101858374 -0.46691567652362814 1.037847388319606
P 8.646333942430442 1.9191304847250767 10.02386121397976 -0.6577239269908737 -0.18639778010437577 0.5734516500043544
P 6.8687992494304035 4.533623574630545 2.437339610572351 0.8598162350123707 -0.7971535658758271 -0.6151300035797471
P 9.057299462846926 0.48951175296792643 4.6615143808082955 0.2138391641447801 1.1042263299654724 0.5629610348856756
Ni 1.277380479959974 5.290383926115576 10.722821918501447 0.7999110740163063 1.1534115334408717 -1.0803767770413846
Ni 2.138531723843055 6.490225825385671 4.035161664579903 0.05882118390326644 -0.9397549176205428 0.30484361764881046
Ni 4.764444868179588 9.097817190211932 9.424136273336963 0.6179057665526713 -1.080605605222739 1.0861705009050262
Ni 3.362962168995343 6.559436324479971 6.84885142349147 -0.6956664676729181 1.219068509319049 1.757868887798121
Ni 1.9422282579901602 2.6761853098134853 7.692087629528948 0.7721362178958832 -0.31947705129126913 -0.5538207631473042
Ni 4.6961638013959535 4.62872014392193 2.609602067399337 0.5613456107694398 0.5250624600676893 1.226220546982798
Ni 3.5114504834994826 1.3328151357961748 2.76854327459344 2.1913753927336845 0.6516448106763294 -1.24034901596438
Ni 4.19883469448831 7.829436559755245 0.699110702013408 -0.5594188260603722 -1.0489041603544 -1.6940890743379986
Ni 8.276741963288787 8.4394570337562 0.24625907220621476 -1.7457214538023096 -2.7627012546442873 0.10858437136932268
Ni 7.896705373527261 7.725064071957404 7.434017405137181 0.2195125603804736 0.7858533103716595 1.1146045878760031
Ni 0.6962257809302989 4.484382066765421 4.326902184828088 0.11239371781308385 0.5080492133391444 -0.49824225455105153
Ni 7.5889344464951005 1.3278919052396732 6.702004799326171 -0.26987995708943197 -0.6370957092175608 -0.5344585565706086
Ni 3.940516928223703 4.678099686288639 5.960119045731852 -0.4316470831293211 -2.016120516620005 -0.49811729893741313
Ni 0.36377428501488884 0.36084887381131514 8.918959444899254 0.7439317304372092 0.021389521419369614 -0.47999076454003137
Ni 6.565068132144606 7.1894441943103145 10.193725551399224 -0.9250266102714327 0.6426364365301319 -0.5221411726558363
Ni 5.196437644337392 2.6516335731317153 1.2765081019099622 0.817701822340824 0.19761935985180806 -0.16003883049487275
Ni 2.8019807522571885 6.033856156248103 1.905415376647674 -1.1365823776986748 0.910699137905167 -0.11572252507600068
Ni 1.4632301328928945 7.664706185564702 5.862392459070284 -0.58796707001171 0.5053348997317748 0.7854630169117762
Ni 5.091531423133427 0.42843056578692257 4.693986537190966 -0.5483170597202557 0.43140077144646993 -0.21662906818509145
Ni 2.1921351219582395 7.667439268696068 10.272354604651618 0.6025405969505107 0.05980488797277443 -0.1342259831968269
Ni 4.27924439281114 7.8001088293186625 3.0887032582577856 0.49097066059030287 0.3563412713074702 0.06980853615270557
Ni 8.839729481449965 7.665515987973995 9.946228769828805 0.14379897159724267 -1.0024229860737253 0.3076913715102507
Ni 5.870929432878259 1.6805608544871105 10.30766935153691 -0.15780685584056048 1.1887480039586367 0.9401398117637872
Ni 6.276355168631165 6.933417800772004 12.742814213534075 -0.539130251014665 -0.08051718081946133 -1.9615941034373505
Ni 0.13191221132390257 2.786493281179445 5.872372353534819 -0.09477446206942387 -0.1626464433210489 -0.1225557459477502
P 5.172677305464704 0.239184343885021 1.4642948390151138 1.0351171338726366 1.8179154594680564 1.007362846577504
Ni 1.3099658246339427 1.5672529332867216 3.3047244925469728 -0.9227046470064755 0.994160746064933 0.4954765188804563
P 5.1350767072331776 7.287964019240986 8.264390636087034 0.4495255060716387 -1.7887681484801388 -0.5733115248820642
Ni 8.673333490940305 6.504912696354226 5.519026114999607 1.7384202921552059 -1.34091823033871 -0.9314232578263959
P 0.7192168075141575 6.76032253578546 1.250137990727323 0.09745895088012248 -0.04797138567295609 -0.5501919081454654
P 1.297533517191262 2.4365850219636913 1.1318792320701156 -0.612466597814971 -0.28912877801671494 -0.24525907321695828
P 4.166111315312758 6.118784183922787 4.420980059497782 0.8379813985254665 -0.4502402727504762 0.31605105632885566
Ni 4.464965213542582 5.9506949701936955 9.90189024745995 -1.0996816480175835 0.938627488884319 1.0925298674641506
Ni 5.4543689139975635 4.790220510775404 8.157194882616794 -2.3547021499512093 0.018861355680877195 -0.9631118471789285
Ni 2.6889212931596513 6.429168564184942 12.521431719203356 1.3939937700074507 0.425818392262686 -0.24047605000601813
Ni 7.572333497104578 5.383695249186471 8.706359625789332 0.46015701764355593 1.4527409061396723 0.3935111954895481
Ni 0.5518959858438848 7.136181281299037 12.202754226086027 -2.032278100216474 -0.5175352984527087 -0.3371382160164581
Ni 4.437542359227861 5.428271190898051 0.4335010331451143 2.6317243745123773 0.5587631947542441 -2.5082396889924548
Ni 0.7244897254746726 6.1578295432708945 8.375963923717517 0.09828581765679202 0.4358765478296364 -0.16630229490608134
Ni 6.399518753244663 6.5339735600877455 1.4534260023603764 -1.6787511584293475 0.08184489849194937 1.7146812966670535
Ni 7.658761499696476 9.225765970880348 11.458970037979919 0.5834624972731371 -0.6297765498483283 -0.9841537554508921
Ni 2.716104887671626 4.825520533980528 8.62855141770636 -0.11821058160517706 -0.13041509409116894 -0.3796159255646946
Ni 0.8470689640314645 4.661682782900229 12.919318010479737 0.41575817981320656 -0.22690756729296402 0.7816433860553699
Ni 1.389685350448851 4.854673420715104 6.47003689918397 0.3341071424996181 0.17048265153601605 0.43371142185751754
Ni 1.9448969250207877 2.5580553833577566 12.285194872042164 -0.2928306523483344 -0.010068954200227822 0.9892190857889416
Ni 4.038475412847933 3.239651347580155 9.879074984808106 -0.17381788655683614 -0.1070620211875253 0.015101117307496574
Ni 6.659088032323633 5.951826853106685 6.449887542872725 -1.6657465186395635 0.06560915335937732 -0.18851456933706243
Ni 1.5681823655973886 3.0672278505013213 10.09566124032378 0.39252234921371754 -1.2280069494592591 -0.5488827024157386
Ni 0.7383944009342509 0.6364200325439328 6.7587204153370735 0.9512482629721232 -0.1663981970539973 -1.5458516073534279
Ni 3.3764803478504857 -0.028307195354870116 6.696415322242023 -0.9604666962465974 0.6979202967041013 0.41850926019578244
Ni 8.436181014918603 2.724865477372168 3.272171355923374 1.3252031335962986 0.958454550912575 -1.7870439667001803
Ni 7.307279647162663 0.4109756429465996 9.052068875466896 -0.47270245840873437 -0.48235386545556924 -0.26473929342875696
Ni -0.17514645768008433 1.1245302752057746 12.99717959190332 1.8104065526855206 2.048644714499956 0.7543482977848428
Ni 0.4230205335548339 7.913554785020636 3.5178773698932417 -0.4300699684501883 1.7379518371592195 0.5362346746344249
Ni 8.456554907352427 6.1567620764586435 2.8480345833657292 -0.3425742994303649 -0.6373232518473346 -0.22617506000231372
Ni 2.7165465980766954 0.712047295501876 9.060863513677829 -0.9197499352535256 0.7111391093872204 -0.5413303439897774
Ni 1.928065918127625 8.662355146914312 13.0619094910762 0.7105336145927377 1.11500259464537 0.1681563173956846
P 1.8711772988747375 7.995215996157828 8.02506917793044 0.18733417587571607 0.660304029013224 -0.06466530138886926
Ni 1.0274184021912613 0.47969934036531336 11.16143759004526 -0.6384298546479521 0.1388182305531996 -0.9705881009513154
P 3.1993820823180013 4.385383722229258 12.154523130772496 -0.01886932610067718 -0.4851887638012031 -0.3833525097889914
Ni -0.12562427966173853 3.6840672288805343 8.539524685564636 1.3469081293735579 -0.6046334749237974 -1.116376077954129
P 4.556500492693095 2.4825413086911126 4.393868242926631 0.9008741813949454 1.203718766335856 -0.2568208099126286
P 4.673746998338685 1.971408751625053 8.100896130800676 0.029285893448310854 -0.49621828214248725 0.4077785040418396
P 7.959492667147845 5.929658512152269 11.307341898679743 0.002909717447627247 -0.07253879059967508 0.7787565514258781
Ni 6.858455864111696 8.260628735803861 3.0211583754826004 -0.22700115544803487 2.1151702090260156 -2.413767331544482
