# total energy = -340891.8501939765 ev
CRYSTAL
PRIMVEC
9.10522764841011 0.00000000000000 0.00000000000000
0.00000000000000 9.10522764841011 0.00000000000000
0.00000000000000 0.00000000000000 13.32642103396293
PRIMCOORD
 96 1
Ni 6.489951456910923 2.0143222390301987 11.389878828929541 -0.22336484424702824 0.10026068199497572 0.1156253373765041
Ni 4.570105061933111 0.9224142114081614 6.122304209338675 -0.9908782186589195 -1.5520883322917591 -0.31691134744662197
Ni 2.545147916787532 1.888032728910056 4.747951103643254 0.4304610332410199 -1.5983105964840925 -0.29253394704352204
Ni 3.2888629266370835 4.277708880355019 4.708570993241694 0.979684406825629 0.45906275613811265 0.0075443880061612
Ni 5.09020478129668 4.548607619006388 2.751612600116897 1.335123992254436 0.18986542693800204 -0.5288550943409022
Ni 7.160096225825308 6.297348572442907 2.718802822123607 -0.11663989468394752 0.2278280222247044 -0.7628689336613442
Ni 5.053965974499407 4.46917361134322 11.600356186167337 0.5774769691136634 0.28673019587755133 -0.6048111381522423
Ni 5.644376263231954 7.777813092845549 12.294916623530689 -0.23171681575614936 -0.20352724069581074 0.5994794415266838
Ni 1.8520579737201004 6.561099707241046 0.6370873287238881 0.8701194167105918 -0.06874641343677837 -1.6206316285787958
Ni 2.771540301764261 1.6150853139950219 0.4231326849745645 0.8852627001099335 -0.22261896721993918 -0.9541086152390534
Ni 0.5833546476804852 9.116336216473648 4.6681255711830305 -0.7402733077490153 0.12428584126497949 -0.8118623328409115
Ni 8.67687239484793 2.445600460829095 1.4004732727957576 0.13954251031373385 -1.1923565472455013 -0.1412504941437761
Ni 6.875940275441067 0.6716853734646608 4.855588554536207 -0.9824527135993856 -0.2380957226992996 -0.44520168188530423
Ni 0.8031721476350256 7.444406965082804 2.5242778240588817 0.08397994255708117 0.27130023447572627 1.1811401097043916
Ni 7.6769909049897205 4.110892001125665 3.82625529471155 -1.0301325361738518 -0.9285341092040589 0.22957508682279815
Ni 7.610495426085077 3.8876591302088985 12.822136631063973 0.8113841076529122 -0.028342555698435058 -1.5956106810544262
Ni 8.2394390390302 8.884890430046545 6.666435356536424 0.39549634424037694 0.3089645817957195 1.42828328731794
Ni 6.833318703928999 0.8430539560904863 0.5388573992336835 0.09971483679383471 -0.32037539473582244 -1.437492207510718
Ni 1.8923212912219944 6.4137315946747515 9.39258154491179 -0.08314947623598583 0.07293371204524858 -0.8421021055620593
Ni -0.2529823818335319 4.731668224699645 1.7371126669639578 1.0243976905726035 1.4717318454198784 -0.7161491610073021
Ni 6.348501742439661 1.9564220952051095 7.057778959558396 1.252647630826075 0.21261429059874348 0.8244368270718124
Ni 3.451473190605045 4.1511097924883655 0.19725383484792733 -0.4979997995229423 0.5474907071642184 0.4647238110786319
Ni 5.996375266240937 5.837944301850851 4.802322061158136 -0.5872492180090789 -0.45986699720696284 1.333888062964806
Ni 5.5922488338564795 3.2690226351769684 9.03480709588484 -0.018201867720007363 -1.0785471800318136 0.36698589550550986
P 0.3011453950081179 5.619555412144174 12.447090475350151 -1.1363797747695654 -0.01195382992776651 1.4927693828164676
P 3.8995505577659935 6.111019189955624 12.585858700222973 0.2848823440355352 0.5222807835574941 1.3378354776483283
P 2.468891633640005 8.716598503907353 1.415039816291807 0.28422928383256857 -1.0546662596491578 -0.4803072673391857
P 6.324090626604613 8.025548131875748 6.08020618842732 -0.6823946902646764 -0.6880125506720861 0.03987138227364101
P 4.760258640112568 0.7490206261110512 12.553155453395394 1.2058355555685427 1.515090157800855 1.067083659476904
P 3.958579749843058 6.199840687520297 8.311182771260961 0.5547844126121542 1.4211500187072688 -0.33086652407513345
P 4.553223969520513 1.17094140526031 3.8880497444831703 0.3418785589149209 -0.0613784031074814 -0.1800175876096448
P 0.08282752607857996 5.707967174456113 3.7555987266847075 0.5913308442776204 -0.353843701696597 -0.7466095343796884
Ni 1.542553069033446 1.2904110997294083 2.421464322874771 -1.2210868253006584 0.3417752005678372 1.1775423650508041
Ni 1.939941632817405 6.5197801833098845 4.657357728741207 0.16080887589167786 0.11558497105687192 0.0912700484605912
Ni 6.067223044052389 5.700719413096658 9.091271345279795 -0.20717692163325607 1.1208050602597601 0.6636626610728119
Ni 8.710525316939066 2.15205702054335 10.356628500088757 0.1621399359982756 0.8205572895117481 -0.34694208948075733
Ni 2.5973208723021983 5.188841714471265 6.944851371291268 -0.777326503847571 0.13233776503517852 0.05547823557296252
Ni 0.46783206947938105 -0.14294661392791433 9.23871503123715 0.7117595165800387 1.0722094107392437 -0.6078347554699145
Ni 1.4078230127070035 1.07397983400801 11.496330779157923 0.10727413719833138 -0.7300038075022073 0.1768913832758373
Ni 4.226537499902588 6.817502923173507 1.6854860251196022 0.11244411143504504 0.9250896022988843 -1.3023172301370602
Ni 5.479462376620849 8.07505325563373 8.342046762065161 -0.2878614812685171 -0.29503434486787256 -1.2573494071771183
Ni 5.551539360190499 3.0617603338889503 4.763555643112893 -0.5582875406694062 0.1401282076138748 0.7912235735446375
Ni 1.1991767167875316 7.109735210650506 6.95239414203269 -1.0534974361520375 1.1438444585777268 0.16737367359338914
Ni 5.065047036778874 4.800649430804201 7.053541386522353 0.8261142147742354 -0.8404527428840946 -1.0531045715889928
Ni 8.470493300660248 7.008840180971969 9.443168369736988 -0.42529028767335786 -0.22625296442810064 0.1933598132445057
Ni 4.644358194956165 0.15728279515964935 10.449580129000978 0.058199234048551374 -0.05904589831956282 -1.0384266578618437
Ni 8.068442860222971 7.026367744561102 4.9623063774174705 0.7252902040766218 1.3037562765764321 0.018556937066580945
Ni 7.548925875441068 6.27097983262258 7.28187682711982 -0.5858338257187911 0.12189574376624812 -0.980976386164175
Ni 2.641089702521919 5.18844108444637 2.5270357975711666 -0.8337372785371319 0.2901073398799004 0.09223292659449277
Ni 2.126125331659271 5.218406389262909 11.529406429804096 1.4280896832498953 0.20004493857416517 0.14212698321145845
Ni 0.9759893720099581 3.4805734987769252 3.6622874412728668 -0.21418600596123757 0.12856878491104956 0.38385001825070025
Ni 3.647044379348416 2.7811827380452443 2.5200666561835705 -0.1369906904261576 -0.8348806481129556 0.2440642815779087
Ni 1.3309020479272653 3.4405833381101862 8.42888149891547 -1.563502744776288 0.473909591342958 0.4392464927431338
Ni 3.3619779061803237 2.8124318799870127 7.417552916618684 2.233067887376464 -0.37853631934727067 -0.7980195134205482
Ni 3.9476079502976527 7.128573927048384 6.113975657434789 0.8444626353744359 0.249367438958377 -0.39051431764475325
Ni 0.9644712587942422 7.57452977612296 11.578181314289429 -0.6278993874302734 -0.5402515091033019 -0.020313514746371466
P 0.325696731351878 5.48618203476567 8.112405631795651 -0.005697050384777285 -0.3546132328727699 0.22353016618029894
P 8.72076869825739 1.692725591774002 8.0477994876675 -0.7194448010394384 -0.5337959832859452 0.5797603658312015
P 2.1695481632211284 3.222640604567595 10.71080456307393 -2.348295217983601 0.015950352681669305 -1.060287462490677
P 4.113987778590758 6.29806788544215 3.7855968103214646 -0.8356234398162512 -0.31461200988948396 1.0552740684364859
P 6.926619973590218 4.285339061283691 10.436973030535777 0.7833860797780895 -1.7651409959795021 0.5984887954786403
P 6.583553199090813 7.945777230782555 10.19724421834398 -0.7199813902691988 -1.721674440155435 0.5230701122280089
P 2.2941623114189853 8.699416938976084 5.795940064786234 0.8123714112668461 0.1604450647943559 0.4364329345537387
P 6.861208016798358 3.7615790403290417 1.449008689788939 -1.0067969467717048 0.7275795143314309 1.7610472855261026
Ni 5.324700819049682 2.715707044658514 0.306518389955623 -0.5021210207801675 -0.06857749195908189 0.026463593508167328
Ni 1.409899004654184 1.372349045048166 7.037843063205977 0.7054410305611786 -0.995064745936441 -0.5452818724383577
Ni 7.171386708345062 0.5773142395324171 9.13307617785475 -0.5442991968101142 0.97160060137623 0.07833662822837477
Ni 2.569158402597685 1.487357177876394 9.376856816434682 -0.024459161483628845 -0.30154720628572584 -0.04542830753612822
Ni 6.267856739473971 1.8615638315835052 2.721894957497566 0.7962984169643835 0.8517134033995782 -0.5631469256442366
Ni 4.021861083320707 6.719521566403293 10.505657406212798 0.5637637332926291 0.60933730815737 -0.15425796214703755
Ni 8.456534986383812 6.986550583223295 0.6969387228747703 -1.0491499578166188 -0.3258078786053034 -1.128318595027986
Ni 7.900606195475704 3.7446251060937343 8.270816564684493 -0.050729408034067475 0.20052059265900304 -0.034985772046565555
Ni 3.0705741944366283 8.56572487862323 12.378619162004549 0.07988108989735919 -1.0231118818816443 0.6367393543194066
Ni 9.18034596817838 4.733243429115707 10.298911371343221 -0.1281196131887729 -0.6897513877400637 0.07840450535183272
Ni 8.55655591418985 2.2564302472561977 5.610277184976732 0.8383333825482465 0.014987217437451605 0.5186347021644746
Ni 3.9046768010390753 2.4393451693040378 11.411241514484256 1.0172117143471255 -0.7911605815171858 0.5127556176758782
Ni 1.1350030709817085 3.1173932759822502 12.704850370230549 -0.9609778315550612 1.0606615580006442 0.19503540117471574
Ni 3.0503241677237805 8.565187670180759 8.000637139032365 -0.18987622557127945 -0.08409204265491324 -0.10329818326971887
Ni 5.498874722372554 7.935952689944802 3.5228791188829973 0.5056393183460711 1.2277230996702533 0.5846966267905543
Ni 2.9910309240393995 8.623907284511315 3.522133400723023 0.4724905995082444 -0.21896645806901643 0.893917547571454
Ni 3.488112627427212 4.303540411732873 9.208090507925103 -0.07107249046679372 0.37121921686056714 1.6320812651766343
Ni 7.492864987639357 6.107732202705923 11.4873220667345 -0.6292656716501808 0.6164680056648802 0.6071274449902447
Ni 0.6215610942136597 -0.116452221963416 0.3336428636865463 -0.26318043358206933 0.5695492296261545 -0.006591537174588648
Ni 4.690312279857129 0.30436227200346366 1.6195732807966237 -1.0113570553385616 -0.08804562798602256 -0.36161383256031915
Ni 5.906879981816216 5.589562791644119 0.34437064312587956 0.3307690792653207 0.2799723083284275 0.30623432734875
Ni 7.954563775646718 8.733597964281852 11.628289204130322 0.42389083622267 0.47390393491600313 0.10538231949225722
Ni -0.01117575664898799 4.719986217382836 5.904484396371903 0.7302120668582714 0.6278775330534025 0.2317777509010718
Ni 7.87617686918498 8.88835041662518 2.482859053144281 0.7522919294764463 -0.0703600377808014 0.6530625169594624
P 8.461333441454705 1.650786912349822 3.510725460764153 0.44646717886128917 0.007769616643089844 -0.06666639097929809
P 1.7376234702456983 3.5173039878774772 1.5654017277714045 -0.10086052036250372 -1.588346286182529 -0.9717782646046748
P 4.584627900335535 1.3218696619114627 8.521487129169827 1.0479263698221628 -0.5250881710993022 -0.6971471659835026
P 8.527573973979871 1.5074615209438258 12.597612638839706 0.31091476354355485 0.8840355125710516 -0.4252092979237774
P 6.394055197315729 7.936535424526467 1.2306644156986692 -0.38690268903409497 -1.904741870334997 0.28158798955497955
P 1.8343574108020355 3.393827993159434 6.062148700577986 -1.4216853223854484 -0.39026903440316657 -0.8328034538689528
P 7.100056353458169 3.827655678753113 6.172677971832452 -1.5662569104826574 1.2540815350591241 -0.7052240294543661
P 2.38535116822167 8.440263944236392 10.169272047901291 0.21449068168584995 0.4835247458352188 0.6600654306398568
