# total energy = -340854.15520923096 ev
CRYSTAL
PRIMVEC
9.38238669368716 0.00000000000000 0.00000000000000
0.00000000000000 9.38238669368716 0.00000000000000
0.00000000000000 0.00000000000000 13.73207131239257
PRIMCOORD
 96 1
Ni 6.294136466117734 9.361895385939146 1.5167763075268714 -1.7012732507912638 -1.5177844168035668 -0.961407720003628
Ni 1.9752738336544697 2.5444844589342366 12.888812351899029 0.9662043700613231 -0.6039436479456244 0.686730855746185
Ni 6.928094940758872 3.841711983699041 5.633403475069908 0.9532362399364293 2.113143922624606 -1.337441327533703
Ni 7.527385497215651 0.3735756692750198 13.45638575073139 2.4107414002339644 0.09594148579433154 -0.29126742162627256
Ni 4.98734828949099 3.586360952222577 4.199981227608442 -2.5611434789700214 0.6574238792519517 2.157270223519859
Ni 2.1462302984006727 1.009169493886262 8.429940118380848 0.3780095003095232 -2.9570537708193654 -0.47885665093558816
Ni 8.351984683517953 8.633568867699012 8.834472971972321 1.191398039986974 -1.9631591339316257 -1.2203162656832207
Ni 1.6357065007915876 6.58940955222869 0.384058609731687 2.660850345344056 -0.30341665539429685 1.4448499334273697
Ni 8.089596862152918 5.415916940864518 2.7634421513456635 0.4136563029788553 -0.16257239555000388 1.02010369118294
Ni 7.877357896727099 4.494622879106731 11.653090123714943 -2.2648225540802414 1.612442150789468 2.6527757958660376
Ni 8.461317633613312 0.4021450362226181 3.9594234049550567 1.1739603041265005 0.4493902660453551 0.7252200129603187
Ni 0.9515897878247151 7.581231013442995 7.700780444217906 0.061303326895171845 -0.412937936755592 0.12812321273319868
Ni 1.2238947917393765 7.639195397351784 4.888027284049092 -0.07634273772679755 0.9497729639781771 -0.4710466679728662
Ni 3.96723893292463 0.038605705806004115 1.1264568312716599 -0.7978480208396904 0.38338644835072033 1.013425507831816
Ni 7.584890144185052 8.302239270199015 11.474985218680605 0.3982008876557335 2.996396534283046 -1.06715899279953
Ni 4.9160046224073985 8.452000923800844 8.831946295282997 0.4183807050377182 1.653005159813495 -2.008648376612676
Ni 0.2026051309490398 5.134079432247473 13.390527026806275 -1.2682552554563447 -1.1087987798275034 -0.515464531966609
Ni 1.2244858820900164 3.3146564210450737 8.198513234286873 1.6500190806019777 0.11833270900533815 4.37771193749188
Ni 2.796833126724911 4.322540527978357 1.7296232515990635 0.6499283422058549 1.0814049611955827 -0.635356357928951
Ni 1.9404745620588566 2.167387579998976 6.571935795577391 -1.8082990194242148 0.09054371181752793 -2.3877390258015203
Ni 7.828597633992562 7.260719307598364 0.9874389484717031 -0.9376638394194691 -1.7860481784458142 -0.6169685994503826
Ni 0.9899825134567585 0.1737055039960046 12.308659049223209 1.6585327744999434 0.7966992519472279 -0.6541359525292992
Ni 7.8183239207552475 2.0816231848370728 6.650661524373419 -0.19668450674236448 -2.767795895558375 0.9758521775637322
Ni 1.3904696819816293 1.315129118241329 1.6810797219930933 0.38305014805722415 -0.5540246516279942 -0.07474222600889707
P 2.3060780175094515 8.559888986372414 -0.09844093758650103 1.259485993904147 -0.27563999950166074 1.323008697048141
P 1.1584714105487024 0.9546484458296141 4.108731889288061 1.3458658041519724 -0.21157067982557756 -0.3489539777044635
P 5.04899995130139 9.09812835375595 3.287389329346187 -1.146358226138516 -0.04374963428212465 0.5284863981475736
P 0.13150822063087386 6.373971193000201 9.968248064728094 -0.20888053458792413 -0.46287775900882866 -0.8974918951862737
P 1.368711927646168 6.357017220562004 2.792704876656949 0.15479300871490115 -1.077186552238861 0.6362611291314074
P 3.537384894598123 2.2339087004122673 2.0079170328282245 -3.5673670697367594 1.136891167188345 -0.45516162131149346
P 8.229019125811806 9.04554007732203 1.9722414463318214 2.6431660406904154 0.779661836848967 -0.14205242121978115
P 5.259409351356181 0.5366462381527641 10.748476068709024 0.6329482627080906 0.2777968979436635 -0.1236482076809806
Ni 6.872316652908799 2.0160778326216633 11.715709109575359 -1.3890621370337883 0.42370340280221225 -2.4374358788060153
Ni 3.4202927108523014 4.644384532708558 12.521643914377217 -0.17767376996781659 -0.06050422803264418 1.0324341877238348
Ni 7.199518000340833 9.022356200235818 5.932969003012894 -0.2631922606566113 -0.5877449266985748 0.9084885034070933
Ni 5.644809642359956 2.027524344173739 -0.1814835024195051 0.7150726401136718 -1.6676409074487988 4.191420601058381
Ni 7.384135219857381 1.0720502483305325 9.392694946162095 -1.829205944780211 2.112729717905323 1.1419683246009364
Ni 0.5003345258504341 3.513234631700547 11.511526799452628 2.367373831881607 0.7182289263544662 -2.11121636658459
Ni 8.587369996483913 2.6920600164773476 13.059611192551728 0.4179472170447253 -1.3823947523159417 1.4732169146058371
Ni 5.517143509008242 9.00314107264676 12.738968133295845 0.2296589047858561 -0.0744087539288783 0.32772874977710015
Ni 8.50534917354273 5.921871516239291 6.984199735659774 -1.4771645863996754 2.2883288647322977 1.089225485681266
Ni 3.3605456735050745 9.153587640464409 4.698812695138677 -0.7432609296224296 -0.5938106732766806 -0.2549248784414964
Ni 2.8431914985108167 2.546895732269387 4.261226632082608 -0.7274969819199535 -0.35021587513602265 -1.289176321879728
Ni 2.6926135772819157 5.027870816862642 4.3916540017865975 -3.026163995353466 -2.3485176184070524 0.3529109054696825
Ni 3.8649240079448077 1.6179831726589067 6.040243457506181 2.171993902883279 -0.08447436569499644 -0.2903693352920354
Ni 6.932392073784159 8.089925245681052 3.460715784926861 -0.32179695767369737 -1.3754121503505214 0.29085347401730555
Ni 0.27814460128352353 0.4216303765433971 6.2665072142992475 0.2614014873047756 -0.7371386187747756 -0.04387099035133735
Ni 3.327566584893972 4.212700929011023 6.674940325966293 0.0781085713779687 0.5002099198003837 0.05819023518748689
Ni 7.944094812030307 1.8763178030481251 1.912822792512728 0.37483830167039317 0.20542754304231717 0.14066582528489968
Ni 0.47457236894904986 2.9829984400169454 4.846556197400462 -1.1439475598144944 -0.9591153244250258 1.7960358857861456
Ni 4.347732235779441 2.5845660141395372 11.892289376800509 -0.4728718941070631 0.09924432491531941 -2.5896140756058883
Ni 1.0315089561858455 3.3925583763048137 2.8228054490843006 -0.5873476912601562 0.7935128837994463 0.1944237357326458
Ni 2.2454865653755958 5.204878920913015 9.270740809722597 0.15385558450229633 0.4093731022224692 -0.3025144552950016
Ni 4.9640142942204895 7.766345499445003 6.2917195633506715 2.889536601803998 1.640444035319033 0.23848498771791832
Ni 9.077787339784722 3.8398918007145313 6.959523120878534 -1.6104181783809042 0.12608844169135705 -1.8933709094938942
Ni 3.0859138377339255 6.915635131462842 6.031798371401243 -3.158401230255038 -2.7169764989136627 0.5509912641183091
P 5.545891141299683 1.174665409678934 7.099494254148729 2.1727788606784193 -3.9006262624137853 0.5624869234627344
P 4.07295966421052 6.058966948041691 0.8856156605454288 0.05384532795522985 -0.5066248221877919 -0.43713407438582136
P 2.713048415118325 3.1317467958748177 10.64591157224782 -1.3626011146287824 0.6488675050415084 -0.950098722748712
P 8.535157015510716 7.387353378433087 5.032487889268196 1.0346124263220762 2.061279886765463 -0.24979347075220207
P 6.033540680577653 3.917315254261848 9.324296410206534 0.5013188365938462 0.31628656937842947 0.2083745414857831
P 2.599821774617959 8.772822248400571 6.952629881503689 0.78496268023659 1.3030006293573302 -0.4405950363512283
P 5.634216927981027 4.006945192669206 13.023358589284465 0.6945704063952618 0.47167735957832957 1.6201947981516935
P 6.898043156741414 3.4045303015019024 3.4603995985012004 2.8357051578058385 0.46243758614761643 -1.6262505174274702
Ni 5.998891527166331 6.679761934397942 12.988713188827747 0.9850166176718197 -0.898404379698214 1.3187247249608063
Ni 3.1768197807077447 -0.15905396920934797 10.567831351644237 1.8488121490469127 0.7939278598496778 -1.6529943611802176
Ni 6.869539466499443 6.340766927112663 5.165538574242643 -2.71801471037019 -1.5913614188597691 0.5899046533540551
Ni 3.7851455753814482 2.5711398190321435 8.524526771585714 -0.4337021658861369 0.8196327208149498 1.5704822614179146
Ni 1.0267896157672438 1.3782725795081063 10.266837824473198 -0.36364191873394147 0.8205984271623287 1.06665557080055
Ni 1.4255785723323395 8.061384025893007 10.556063024234591 -1.8809964470889409 -1.3418775089281856 -0.9428037317491956
Ni 3.525900853499975 0.5834390144344577 12.647003857122785 -0.8837827731302972 0.4496324639631482 0.1426489171531995
Ni 6.467710616702485 1.630302246157165 4.623615681912104 -0.7182081004188599 -0.8351045911983037 0.3979003256961792
Ni 2.0075492432767152 8.442778037853557 2.592587954612508 0.08949367328645877 -0.04983954922994642 -0.21373632001832868
Ni 5.622366973808673 3.1227866167500378 7.3193995675984835 0.44133834227515606 2.448924596171905 0.24989168689296318
Ni 0.07040073723852332 5.39571666269106 4.871630625370069 0.640045278764188 -0.38793318718113834 -0.4520804112830085
Ni 5.517978541408352 7.533634166636701 10.808293473955137 -1.068832780957527 -0.5010378150183178 0.8105621259722492
Ni 5.527811282479316 5.031492418058626 11.301920531683786 -0.2886739498674835 0.6969347928623804 -2.632366893192383
Ni 7.688293426000974 4.018297880356101 0.9327715351853727 -1.0820258826090334 1.004953980025695 0.09329453508978772
Ni 5.389899583049842 1.7802140179432815 2.289850241787755 2.420750447730534 -1.1733234418734502 2.0010667076106765
Ni 7.354974762559142 6.801864312544426 9.724805158220395 0.031590373211771404 -2.5132129738373297 -0.9166808094098987
Ni 3.9101377285755055 6.438944219638007 3.4361620794090064 1.5746366499059203 2.918687512336341 -2.1961172782940435
Ni 0.24118831902740048 8.455772643181117 0.36831496515432416 -0.3685918065400491 0.4425729860132055 1.2117017845413325
Ni 5.377880745920162 3.940808750103157 2.002218171257134 -0.638919649800177 1.8170847360366447 -2.700407538811388
Ni 6.052652601915013 6.154001141083471 1.8906587808410331 -1.193569850827312 0.6972968041874894 0.10517251747429629
Ni 8.542850572455555 4.201573418600562 9.708395364200248 0.11329746057427585 0.18838164330362395 -3.5446161491934887
Ni 3.7445198417580987 7.013230716024062 12.37254090430896 -1.562424681220761 0.8492184048918664 0.3919988726100797
Ni 5.519160722109632 5.536837138309722 7.762259470116373 -1.8539106466157425 -2.1574057206564587 0.1661824814987654
Ni 1.6288292114738243 5.830477689166531 11.461513988117925 -0.24305820891089755 0.005862886538680225 0.6724203526607838
P 9.242138604422186 1.1963387225357327 8.33393860128905 0.5167943065216261 0.9355491070693114 -1.0236880661000887
P 3.7940025482545296 6.893792935648718 9.668545553941945 -1.265032377643673 -0.7411420835072139 0.9854051113594899
P 4.636418886554695 5.557309505692205 5.314242832883882 1.0816034503596341 -0.5003497878123576 0.6571428576764231
P 8.67454174962353 0.9959684760553029 11.603957380235636 -1.1610749635234003 0.568938335515033 -1.3120989921141726
P 0.7276134568647593 3.2637382094113736 0.8040864746577936 -0.7907538329970704 0.6755930939618107 -0.8336051238346417
P 6.59453233526757 7.156706170658767 7.59787255241014 2.7618023969791015 3.478650126715325 -0.032876696123362734
P 1.299779533897726 5.469997016754816 7.1289633919634126 1.0635620194768909 -0.5841410113974004 -0.29471604229650533
P 8.242717410128224 6.773932947880057 12.527932928060295 0.6307044609792364 -2.556215445540785 2.073942569834796
