# total energy = -340877.4299087231 ev
CRYSTAL
PRIMVEC
9.16142421139772 0.00000000000000 0.00000000000000
0.00000000000000 9.16142421139772 0.00000000000000
0.00000000000000 0.00000000000000 13.40867038432748
PRIMCOORD
 96 1
Ni 1.4154492221596684 9.18176270336673 13.194439996738229 -0.29539995573740735 -0.32813267008373814 -0.9772845391348846
Ni 1.3117785443131897 5.616676873757629 4.949381628296079 1.57535990122519 -1.4145579673120476 0.2215100504264766
Ni 5.843412964781178 4.788795601729094 8.220721960821844 1.0400104574091962 -0.07035592401574334 1.2706435531828633
Ni 3.053264535932074 2.7164264471744315 1.504118067647221 -0.9747224348346633 -0.6964054027214716 -0.46440910805169056
Ni 0.8604318127132763 4.848363182796415 9.21506906155963 1.9325977162050008 -0.5101613745861407 -1.2198876627862347
Ni 6.524958805805666 7.932061970390383 1.585655660427483 -0.37066565834994225 0.8011619157042719 -0.08039016832329382
Ni 6.755954959147934 7.9141788700761095 10.232585404456634 -0.005672110684112812 -0.9804804203643631 -0.6487404925453407
Ni 9.662371024312847 1.53382398607398 7.079750844213261 -1.1847167713120563 0.30257359066771117 -0.020659585231880547
Ni 4.633353714929766 1.7577841655221085 10.720044638525199 -0.2399263481501352 -0.6323864766673496 0.7777401943462219
Ni 8.17179812255428 0.879821051189265 4.715065374772513 -0.1171281471742757 0.2723129920109568 -1.722098157956415
Ni 2.056144272046169 3.585671550104066 3.7761494720119395 1.0485125813429363 0.9746473586223536 0.6568356108486495
Ni 3.9853112027215185 7.331988676033335 2.083828264120797 0.10119013578778056 1.2682519130222352 -0.2903294831930355
Ni 6.841669245285408 2.439165100908451 12.302267513251985 -2.074116890629131 1.0769075875458614 0.257529148833563
Ni 7.993022087957587 6.159335521767568 0.9915372918922987 0.961341385542067 -1.1339469969583569 0.8774612017876436
Ni 3.8189214138343015 5.4667501644117795 4.7030245147607035 -0.5609447757865952 0.18239020160687944 -0.048530600610535775
Ni 9.003444739987101 7.954333392964154 2.3392496908994826 0.050593653787151575 0.6941585156688239 0.2497217369740022
Ni 8.206144302409923 3.447013392698052 8.091596265442984 -0.8746147334777841 -0.7896071209871369 0.5254278138269081
Ni 8.64262204230386 5.833692693555029 7.288657887326153 0.09386737687412221 -0.6693301437712342 -0.20369461951161047
Ni 5.302815637248039 8.600287100422578 12.728434986192191 0.9849186586413748 -0.2570380681297573 -0.847989674691088
Ni 5.941550142325496 4.499312915391781 4.746937970055996 0.4636848282911563 0.6623043472727045 -0.7899120538220654
Ni 4.228537857559462 8.065305726010672 9.819477541914994 -0.04809222752153653 -0.03699997426311692 -0.09236045331129254
Ni 2.642768595470146 3.209714179408949 10.03035612354614 0.8805935767690383 0.9177570731932131 -0.16082533095191012
Ni 1.709072872299262 6.608346090160443 1.2899184696923447 -1.0310475917889532 -0.6449329458737925 0.10876871946598689
Ni 0.4661195283503064 3.8949703972916736 2.1398897680926914 1.4720784301260197 -2.1904888763636725 -2.005497746798836
P 0.9180938175176008 2.587351139629447 8.925696312314413 0.4173980294094747 -1.1725482542703225 -0.5435170672284511
P 7.207338336445213 4.335808975172083 6.422994901313976 0.16507999246320604 -0.02560278816976881 0.3349959728624747
P 3.049206024948865 5.245162793868055 10.933778836123535 0.03164025261310035 0.7255390868626344 0.30626286659384033
P 3.3197703700213337 9.14813111460971 11.631418551288434 -0.46422013196933604 0.6247685551107756 -0.16870447658967075
P 2.8616167001358126 5.079973151569552 6.669392325116454 -0.24985183479396322 -1.0506558529381842 -0.5071508698945911
P 2.713586405628619 5.429976207105685 2.753966299555461 -0.04692366113473209 -0.6024169268884528 0.6373708172558185
P 4.816243229055716 2.823642596241004 0.09693061795856299 -2.468027121329311 -1.7826975168060266 -0.30874526669606184
P 2.7482257510631842 8.93292009540755 7.094031672476524 -1.048154426672569 -0.5129422797653876 -1.138096500350356
Ni 2.843898505459683 2.119523005639483 6.660099892407044 -1.5726553578098335 0.9578619116338987 -0.9356041286769627
Ni 8.790340848383448 1.4582972038040638 12.101808219524235 1.5180276431626243 0.3977236909089989 0.496589292328661
Ni 5.134300397913633 6.441479907207476 11.432568003675021 -0.8262872500169899 -0.804381193972518 -0.07349344120346052
Ni 3.0962407775172482 7.272989103275177 12.890398890980112 0.43848236088359965 -0.033830318285883676 -0.9314409984382088
Ni 1.0881023690196427 9.19935263810208 5.307580494047964 1.0591772601456337 -1.4248580636864752 0.5336728274445195
Ni 8.35620843312089 3.944836029981527 4.5210016713774435 -0.19834723915676808 -1.071096123070407 0.15789530178930872
Ni 7.930825178104304 2.4835705246908724 1.0854519689576962 0.44233567319141887 0.0876332230389523 -0.025537739259788274
Ni 6.696094212501691 2.1927319475510427 5.964189854157787 -0.20882217054616292 0.7591104950601765 -0.13244652269890095
Ni 9.108361371544 8.337271769007364 11.139427160598215 -1.146068462812239 0.11013834612000385 0.3948296571906555
Ni 8.868616057955762 3.271819475018818 10.562841009825034 0.354637401242486 0.11854559634709261 0.32944573246820685
Ni 1.3514841574085095 1.1058938550905035 10.728572092302109 1.5451849203037067 -0.11374174720054606 -0.9270729512775002
Ni 2.0201490358090877 7.422778391255905 10.491627426135013 0.9905259775258232 -0.31074764183807124 -0.29598051083122573
Ni 6.6650003382872205 2.756177867391458 9.830942148335735 -1.2918908925974137 1.3063212090901308 -0.024023616608107014
Ni 4.924192292069595 3.9901209505007165 11.665556766811529 -0.21254615636496943 0.2582847960526648 -0.16974525914935928
Ni 3.5459842598574287 5.62178894854009 8.68718229415765 -0.21522010365270675 0.21031315326939265 0.7181258251176987
Ni 5.666579152144847 0.04477462918337711 3.5898097654790444 -0.15887052121838446 -0.011753283881186209 0.024695445864151018
Ni 3.6101875216414627 9.192573184089497 4.935221730834121 0.5999712935614376 -0.471006301653234 0.1401397775781006
Ni 8.706962725453012 4.2722012059702354 12.686546205676333 -0.8657513695498832 -0.6164867747179577 1.9441095734993425
Ni -0.25108807306523745 5.6258657823719815 3.0751713338170594 1.146228128318555 3.1155440258801956 1.226149070314914
Ni 0.245135895670676 5.944326053900918 11.210922000015513 0.08189889165833637 -0.6412035607383473 1.2061595145668647
Ni 5.954852530469105 1.205038789312366 1.0008993514267028 -1.3424228399086944 -0.19365908965247938 -0.17083849221353803
Ni 8.125532929630568 8.151817056065841 7.648466415334809 0.9616141795874793 -0.9667152482594705 1.1868867823801816
Ni 7.362367959149182 7.059079006329487 3.9076892027047405 -1.46044624520373 1.4924929892266297 1.4324271342829848
Ni 3.612661106213621 0.48576803513515465 0.5353890577950948 -0.09190151139700302 0.048829362797877196 0.6823743785497023
P 7.478892115346546 4.250140496156315 2.3286975623431405 -0.630289742039321 -0.4443575887174541 1.0712511605910324
P 2.031802367571258 8.696921804374917 1.9475960518803668 0.9357810205744592 0.6144972550917546 -0.11498050470365359
P 4.2795853139893465 2.011638072595993 3.720503896705141 -0.15137138462786187 -0.24076735599419177 -0.27696360340909076
P 4.496537003816359 2.7518078679806437 8.575073028350372 0.4799632537362057 -0.7914439170855596 1.4177877871032551
P 1.092179202851534 2.6651407937116716 13.821523918480818 -0.500862208672402 -0.05515479079527275 -1.6036412646683866
P 9.235357035763503 7.172240919793582 4.829869931621008 -0.2909133807209635 2.351672619096266 0.19551851145872134
P 5.343913786843241 6.453875314341294 0.4621269796223552 1.1685990398145873 1.3398113704277765 -1.6910472021878813
P 7.1312801915635 4.582920073930749 11.261446339115508 -1.188970404382088 0.18318338693213612 0.24677216742737496
Ni 7.230553385726141 6.861384630467949 12.482868503577473 -0.15148091362253266 0.225281858764083 -1.3935811079500646
Ni 5.87864780279793 5.983793469963364 2.5767037322599546 -0.19185674633641794 -1.7232942351470448 0.5549829017762056
Ni 2.2389696562017303 7.535408942108204 3.7220860746888884 -0.8286508651531599 -0.21709135253349063 0.49910640232355974
Ni 0.668802299765698 3.996433171871892 6.466854304205655 1.7857327040879245 -1.1498050470365357 -0.10498636960541918
Ni 4.799276271175574 3.549639668169619 6.674179169334798 -1.3337548798210515 0.045167340565257695 -1.5747667477258815
Ni 8.24191050303847 0.9477035409887761 9.530722272670381 0.726250253997046 -0.06219498547150579 -0.7351699250841791
Ni 3.063745205378554 1.0111922116741858 8.881795683013198 0.3941822534146437 0.5493845817528216 0.571957324847015
Ni 2.208608695934566 1.3236425888352106 3.5492750434808342 0.4984407437151028 -1.2004107850085455 -0.6256265322356968
Ni 6.390661486386125 2.53546083216016 3.459289701315433 0.46257462594611304 -0.6652042945283189 -0.7058819747533391
Ni 6.698421214284389 8.658663696325526 5.825155162211344 -1.575425721466119 0.6180782875747936 -0.8893597529974424
Ni 1.5502137742206177 6.725135927663704 7.170072410651989 1.0473172754832543 1.3241219847169776 0.4266786833804523
Ni 7.706260344649649 5.772503540379293 9.5303200861418 -3.137044361845817 -1.5974613611099198 -0.12882280990338457
Ni 3.703386691465802 5.229661663882527 0.6881787122476088 0.1861661237095439 -1.2192741975719517 -0.046665008156706725
Ni 7.866951727596558 9.10015273533417 0.05009375215595272 0.4185488551844662 -0.5463537653462978 0.03802790130699902
Ni 4.183628555438267 7.257368874773212 6.769326974116538 -0.4021580725312686 -0.04453099253283944 -0.420189990332315
Ni 0.5444460418989326 1.0476821648256993 1.8270252945514385 -0.6116618425254885 1.1011749447336585 0.37899911791630214
Ni 4.525313037672472 4.055350291810979 2.5837030604567297 0.2703646100353344 -0.6774129207793688 1.6509066254132536
Ni 6.632770447454425 6.499114427738777 6.527676084265304 -1.8992592499538712 -0.45873134094062284 -0.49839009298282555
Ni 1.1515910397050526 -0.2901056631925234 8.477605550925407 -0.8666265730659849 -0.8980791351483114 1.0923828003633251
Ni 6.172051578753332 4.220301737076607 0.6361015117217583 0.8727846222475807 2.2099816949809616 -0.2314864449128981
Ni 4.603203467422452 0.7650943664476705 6.9417092506654186 2.733460869721931 -0.07704567733109312 0.32294058435983736
Ni 2.9013956046258635 2.4019697180826554 12.238469186423838 -0.37223763082275246 -0.7357903322769973 1.6504584821322417
Ni 1.907683390594933 4.57134003356331 12.811032555768746 -0.2438593646559542 0.5308286731275051 -0.7994457043441136
Ni 5.807042110146104 0.6341400507702799 9.054674508761378 -0.4913915501778054 -0.05294004253214108 -0.4017484957976758
P 7.165232430172466 0.7921205682545909 7.450205863448977 0.19510045008469623 1.543536071846374 0.37839233757023866
P 5.187858084613043 7.131179415895746 4.7776699680089845 1.0114982089021158 0.9604432992078299 -0.9037962401377467
P 0.46388230852615386 7.123465496600346 13.031176085836275 -1.2934245556331208 0.18721539090966466 -0.44630545647244424
P 5.532556675455546 6.939265898793586 8.434563347084975 0.7270791776562445 0.005383375799100406 1.1424388364794518
P 6.7246320493249305 0.608663045819478 11.185391858803532 0.06471492367988209 0.40514800839752807 0.5124031194324659
P 7.4862945462143395 0.6051404781602371 2.3908862269145157 1.1808025238593147 0.13159445911125078 0.6626460468828395
P 0.6926000156347342 2.2902186639671247 4.873328064126536 -0.17490726296627299 -0.3301306743503734 1.0846334954352093
P 0.17329750284057893 6.858398006132675 9.20717099763497 2.465289924903806 3.6565650661596703 -1.0781892824717625
