# total energy = -340896.8838554936 ev
CRYSTAL
PRIMVEC
9.04318220812731 0.00000000000000 0.00000000000000

0.00000000000000 9.04318220812731 0.00000000000000

0.00000000000000 0.00000000000000 13.23561126046823

PRIMCOORD
 96 1
Ni 6.500555977379952 2.006202872583848 11.375544765731116 0.39396293831498597 0.40707967820260216 1.0082915290393604
Ni 4.492110395575782 0.33086291227388803 6.28290466482063 -0.10818790726185239 0.13913499046267006 -0.7070999063208403
Ni 2.6990010716518924 1.5685761496038204 4.750750836409427 0.40115148564362524 -0.15756928590845765 1.1421056215097491
Ni 3.521026346358658 4.159176594546032 4.874781699475578 -0.691895173555944 0.4182742613668409 -0.3320389471166798
Ni 5.207923493699149 4.518579790284987 2.5377430441648627 -0.6600731439493406 -0.06066826441433423 0.3203959635611127
Ni 7.20681043176993 6.156155421143072 2.5613421327993486 0.7152089085812199 -0.41828351733822156 0.0521370870148715
Ni 4.764916077226816 4.68186349061618 11.35469842180093 1.8816551637188625 1.1427314280192062 -0.08168343321342061
Ni 5.546843881437984 7.799202177316861 12.33513945178526 -0.22652884379730664 0.0017239246696421926 0.915112179371198
Ni 1.6973872388549003 6.652228231586574 0.5902629804240935 0.8394353573631737 -0.2352839642821174 -1.195591252132715
Ni 2.7129004429084858 1.5772756910149084 0.36559958427832834 0.2168848929496394 0.03713367162750379 0.13620290441753963
Ni 0.5711538318214218 9.362858835727717 4.674937317261966 0.16440302100083945 -1.174112513433649 0.9406301211366446
Ni 8.586365984102894 2.2381424132403835 1.5205071138755055 0.6461179673208292 0.898728595806852 -0.22564129898603075
Ni 6.85188361128928 0.6799152815064691 4.983750238036212 -0.055550740682110786 -0.7815960777572022 -0.7207563207620102
Ni 0.8544269970310154 7.720942477346429 2.6652546281136837 0.896125096745734 -0.9417202688770298 0.3787697755143154
Ni 7.692772964357302 3.7812439181924007 3.803756016309617 -0.31987634361221684 0.8395803675814703 0.0016727597167326032
Ni 7.658309396459529 3.920906826251491 12.639784369818996 0.7951774159860627 -0.5311639449797368 0.31398491782844634
Ni 8.01452034883246 8.735858831365574 7.132961996144953 -1.0388588603032558 0.29680994871105654 -0.4528036626022782
Ni 6.7837613187219965 0.6711424903184269 0.5228541949434368 -0.1918444050412438 0.21054918053959867 -0.9211254754448137
Ni 1.7778896480456552 6.352645687026774 9.260811948930126 0.9267153108277653 1.0673029745765619 -1.245159549979146
Ni 0.0981619356643234 4.882432231735225 1.4419670752525324 -0.3127574731792484 -0.8938072472458348 0.046021718145752996
Ni 6.1931601232783855 1.9861812668830692 6.966617178591668 1.6345924616342624 0.6671218232660059 1.1985719320275938
Ni 3.4139460242706186 4.266103182534292 0.5751427795515995 0.09092397797508212 0.3935225083434578 -0.40955436499533976
Ni 6.102258054396621 5.662008808537991 4.7142335618022395 -1.0176418599060086 0.5418764463012345 -0.08346417926292723
Ni 5.463158272063546 2.9344855397857117 9.412637032918294 -0.3696968666787698 0.3568632052492112 -0.6616417739880411
P 0.22408553679423862 5.553780002292771 12.469944362291299 1.0342704696016252 -0.3893213257779166 -0.363353183848929
P 3.8703283074238235 6.1822178726469765 12.759592971050598 -0.14871826327573096 0.048012523323536664 -1.2265223944939327
P 2.4445259206040557 8.555619164146865 1.3697138569923333 0.023182351653734272 0.3187735974663413 -0.19146979531064443
P 6.192373366414806 7.763635341173608 5.914928532223347 1.1645899186551945 0.1312211349322321 -0.9090150653345248
P 4.7003929712308565 1.1147983029645379 12.610983642702536 0.6504448768309572 -0.3119164653351918 1.8993551521017868
P 4.010144949582694 6.19656940302057 8.265480414904738 -0.7469669177191071 -0.728979480002751 -0.4140633086092869
P 4.6955006095849114 0.9128911708591699 3.76569054888582 0.44707061677324295 -0.6953273391659445 -0.7321833316520293
P 0.2832966774836777 5.833946834368572 3.551524478800337 -0.2733776858300453 -1.1276889318637868 -0.414675231161673
Ni 1.6448373062771113 1.1693377356571286 2.642237920421894 -0.7077683931427746 0.05969278787494236 -1.085420510112879
Ni 2.1031729168157582 6.396007746347115 4.751981613525903 -0.14005056029840396 0.6282853100147824 0.3789968039234569
Ni 6.04680526028769 5.5695874850231055 9.168135607673252 -0.44775658709667404 0.3007493929747788 0.26258753719307676
Ni 8.702724611271782 2.2369215836244827 10.189818975037424 -0.49908069129194693 1.012218117787276 -0.1348178511445549
Ni 2.3646836637241218 5.193291624673016 6.958517200169722 -0.2828208335208161 -0.29302014265132115 0.3842742502723124
Ni 0.3418738910910823 9.106755911858679 9.16259032826236 0.3293423741211231 0.04335934082224145 0.1535398530340904
Ni 1.36422735826665 1.1593902350831193 11.473488760701047 0.09756153789625778 -0.8740184946546818 -0.3548567163421437
Ni 4.112251521383729 6.79871874231237 1.6440089507747666 0.2403554652677538 0.09874090291633962 -0.23304119099452766
Ni 5.524733300616664 7.7645396594076095 8.01252180553532 0.617953074850839 0.5355209363968518 0.9760498953968351
Ni 5.119879070436826 2.479984238559229 5.0012081015435985 0.4776106943436291 1.4547666783204494 -0.3219494240911616
Ni 0.8125760534796904 7.338433950728752 6.805937010456164 -0.259468789058437 -0.4264740235688139 0.25846091661921294
Ni 4.920793411221541 4.629494421685191 6.886567832836147 0.6814963468201231 0.016320848647210603 0.5696335618098448
Ni 8.194407331939908 7.01417256156307 9.150916484179643 -0.31943462808910794 0.558140987789213 0.029187420197233607
Ni 4.779258564418069 0.4258950025303345 10.685572561144324 -0.33133369351953906 -0.7876836787121789 -2.516237619596266
Ni 8.297888467456625 7.329815797958724 4.703022728655331 -0.945323669957572 0.18942551118710602 0.39629801420606586
Ni 7.407297784247917 6.081395432738222 6.73986480732536 -0.6581777266988407 0.04423994365498187 0.907975825436733
Ni 2.26598637166527 5.309180006360222 2.5990106045184196 -0.03508733062143635 -0.7701161021420608 -0.2633311002273207
Ni 2.3956656064209905 5.237630347686077 11.303781687953746 -0.514936427377281 -0.1979430617398139 1.0760583521716887
Ni 1.078399494046004 3.25430672642245 3.774055492550328 0.14847349425477654 0.7301804422893877 -0.13091671631793583
Ni 3.723810667151007 2.622776087707962 2.7103620216256457 -0.3111932140159221 0.3513463891960401 -0.4493452717400326
Ni 0.936566222225312 3.3312189922242212 8.303824412344607 0.9859139326751084 0.03128132661178483 -1.1395882544045344
Ni 3.638054169020707 2.6087501118986087 7.060046816937465 -0.8586782647531856 -0.19696552831789305 0.32935265853376827
Ni 4.12456833573082 6.944847525744566 6.09597846857972 0.0846599993432413 -0.5170395897632128 -0.7876232577878888
Ni 0.7354693592576087 7.364966647714337 11.280037004083585 -0.06836177640385001 -0.04257926812310731 0.5797032873410211
P 0.13064866390256963 5.548571129264926 7.926993195599988 1.0913487026718558 -0.7253056306955895 0.09030819876795414
P 8.36630014185879 1.7419701277911417 7.948011359994636 -0.08937977341641382 -0.853302345153253 0.8221035509529454
P 1.8795440607296898 3.109832845358475 10.309812961506996 -0.46795414509047156 0.8280458845793095 1.0156117168498573
P 4.028855293844171 5.994996868661782 3.7533411790823044 0.4887320010677712 0.6117060654998626 0.3943966834182949
P 6.998943842502497 4.118961562680015 10.555386908177562 -0.3778500919135235 -0.5118449329361507 -0.870401723837701
P 6.4254252184991625 7.759529736391244 10.3030893554372 -0.9912584848164736 -0.37004936492218204 -0.7548635468583644
P 2.327498097942007 8.411778305846692 5.758271675910914 1.0604975216189543 0.602549338701259 -0.43349313519912436
P 7.029862482922985 3.9883870528726333 1.603812005273429 -0.09610115130064739 0.18240845643932455 -0.4717269818693424
Ni 5.406774030173594 3.0015949959309145 0.24691324197512188 0.20869721493252447 -0.11781283194612613 0.5115600547058803
Ni 1.435044519171256 0.959128962163633 7.035204290731228 -0.35793021306114486 0.876322203087194 -0.19322740143169947
Ni 6.81940954350631 0.5959122564318968 9.252036444787382 0.31288679966826116 0.36477577522806853 -0.43879654968990883
Ni 2.621690905827161 1.397198801078321 9.277396241023467 1.1166131336655996 0.18608384840838277 -0.7878600563890431
Ni 6.334921049640358 2.01936070288856 2.581235325310899 -0.33036593028963107 -0.1356629727536696 0.40962172789816553
Ni 4.075988360200295 6.943029846094224 10.35388762359573 0.26751171396757156 0.4556221058876799 0.0560338509661164
Ni 8.176103930883732 7.021181027876577 0.43571589855158366 -0.12413414617846365 0.8369871529329972 0.019740158741404713
Ni 7.6291541765953435 3.879615655687012 8.159145251041513 -0.5928333969650758 -0.024701873622054234 -0.24776564168889592
Ni 3.055872176335645 8.543655033911035 12.186848443455569 -0.19434891663065237 -0.890580255668105 0.7256151915162085
Ni 0.2297501862120199 4.874166763076458 10.167861223997651 -1.2109718483538434 -0.9769258702438853 0.7505435793267718
Ni 8.66798974790381 2.4636070353414734 5.893778337366536 -0.8342615264717181 0.2469459740010779 -0.17559966104760724
Ni 3.831343148356047 2.6917032235035063 11.475433949222381 -1.5926497986538894 -0.5199161399800595 -0.49030603042311044
Ni 1.1801172090064187 3.29731610163153 12.480996035429023 -0.6606986933484815 1.0236217316385274 0.7541359246637206
Ni 2.9946317455291083 8.294108417238501 7.944384139558058 0.17130154789288563 -0.33692918532944555 0.8508999063593474
Ni 5.640051961816451 7.816158144204378 3.5151537037470564 -0.23452985972491222 0.48503295494962917 0.447098641797701
Ni 3.144079376880087 8.421472597315182 3.5406853204476025 0.13778927506805302 -0.6528010357679596 0.6280726797833441
Ni 3.3952447231914813 4.2395252696370065 9.107887213969414 0.0452915248479478 -0.18380610811779957 0.012364949323256125
Ni 7.350379994599903 6.151064109485647 11.4395126203314 0.001913157862312834 -0.38101666256696315 -0.14211052815122624
Ni 0.5627463851999159 8.997677046473497 0.2961253359512137 -0.13130700977781903 0.4501754809508118 0.09454589099838556
Ni 4.561417345029606 0.24147648075230882 1.5481430791065713 0.01695925356215789 0.24293171063536229 -0.15670590946689786
Ni 6.005921032928511 5.594257286446649 0.24079010321270217 -0.557711356450962 0.24049636172099226 0.5909798886961047
Ni 7.930111284870823 8.916062325854922 11.4159397569257 0.4142831379295769 -0.07950108085012114 0.38008463767099704
Ni 0.24243867535328573 4.990905203903626 5.609503187553668 -0.46520666425232143 -0.5088405988921882 0.02447484521291269
Ni 8.061354990171365 8.888598181088316 2.5171092150196657 -1.7762391627751923 0.8034507117384485 0.09415893997261203
P 8.424818574780984 1.720664390198082 3.6936353763188667 -0.7046486165668703 -0.26720935223580433 -0.46439059610892924
P 1.7805664300182977 3.2496675738820255 1.5696902696681092 -0.047357149127724894 -0.2877226416978077 0.2631639785218371
P 4.8323330015715795 1.0782457599462238 8.41399750279293 -1.2960020865523099 -0.28343507006604735 -0.40526267959852136
P 8.404417155421925 1.701402411813864 12.602591569491011 0.6806000602580988 -0.1881790403745146 -0.9476926844103806
P 6.256290579193985 7.7533984587647184 1.3091869332724229 0.4610738730308705 -0.5035454119315199 0.5098281596164381
P 1.6495668906409358 3.2191197039374773 5.958328572909515 1.9481444056903483 -0.010683447855775149 0.5032628476940946
P 6.797751121801989 4.004700953814009 5.890350066941439 0.25300452149033203 -0.521380640340728 0.5086094567179886
P 2.225481957964372 8.478281868775113 10.093278481966664 0.41325983887138507 -0.5234352088769114 0.5725885306731107
