# total energy = -340865.05423637625 ev
CRYSTAL
PRIMVEC
9.33100774775039 0.00000000000000 0.00000000000000

0.00000000000000 9.33100774775039 0.00000000000000

0.00000000000000 0.00000000000000 13.65687303154633

PRIMCOORD
 96 1
Ni 4.021514998692186 7.615539213155529 3.60407650899885 -2.0258665402631753 0.7847024845966679 0.5002831962404803
Ni 8.286867889152568 3.843749972055269 1.1011699410515525 0.819925055244388 -1.0778321562426598 1.0786775349620907
Ni 1.8509919864555733 5.932244096088368 8.990974528803491 0.7605397713075354 -0.9008808662631645 0.30550876203663513
Ni 7.712273769406901 5.796776527104337 4.404860785754515 -0.10038229517450455 0.8019383888589802 -0.11174965647118172
Ni 1.533765719562746 3.781782750287605 3.0289850465457273 0.47060572378070564 -0.3088188002464746 0.19133918327005112
Ni 9.023354991531717 5.459292642615125 13.05748644566014 1.2062129935126193 0.42471564611681045 0.7187338910153429
Ni 0.352700891755996 6.037600503403334 2.913912260970459 -0.3970454338950517 -0.7259319514256788 -0.468027164420252
Ni 2.2366798564366928 5.979188395548256 4.436612338567496 0.6003752138680757 0.6638022719744697 0.2285859834366515
Ni 0.5337364365723383 3.7658173962077273 10.275759105184347 -1.1504714769759414 0.9559356411454634 -1.15632382199166
Ni 2.024026192216687 7.379725987961671 10.83384667240675 -0.44296019414929516 0.10304415827738382 1.054259254018726
Ni 6.1083482033645495 2.9781123928674704 3.572227913706365 1.1243516399604379 -1.0267926731673414 2.367921219744644
Ni 7.54899979764202 0.39574576312121357 7.820676750717824 0.39717887414912245 -3.03712640790224 3.351384119776099
Ni 9.453710395107446 6.74141041701116 6.3050365135046755 -0.00011544253194173667 -1.5195793039204604 -0.43377261411275614
Ni 4.315171140274801 2.950987153644673 2.3034366844283203 -2.510283716005677 0.7814281847207704 -1.362030329726977
Ni 8.267468724259482 1.1226321917348538 10.436978389065892 0.5129859885191295 0.5826623699693448 0.21913589376734516
Ni 0.22335073138375353 1.3964879350956674 2.5978924933660763 -0.23486538868746 1.0119910893781345 1.1011150380300003
Ni 4.83066265759969 4.724830368894849 12.316901164723491 1.715956306724735 0.7687917269036825 -0.9858640532737795
Ni 0.5009538074146311 9.356854535756693 0.8526366862366034 0.597484522583842 -0.8213731005448242 -0.9424049536488802
Ni 0.7878766938809163 0.840712591567593 8.569646875123894 0.12614783417438274 2.7605201878325683 0.13571902280258563
Ni 6.410299610743197 6.7845943203902825 6.438750786152289 -0.24162019091279033 0.020990229098421912 0.5136380202808315
Ni -0.11161378104142253 8.639505330056581 12.341101133049712 -0.7866953466569806 -2.2723705416308286 0.047542525665653604
Ni 1.9157118554783885 5.376881183098184 1.0920311521644497 -2.135119912675065 -0.46906948964183737 0.10124824271922563
Ni 6.092168236108845 4.891724771625829 2.413524845719854 0.13347367841183466 0.32842808983696986 -0.9511904131509942
Ni 5.295085570085785 8.555451613194194 8.288506414094956 -0.20457805055782832 0.18967927906912493 -1.4519556912342155
P 7.13544953883418 9.214426035069806 12.5295389662305 -0.26760273101948107 -0.28824020476417456 -0.9887190062240714
P 7.543149255848867 6.534364688385549 2.378331084186787 0.2717139249743772 -0.35767284563470014 1.0272814398783017
P 5.187844299226613 6.3938490442658 8.401284704890422 0.190643185644291 -1.4464843837069994 -0.5981342403526989
P 6.941569861995072 5.76286764532393 11.644955709121145 0.588098967603884 0.9073664739875084 4.75111530648796
P 1.3213173375109215 3.2128525521822002 8.279807115667912 -0.19065989781483939 0.3149318551227479 -0.2549621594373351
P 7.826867874290004 1.0648919164301853 4.249855019863497 0.35479063899089863 -0.17326921314221772 -0.12677209802194295
P 1.0263361928427759 0.1696442506838375 10.809934099115981 2.17309227815378 0.23654277638988297 -1.6772516910656856
P 3.585477011460906 6.739357595329352 12.158713525225672 0.5196670000837308 -0.10839668083854881 0.4708234962184666
Ni 3.829557509427861 0.7089858235482757 10.104706805446943 -0.2845797251934518 -0.6091185072783445 1.8941769503349573
Ni 4.645395500816529 3.4018987670614154 9.996817029556473 -0.3543496947987381 -0.0519509391459944 0.7978976431307032
Ni 6.216102679644173 4.108022770565098 7.8702915845655905 -1.102484150463385 0.8154320524700408 -0.8372771733695903
Ni 4.2623483059988265 5.477702720697883 6.446521649318696 -0.5091591585738715 0.3415952233465472 2.3568767890050246
Ni 2.2927872054035596 2.4277042449365593 10.827660214338392 1.980049739039377 -0.9465871100510279 -0.8401912616925916
Ni 2.779613867244295 1.3358830404441124 0.47970616990715526 0.31213038111821084 0.0070926451807232695 0.7180165532333441
Ni 6.777036204198172 5.325821909267035 0.1331217536621822 -1.5754187794875836 -1.5670601231102432 -0.9717474113667395
Ni 6.280057406040132 7.963483157214316 3.6641803285398904 1.6703760469917748 -0.475887026784303 1.192123605299089
Ni 5.157425214305278 0.8360470877453025 3.708646312369378 -1.1950479780347356 -0.6195476730314685 0.33168516332168685
Ni 4.700121860651998 7.520614872387203 10.213305737918402 -0.6858402256111157 -0.7108172072714274 1.2888274231807415
Ni 8.349908176799358 3.1719360836607113 3.789973508798019 1.4402085780006164 0.3213493286133175 -0.5360986632771928
Ni 6.618912948653099 1.4938943238974507 6.185088276435114 -1.777169645009262 1.337783027143838 -2.1615022593233357
Ni 7.404994356663198 7.358460621539672 0.5341283388934107 2.185920797377016 3.184302266391516 -1.447246201573688
Ni 0.11014694663969436 8.155048744157568 9.48868581106163 0.068235792348947 -1.1496713496721491 -0.48907550045011894
Ni 0.8431479845628287 8.922253523702679 6.510736710827939 0.054662424539886505 -0.10692832382313844 0.11382222272949429
Ni 3.0649934050461662 7.442691627547306 1.0828121166116036 -1.772378908488838 2.0673258358492266 -0.6774738559242913
Ni 8.854566394248888 1.3738509105499137 6.48615417118829 0.673728015728614 1.5772452911733612 -1.3116503346125281
Ni 9.015955502469565 5.6662823851948705 8.606956909190751 -0.9617054537497052 -0.5602919726939448 -1.4302458103609497
Ni 3.868309184175807 3.0577338810986823 7.730417913771789 -1.1337299958515443 -0.07389196219345984 -0.3834023891903204
Ni 5.681258652464423 1.4703801846331062 8.53958796709764 -0.9858578826261924 1.85385305390493 -0.6994272202669309
Ni 6.2077141037716945 2.547439735031825 12.115107860301014 -1.199603972836534 -0.28641729262282284 -0.43797996732588446
Ni 3.1732890797691757 3.6882393986506785 5.1621476372742015 1.0189112135367355 0.1885438799131011 -1.3079875410489603
Ni 2.3406272815973277 -0.05860619281408562 2.848809820634216 -0.36980151057743404 1.251348452398677 -0.8866986612255117
Ni 6.947467058826447 0.4199326680367325 2.262520215906832 0.17842941718691852 0.12644556792045966 -0.0478716268702982
P 3.345511487865211 0.894188596378688 8.156157267865744 0.23961858710172926 1.172528970996613 -3.1820643781999327
P 3.7505052126629694 5.3456316384964815 2.9284975590197035 -0.9367487838043673 -0.47019794681932575 -1.3024429570816471
P 0.861722288380132 7.232436032291957 0.25430075064006497 -0.15112275895216554 -0.2534056135834926 0.548759546574313
P 7.954245459646181 7.5220518475644695 8.025106064799894 -0.2619445042924392 -0.2514117230819154 -1.4343526334404717
P 0.6793953321057797 2.347709516399565 0.6125778525644627 -0.5039066519256805 0.20079415803536388 2.1716627447961048
P 0.3721989653301129 4.7124294597352 4.8480127332140235 -0.27862813559570726 -0.39052588760897905 -0.6113070302892312
P 6.71926793587057 2.939127442928411 9.797727851149396 0.29607821275135465 -0.11870911850815041 1.5029028717060438
P 3.115250212219881 1.9582705813453236 3.8545842050313923 -1.427962927864044 -0.5080898367690927 -0.8334382592394743
Ni 4.114265214679323 5.504258768454362 0.7743196728741044 2.210395642589929 -0.831803808959845 -0.25526606383099903
Ni 2.928760693435281 4.947776134546828 11.007507921881581 -1.1075147709087572 0.060927945833624104 -0.21141564230495205
Ni 7.883395118600877 8.379879373353752 5.541522147482997 0.1943363182251621 1.321371161444718 -0.04323052855386103
Ni 9.00781886380349 8.299352777381017 2.7614883848946956 -0.1625672533436813 -0.03616359440475062 1.0656368997280488
Ni 3.00320347242375 8.975178999062745 12.490521357764685 0.11917603084223992 -0.32647662253755383 -0.5736403689763927
Ni 7.655494587889625 1.4464461500247552 0.30920160031848737 1.7588577340739515 0.7199533652447407 -0.9332479697399606
Ni 1.812548234959899 4.781702860488572 6.507390611486593 -1.5503129855588915 -0.34425888622163936 2.3685956201038496
Ni 7.787658980167473 4.027888076913435 5.893445766302199 -0.40623121415937774 -0.6159614983421069 1.4352090679034961
Ni 0.999640179971629 2.1080519160561413 5.0526333329528095 1.4683433885636197 0.7511128215666806 -1.3218918098348782
Ni 4.033169427240267 1.5725733803565594 5.7119875268395575 0.8210403997957537 -0.9111033153221212 1.6865336305882437
Ni 0.6848101158419303 1.538048652071609 12.311370676492547 -0.11793444512565497 0.8687413054161426 0.9755667851128295
Ni 5.538904799838692 7.641628710529776 12.68397087515138 -0.033133292218859065 -0.8657747665886508 -0.4897342170800404
Ni 6.023072124500722 0.49749013737696257 10.586848368349335 -0.4963771763178549 0.2943810275545898 1.8589376675166887
Ni 8.32645002358088 3.2714512801901705 12.257426255097695 0.8374733485407964 0.7368226301962536 -0.2762686342245952
Ni 7.2816104425789 8.089769014676078 10.089943285151687 -0.7095231710503522 -1.8576870829390393 0.3251702450213045
Ni 5.325551310045343 7.259999828874051 1.6125212902845405 1.4535094088745808 -0.07574932711717278 -0.28747298758084683
Ni 3.1664867751962764 3.7075452534673174 13.501785173959169 -0.9043001763573587 -1.8092361865265034 -0.28880559034934133
Ni 5.36671038476559 0.665608768310911 13.628220327543243 -0.3851821067985624 -0.3005982121088952 1.3804219448602872
Ni 2.357591053495176 8.446073541584411 8.807836707964825 1.3266830605759345 -0.8574119964462524 -1.2163788783020277
Ni 6.896118523758317 5.467569246395868 9.76712214607517 -0.6849547376823688 -0.6480074710340582 -3.553220088812416
Ni 8.151810884504899 2.8835799544202185 8.271721797543883 1.9390483569263506 -0.15981205919604735 -0.16568523014737271
Ni 3.0748936041570674 8.603786232793123 6.101972325841007 0.7676007919193748 -0.018188240873252548 1.0313661514706367
Ni 5.154289995736699 5.811491526159843 4.415567183925908 1.2633354495572244 -0.9623919382937683 0.5448311580541843
Ni 9.145815135859202 6.125778525644627 10.851833122742445 -0.6570690670156942 0.15175807854331927 0.297774626617171
P 1.5900596886825047 8.245755469470541 4.550114715556182 -0.9304115287324298 -0.8771310721417346 -0.7339396522215037
P 5.4796529012956015 3.721775040125304 5.691338006922099 -0.10671749336391298 -0.33841039786066235 0.4040128663518204
P 1.401153438917958 3.7423592429892496 12.247852641254354 -0.9353842993566729 1.6278708266397124 0.5511308750199669
P 2.3371374847382542 6.807847191440579 7.125992562586398 -0.20803849830260301 0.05039490751278418 -0.11246108071590954
P 5.096512396401452 8.634625213058465 5.516365750873206 1.5296950521982235 0.32523272282812377 -0.16102253456438073
P 4.113145493761973 1.5868404910451241 12.205256591356843 -1.038644944520237 1.3705638211192848 -1.0220986101257816
P 4.419053248381923 9.162974858917586 1.8512980435063155 -0.5562846513067646 0.47139479534090434 -0.11702607437877265
P 6.191244875279009 2.7448278707452958 1.224505333896098 0.7752004586435036 0.686878694177959 0.09519329477439735
