# total energy = -381168.1988138277 ev
CRYSTAL
PRIMVEC
9.21023393744484 0.00000000000000 0.00000000000000
0.00000000000000 9.21023393744484 0.00000000000000
0.00000000000000 0.00000000000000 13.48010835216347
PRIMCOORD
 96 1
Ni 5.173858193155872 2.56565806101753 4.061623880967308 -0.26781844657471293 1.546561231825943 -0.21683501354831042
Ni 1.7673333932085462 1.135262660407522 3.104644642272853 -0.7115350592740585 -0.9291830556419675 1.0328972434031822
Ni 1.7654176645241708 4.954120428964419 0.8688925601494357 0.256565499368713 0.7408952576037304 -0.26368051314693947
Ni 8.18461923556666 4.841414794778368 11.482868523910552 0.3863321612426056 0.7874008573644374 -0.27724179677114186
Ni 2.162774792553002 6.47473007218719 3.2307778766942437 -0.7649134748951988 0.36580807314732483 0.9781558859962445
Ni 0.7208352845728215 4.434156665135579 5.872879038358778 0.7132047336669975 -0.17146429872299504 -2.3479707447646465
Ni 4.867608700443574 1.5688804799285883 6.396069147178659 -0.8857090436187328 0.5655637626158454 0.2197377890174022
Ni 1.416147168519968 9.030800279548785 6.859716934850711 -1.95901734384911 -1.5116831890018354 -1.1932219805695903
Ni 5.7544805585005525 4.250863797117551 1.7205877712629807 0.4722180625731481 0.45845314757857175 -0.1742572880870999
Ni 5.5809873795218286 4.119516649195081 6.0912435566519605 0.06289689663453683 -0.5146042408488427 -0.17910021800169798
Ni 6.761306504948404 8.93607302224687 2.8681893822400095 0.09369974094800637 -0.5265459865917511 0.5490570232100738
Ni 3.939898664566792 3.838042686102827 9.56381310299312 1.1038242094310473 0.3086118264419911 -1.9533143799270618
Ni 8.92546283261033 3.5009573297593373 8.860812515653105 -0.5682893890771246 -0.06121950893211393 -0.1950631690888576
Ni 8.338338042019647 0.797489299579788 9.342632095124543 -1.5080605046475835 0.09883551951267495 -0.22852453407109677
Ni 5.325836265371613 7.677162969590616 12.125317348449816 -0.21620457905316312 0.5015888024257813 0.31668740436127396
Ni 5.638523711691499 6.838396164026384 5.867446842310487 1.547616926783967 -1.4423644480013544 -0.21823395077836608
Ni 3.8162236416158812 8.083592178168049 6.265419213974492 -0.589120724000179 0.9281924095939239 0.1031580581474288
Ni 8.807700779925616 1.314364871928479 7.031183862336347 -1.0022615207951964 0.40917024218304376 0.6667245878275873
Ni 8.702989628903207 8.03845282104246 8.42055227532833 1.5593432140819596 -0.6064610150508394 0.8107536731577649
Ni 8.78606594011986 7.542886967237225 5.173436364435947 1.2617071699251818 0.06930562837435805 1.6790848876196824
Ni 9.215207585888011 8.093981322187162 3.063489632401402 -0.01817512824712999 0.23315509086457264 0.7148057596055303
Ni 1.809267588881431 4.952379694727174 7.940498297726098 0.651929946016916 -0.13777796221414337 -1.6725766541875193
Ni 5.4189609419471765 8.93131133123811 7.9054634883871815 0.10682547969668699 -0.4205062360211532 -1.156157471617125
Ni 5.16894913840216 6.009917189906611 10.108760547731746 0.2069799751311016 0.962045353587627 -1.7699415026919387
P 6.306965658793472 4.326931120214928 8.224295081848156 0.38090739068260854 -0.10125904135250303 0.1378754070239561
Ni 3.510517552713094 5.532062616197786 5.605891852418704 1.0107420474623816 -0.11051398429186772 -1.42749498708869
P 0.6448305910670497 7.44395063297012 13.166359314428696 1.1638977776841761 -0.1575201778380771 -0.6417342364308367
Ni 7.420740843140191 8.616017388679387 6.682090202826085 0.8239915120042777 0.5869756526327182 0.4472058567995265
P 5.0250484414565975 2.8746337830114386 11.092175000223767 0.7776368359991381 0.12370348639894825 0.02598022611384558
P 3.6924565163243757 3.945286651491597 7.161954449606693 -1.0280715398797649 -1.7769238475470428 -0.8519581724205328
P 1.5311093100505957 2.3646354924349735 8.812202742333897 0.8602474090125185 -0.6036227742710958 -1.0128809481822556
Ni 2.8984974994595922 7.214164503419757 12.646013325886386 -0.5194841946489633 0.8891062422257396 0.5483106319623525
Ni 5.924050177769931 8.946342433223208 5.200235382478863 -1.4893595858039705 0.9484239061494506 -1.8239742640676262
Ni 4.679250203692824 8.430458803082724 1.1014343917303997 0.31582222814750127 -0.2021974661407937 0.6657941055935179
Ni 5.765799936159673 0.9297823385401689 11.485726459539213 1.5113312049790553 0.15682700842579445 2.806351644344386
Ni 7.252110667744881 3.9020906537525617 3.4634173367562378 -0.41284177749736 -3.1340050607988608 -2.062644114102841
Ni 2.8355916008332356 1.9427607213397644 10.893234865562063 0.5678996098378736 1.3121452719710756 -0.39339395318539344
Ni 8.520682255929545 8.63533124950215 0.9368456670403963 -0.44793193633227374 2.461055317997168 -0.20368947730528794
Ni 3.8301403052797793 0.6537875436899094 13.046062605330807 -0.5077458231661126 0.8907900576860659 0.03859200134058515
Ni 4.53060623620662 7.192437561273406 3.473958449637331 -1.0931934691900786 1.7397989176702875 0.20005213766301674
Ni 1.4589563364285048 5.550400192210242 11.823187593432332 -0.8939905669012346 1.4489032775611368 0.48017382708511497
Ni 1.5434233929881418 0.5613085045219172 12.056771102485424 -0.17770847986049396 -2.145912118194562 0.6099813694992721
Ni 1.861664610445903 3.4399855802854744 2.6705303911359803 -1.0625533757067185 0.1489560903181499 0.21244151246630508
Ni 0.24147575861867498 7.921777575976766 11.030300647812075 -1.0590631031652729 -0.701007163159541 0.45055703265994657
Ni 4.645273650247344 5.906090221353914 13.464121576455167 0.4771291267215202 -0.6712561571493536 1.566463884287141
Ni 6.416208244973153 1.8968200738509986 8.202173941684059 1.060636875410296 1.1724747207199095 -0.2585545047742837
Ni 6.3312714664764815 6.751525236377219 1.9871568125767523 0.3782373000496131 -0.4999224704669519 -0.9226779075335981
Ni 1.62019069387404 8.9782466840053 9.513721403013738 -0.7031339796945568 -0.12100871317560448 0.9305377698976491
Ni 3.6923367832816023 8.892849393805655 10.921368446520196 -1.9851960591270073 -1.031020852316076 1.5602924653691064
Ni 5.693960110495605 5.336667500625581 3.944697196511789 -0.3215020521410979 0.12761002054220602 1.027867908509391
Ni 6.465731673511062 8.396058578870507 10.191083461802332 0.9015969184935828 -0.062028120876338334 -1.3796989506513335
Ni 1.8348536190987106 6.848858989917972 5.927608091187114 -1.5507737272453939 0.046675035459035744 0.11956529586085861
Ni 7.912714705662223 3.65054074111961 6.790766359611108 -0.3450001352630381 -0.8275584034199296 1.0818623604479756
Ni 3.6103749103861484 4.2772511176980075 11.992713003578226 -1.7636212169008658 0.47805986606590567 0.1674279238700923
Ni 1.6142040417353676 8.51732973073189 1.5290895057213483 2.3158391543374246 -1.8880230149184194 -0.6856587057279289
Ni 3.80949096051839 4.700986356073234 2.973011056071132 -0.8263450998381189 -0.10165473412902493 -0.4610864714363608
P 7.149637603598929 5.406002142625466 0.2798188840317623 -1.6183554309501094 -1.5216914651674567 0.08931189629295586
Ni 6.962246181424425 1.9135550691371028 5.41210208064307 0.687672393723848 0.09190305405889979 -0.037605211947283626
P 1.9966958519921723 8.398121671299833 4.32750583882024 -0.579075423949035 -0.07478413499042605 -0.0652589691088102
Ni 0.041138431450144314 5.814374710589454 9.480573770633614 0.3342457249600115 0.6661594593527366 0.2390596292744657
P 2.541886446909971 2.601614814785802 13.035966346754789 -0.21921842617882242 -0.27298045039162666 1.0069995497008142
P 3.3121383213056124 6.642015553409814 1.522079596578666 0.8569723378056725 0.13206702787229513 -0.7632985649995951
P 1.6517081148256347 7.140169482985767 8.225265840518027 -2.0816075425792215 1.1181822779249322 -1.997091267902696
Ni 7.737397900339719 5.092384462665572 5.146827077214658 0.4331681477595379 2.3582425590043004 0.9746926100379923
Ni 7.308422038784638 2.7038023616759093 10.501180069281281 -1.3627697789961626 0.010695017820000935 -2.718795297289956
Ni 2.765299094491163 6.333371399842046 9.712782191741622 0.8015411534205614 0.19353259137694412 1.915009570809592
Ni 4.487889170638678 5.8260809180790725 7.707251883239582 0.23751156806105544 0.9085826057827965 1.4156121196081748
Ni 4.489095711300472 0.5952482170311595 3.377198493678485 -0.25156496083032803 -1.2922675592105421 -0.15027918000494764
Ni 2.8614447278382404 0.9054875831380307 5.284175613650296 0.8400035711618179 -0.023022429037102287 -0.715371145190697
Ni 6.918258103556273 6.607532437091061 7.954153390742706 -1.1639587128290985 -0.7995912287830423 1.091024486563218
Ni 3.3901674242576614 1.7868038280103204 1.759949548563048 1.1603080034503888 1.0421825253598502 -1.6714548818782504
Ni 1.080434137051343 1.2583942795489227 0.7302297233135073 -0.1259693996149895 2.5497727752392345 -0.4999358402033906
Ni 8.342243181260873 0.7417038329048273 12.185734641833296 -0.018970884675547972 -1.527930504098633 -0.573350862760432
Ni 2.9108207926311978 3.4077681815453578 4.919700863260678 0.831734132064174 -0.37580683623124955 -0.5014152529623945
Ni 8.507474780288229 4.093000385337792 1.2259604403084077 0.28681864182629957 -1.5444112753624757 0.3933584719617677
Ni 8.933825725136353 6.050700106322059 7.0409034223393325 0.16934313861493416 0.4137882005710293 0.6914323749869123
Ni 0.12198218193077538 5.406462654328441 3.238461053946675 -0.18686006445277498 -0.5369463559894688 1.2840024909882726
Ni 8.751269675843085 6.43635102686127 1.3873458455925185 0.6976061078977921 -0.4156195973528133 -1.0903341453644126
Ni 8.554262769310467 1.321944894559444 2.355029218310919 0.679948542717029 0.9607400045126421 0.4558455347523956
Ni 7.660676650624118 2.810226616233384 12.54003300461058 -1.3266681481775993 0.5077435091732675 3.555005977068245
Ni 7.552695866510588 7.260289355589713 12.90081445114234 -0.23157591930291085 -0.0476044892518406 -2.221736778634361
Ni 6.387380212366931 1.9119340679426315 2.0348897716134955 -1.2227511003769587 0.07770645084354358 -1.22515713871529
Ni 4.606406462516271 1.156602772723374 9.602191227295632 1.0646169431039665 1.4783128410715056 -2.05154800418968
Ni 0.4622349377673258 1.9547984972555252 10.588207570909459 0.1607289145833619 1.2112297300009205 1.4294791073982542
Ni 1.5062140473877783 2.3855519339840883 6.334316369856551 -0.2835430563988213 -0.6345600872799008 2.114289349082959
Ni 0.46477051520390505 3.6354727981982746 12.61507614968054 2.762225857669766 -1.4803026178080247 0.8692185021628771
Ni 5.870363723437129 4.903058891338574 11.749262570777192 2.017914118185318 -1.4134068844267398 1.6416953912276309
Ni 2.8865518258844265 0.7907934594185344 8.045845875922017 2.5506137830832913 2.3408102224604654 -0.6403615244530262
P 7.4441993092897265 6.548135637641372 10.464823591354827 -0.09165314283162279 0.34006181742115626 -0.12595705831981532
Ni 1.7642019136283176 4.181031802478453 10.072822214431595 -1.1361800000539335 -1.4594931372618414 1.2876634847796273
P 6.750466059460377 0.40536634756696854 0.1397183296591466 -1.3989410867103973 0.3122489089739461 0.6854838707129615
Ni 9.088207668441623 0.9398030731969005 4.623623153043686 0.17654556990064435 0.18527163691973256 0.9432706440832851
P 9.163132922515622 3.2837800106364243 3.777422767570037 1.8953090070568714 -1.5610211160050147 0.6937777352906375
P 4.402961602376067 7.859590075607049 9.346392633691035 0.12882023880022328 -1.0185710565884973 -1.1030595633508808
P 7.222149776349339 6.93769169742181 4.022127634249971 -1.3217367723142528 0.5276024528807236 -1.0513078846998862
Ni 5.336216199156666 3.1011502794706804 13.271315457677087 -0.44268508611103763 -1.4766727343649215 0.2502542124387045
