# total energy = -340869.6428650982 ev
CRYSTAL
PRIMVEC
9.24752470076735 0.00000000000000 0.00000000000000

0.00000000000000 9.24752470076735 0.00000000000000

0.00000000000000 0.00000000000000 13.53468715369399

PRIMCOORD
 96 1
Ni 5.1984312483082284 6.130757435814233 1.4985604444869431 -0.3076774875531798 -0.5993609136709485 1.4216956067980935
Ni 1.912351107147378 6.99725974287441 7.1799353447747825 -0.5861858097415711 1.6669809052672968 1.1031930036049515
Ni 3.947740529738942 7.023060336642864 8.317661076499157 0.5689090249389944 0.2011137461583117 0.31471074025087736
Ni 3.2131449142605657 8.70738598101514 5.737800521433709 -1.462731441693481 -0.33970032031667946 2.0129171791913594
Ni 2.723590206909964 8.33889061883401 3.5350299779574157 -0.1563544396647501 -0.6877083891681058 0.3603683901889923
Ni 4.174758012327391 5.812984746328433 10.629913064285386 -0.3732871551331894 0.29222927131890963 -0.7873286093656053
Ni 7.600632983594951 2.36033819120436 9.427477778835293 -1.7138642000823967 0.1190554461039756 0.8158069193109564
Ni 3.461246753046891 3.5847566922481353 7.22890376204435 -1.7800996741718633 -0.8044881518640274 1.817748594872889
Ni 3.11234689559528 2.6541597918513435 4.319987612669841 -1.0575872899506946 -2.9692302582808994 1.4888016564179714
Ni 4.612924225207994 4.819772856538738 12.695996870689228 1.923475185078442 0.3024506919366017 -0.3623705082206856
Ni 0.24868628234409138 1.2692689955875034 8.981266219510763 1.2698506249679227 -0.9013917444613122 -1.1747054098226413
Ni 5.7686706082143 3.055261925941995 6.9399380365901315 0.03863828119748829 -0.12189960042099006 0.4021277335139655
Ni 2.65428000967177 4.662703650389208 3.781090888053886 -0.12253003491613736 2.6167348430820803 -0.1176469957922232
Ni 6.23200858318728 9.16984544114654 11.812641874710186 -0.028884030024201868 -1.059874800433291 0.06822525082598573
Ni 4.409811593835119 5.0943411108681875 6.09541432136131 0.01357259647811211 1.7852994732052478 -1.8777144339035599
Ni 0.21824528070717508 5.840385161861024 3.861770916847031 0.3671594449688967 -0.6880598589702537 0.6573989395512873
Ni 2.4476070813093416 5.174813070356748 8.707121501810201 -0.03133557688848797 -1.3682444289574887 0.7565846433145293
Ni 3.4001206151223466 2.922754145258061 13.098586006743309 0.04045476558093678 -3.107285385415829 -0.3355371900779254
Ni 5.142853625172599 8.70953140673352 2.5916899885954163 0.11156633681578206 -0.45080642966659135 0.45709046290309024
Ni 5.0765211308711224 9.202988569485658 7.368162235721463 -0.8613586397988262 0.4297519229891373 -0.13096016796136156
Ni 8.457212696707618 7.453625084262653 10.085669420917846 -0.4301784690035947 1.0499382580458692 0.5139545230799858
Ni 0.8077916225737403 0.2721037890107063 6.602138907726209 -0.4645718588817999 1.1597976394728737 0.7925770022487383
Ni 6.827465942808969 4.556125928818803 0.4561591215885884 -0.33035718853888263 3.9981140096493144 0.49904315318579223
Ni 4.3786751783446585 -0.03514799168284567 9.921128214852578 -0.2856644736171984 -0.7645774317120186 0.30391544940758625
P 6.593910460294247 8.59633245751501 5.911423721455965 0.8261715503747321 1.0861134224148454 -0.10246360318356548
P 1.0579075722284421 0.7198532116842294 4.4598554982212715 -0.5415514588616479 0.07392281543139527 -0.8591582897133977
P 5.774894192302534 2.9946444018731007 13.047614575634944 0.13248997434232668 -0.46451606594320005 1.4012789908149546
P 8.26747198597603 5.283878376057517 10.416187048873784 -0.8107963534702424 -0.46668993366606726 -0.1801875375286058
P 7.823674030584678 3.116683984655282 6.406495502011678 1.2379314076618229 1.5425546817697111 -1.447327705543901
P 5.541227739492034 4.69142646194649 3.566998670666213 -0.7275825996552244 2.254536598773201 -0.5836332185230464
P 8.901436038232786 0.4864355172867668 0.9200417757633461 0.06030265354479937 0.8209288139185539 -0.2016099690684399
P 3.782320808832095 1.6989737234150109 6.509317803822453 1.0700594542757764 -1.9369577929459092 -1.2079222628942423
Ni 1.1691922838447766 8.913152651962045 10.952945745791078 -0.4526859060774914 0.431134919379593 -1.2425689064338343
Ni 4.014785083438329 0.7855402287652622 1.0767558769663856 -0.8410587518992095 0.009515909910235223 -1.4667870998200931
Ni 3.1578817069629745 4.465416959544694 1.134014700083057 -0.36780916273775366 -0.44814456656371204 1.333392097164994
Ni 1.782552851185364 0.8089050245413825 13.029802918410061 0.33452520387364326 1.0023615367081704 -0.5711728812725066
Ni 5.1614226546661675 3.457788178828468 1.7849544333364995 0.46468241631773516 -1.424270052393489 0.5549201668590701
Ni 4.543835968561356 2.0545872837612094 8.738711046008422 1.1638471269518988 0.02938102426527843 1.1206317679066895
Ni 2.4794000710498234 0.9879870383634672 8.248309265400046 0.5679196644425316 0.9437745803028973 -1.2795377703486994
Ni 1.2696481440980794 2.714157731768809 5.812755407717158 -0.865315053343413 -1.3572308514558047 0.8917925308086513
Ni 0.6486186045667467 3.5612032469691917 9.981019808236589 -0.7319799573919716 1.0168142217983906 -0.24624020618330492
Ni 1.626056991564022 4.932620399820617 6.339905001772517 0.8662550486591791 -0.755600167914073 -0.6953229682905702
Ni 3.38762720932264 6.4829864021391925 13.492431608242525 -1.5880650074966844 0.07905062357626386 0.8589068358242239
Ni 5.274834296951586 6.753458003049493 4.397703809813242 -1.2183797107821404 0.6939078331105984 -0.7790488858553163
Ni 6.781459507684216 4.982011428966607 5.302349381789814 0.7838861593429597 -1.5818948741302303 1.4401571559373907
Ni 3.2240107557221904 7.781061437005812 11.756134875347414 1.0099673740798865 2.0482464506202724 -0.974501834183425
Ni 1.029295730966938 5.005759072263162 13.532737869174131 -1.251725890342754 0.40337831809161495 -1.4624640469647072
Ni 0.9704352365812001 8.087635374142652 0.558496853107798 1.7564401257713944 -0.9462189280783317 1.7237675752390376
Ni 7.527891954712278 1.2053316101699085 7.001372117085461 0.34262957814833245 -2.0407969363207625 4.544823872783451
Ni 4.93981497399691 0.38416991645981313 4.819403880305275 1.4518829290147512 1.0203492315348426 -0.6634076076392122
Ni 0.7174904691366165 2.7422332166007175 0.7282795561436615 0.6641647975202111 -0.2396155017779357 0.4622563233747458
Ni 6.270653988692071 0.9108719303221996 0.6609880935361674 0.5555238618813401 0.45892597344993225 -0.16740529816227298
Ni 1.6808855652031487 6.6679461426276685 10.340879831901237 -0.08256223627394814 -1.1422719718842842 -1.5572912166489374
Ni 6.5320815104964405 7.799112605119082 0.5810099518638198 -0.17067985514848671 0.5521310341497072 -1.701988017470101
Ni 7.379515421732048 1.182887867848748 4.931837134482915 -0.6552345849101168 0.4928403668091899 -2.6363006810291503
Ni -0.022073841335232745 5.933063853885198 8.568701778618678 1.3355402538562482 -0.7679484050667806 -0.8759079983679108
P 2.8249708196280854 6.532331193661942 5.080975663494156 0.40717069525451166 -0.15381804639614158 -0.07031478636516277
P 1.1431697494847664 7.005101643776077 12.29784654646628 -0.5338607750856096 -0.5587382550535797 0.5164196967910267
P 6.925942832787559 7.460893638636132 2.6481562988497376 0.012200141610617696 -0.11976481346617437 0.8385100173354268
P 3.9746508264651785 0.6343940621528987 12.287167505002547 0.024546836101428694 0.1496225202575552 -0.55650345218579
P 9.354518508370923 4.662685155339911 2.0840304774885854 -1.0283520472346612 -2.0254649339493827 -0.6589691122518845
P 8.150324343732741 0.49297999048029184 10.465575303762378 0.1626857811994166 -0.562162193133464 1.4386335202040128
P 2.2821966079271427 8.343024262351753 8.995897653009132 -0.07284346632428745 -1.1236854671313488 1.0227059046924776
P 5.504376353768991 5.106057724597446 8.0427303192035 -0.6856569059557159 -0.3852605254449816 0.326788754461334
Ni 8.35101412364779 1.280800658823798 2.8996445811622307 1.47211493979091 0.21846097918750765 -0.8720163766229886
Ni 5.1612192091239075 2.935044105515507 4.633925353684036 2.968276379008062 -0.42317426977161954 -0.07211353013679839
Ni 1.6865820403864342 6.021803100409242 1.8979693568145108 0.9233227402064486 2.7502257478850956 1.1195310786433428
Ni 5.706804668317901 2.1029425901466015 11.220810469503053 -0.6966771683256195 -0.6089848099139576 -1.3760505552654687
Ni 0.9565362070349684 2.93932570942762 3.507798792125887 -1.288054549570459 -0.20195321134047156 -1.4636930342758019
Ni 5.839848805431429 6.865214338422886 6.820439673581273 0.5122156860120082 0.061884910430254715 0.2938768342246616
Ni 7.589628429263604 3.86461453067635 12.001139718129059 1.0219428012742076 -0.15177196250039024 -1.7620633854954428
Ni 6.713425468847473 9.247210232353309 8.984771956104893 0.16338692103149927 -0.3567529049235921 0.6320360353064663
Ni 7.628782448624045 2.753755632312364 1.166193311601368 0.8704454325914428 -1.7319583385799462 0.26927394807431687
Ni 5.934118071695091 4.149928408646998 10.034536158128137 -0.6293690299972645 0.4983121885570386 -0.08056217512478384
Ni 8.614041467216296 8.541938517534348 12.445388027970777 -0.9096030766275109 -0.387690475042713 0.3457310998917917
Ni 8.309215312237965 1.6169111896869608 12.50435856789983 -0.5470227663888644 -0.06692067308194927 0.030686887560895534
Ni 2.396810428416827 4.44032842517415 11.614128962097324 -0.5375053138167324 0.390621789756895 -0.3991059159685062
Ni 7.542983914938126 4.315431357275679 8.250542542602584 0.1666463085090614 0.7207712331603457 -0.5854072797043337
Ni 1.8827497807485174 0.7210886809772279 2.040028905707562 -1.6975014424536572 0.31285954597475146 0.28461263531391634
Ni -0.06847699526739211 8.317704539865005 2.9974732196629823 0.36440965013790144 -0.2580657380633233 0.06962033140129945
Ni 2.5561915157284045 1.6568235060685546 10.602668007166885 -0.038423594083520925 0.21502521403308128 1.0896386619592848
Ni 7.605728369676104 7.0141827129806 4.719694295291081 0.7662627898342417 1.2203877423511047 0.4379573416180651
Ni 8.450942874996146 6.6409341231303 1.3669219311199392 0.2807896620234003 -1.521311713230535 -0.07837905143053599
Ni 8.317667549766412 7.831192268123657 7.440747906190047 -0.29827830572646696 0.2883952422848001 -0.7354015814790109
Ni 7.496903499616188 3.912747896470186 3.187568110588598 0.9239066377343766 -0.3222322454389031 0.30136234396842937
Ni 0.9102995085464766 7.749111239346311 5.2225349213037395 -0.599995976151786 -0.5599114494260744 -1.3218121056368783
Ni 7.641470052441364 6.319453176260576 12.511478237126472 0.32643188534254747 -0.4937253405173045 -0.7573981403547602
Ni 6.085296604643724 6.812790121192289 9.451393727080443 0.7093591346686621 0.1213000191637782 0.3294745288236132
P 5.679413500309957 7.016827505029982 11.852474662379807 -0.9962477105009486 -0.5638989733189127 -0.19871747801199324
P 6.242273335546772 1.6833084166609746 2.8747678151061313 -0.5133186892681999 -0.6108092647172061 0.5663345793435988
P 3.2977135271682756 7.753688764047166 1.6153381857443034 0.431450907958115 0.8843491871567286 -0.34291111394449325
P 3.567658019173629 3.4757746142692003 10.049924963895192 1.1011415203925616 1.5914110411507818 -0.44268791432451504
P 1.3799803606756502 3.0927144007671696 7.986439711917494 0.009160583453345514 0.3105193278773491 -0.44319827830203024
P 9.060706155248585 5.945501774537015 6.238652004894541 -1.5455412752018607 1.1657425442023988 -0.1195167020111103
P 0.8113167789696308 2.754504681808868 11.967803316524794 1.1129097166720834 0.26407312059966775 1.0203042372295201
P 3.145822934821733 2.48376490268377 2.2408435272053606 -0.7722755716872248 0.8775424486475402 -1.026252484393155
