# total energy = -340895.4432425181 ev
CRYSTAL
PRIMVEC
9.01953146683732 0.00000000000000 0.00000000000000
0.00000000000000 9.01953146683732 0.00000000000000
0.00000000000000 0.00000000000000 13.20099600993558
PRIMCOORD
 96 1
Ni 6.254729268695423 2.0215746074863348 11.298388933455039 0.5319830984469225 0.18932600949476425 0.36188431261288645
Ni 4.622158026381902 0.2802647978471873 5.883208461029494 -0.4108933955217375 -0.10369850403193108 -0.1790577947995368
Ni 2.6917798998077673 1.5804473709663147 4.792991556900095 0.11625911430576107 -1.0120391690072505 0.2695158888817939
Ni 3.350674699886701 4.092657422244658 4.958320467469646 0.5477082224916632 0.9013200106831123 -0.8008610966344014
Ni 5.202628001860738 4.467220517816004 2.845171460709897 -0.08035880086472612 -0.09544783398736464 -0.8108662874762294
Ni 7.294482797188816 6.123215482899676 2.665413103976431 -0.35640246356270877 -1.2056098127109816 -0.9143966413614122
Ni 5.159460525088332 4.424531076202173 11.690867524035374 -0.6553078613502133 0.9667723267496512 -0.5595903186412298
Ni 5.458467007011027 7.856372538202304 12.229679892280396 0.5291703115884758 -0.21013986091632197 1.0546459479341834
Ni 1.8308656378089956 6.539584106018054 0.47463299137044473 0.4726191546663086 0.013586994655815308 -0.11449148088237703
Ni 2.719857700725548 1.4066861005901352 0.42854950013073473 0.9275411491631703 0.36637037340869805 0.5203344584644006
Ni 0.35380644820479007 9.028911606403879 4.940380619726161 1.0869906828134765 0.8480940614794362 -0.6015856892364091
Ni 8.803982534997642 2.3992043436975927 1.3589628585612017 -0.6879017361258346 -0.17864024764614397 0.19830044507923267
Ni 6.772594677463589 0.8807644464702947 4.780027784571432 0.28029626732674956 -0.3971001983923871 -0.34384468150235625
Ni 0.4775787702910189 7.149358538670637 2.3376983558985147 0.7506813904562168 0.8273925672660267 0.6248798838776592
Ni 7.465078212080851 3.6302350723398384 3.822057954131969 1.808877517635504 1.2673551122395785 0.08143557886867264
Ni 7.600461376801665 3.893136370493219 12.504220895568501 0.09111681071217856 -0.37867104515292205 -0.23457613958181533
Ni 7.944556495662356 8.881090508028837 6.835422928550347 -0.5686321171285239 -0.3195274449132304 0.433074559604467
Ni 6.924916521954268 0.6867678576363443 0.3856589229690506 0.10588008506428216 0.08607821984700659 -0.49633783843948714
Ni 1.9593849392151819 6.587342524219034 9.315626271079305 -0.5391914432699036 -0.3128315209502935 -0.37076953091765824
Ni 0.3606694095662868 4.85749563690125 1.3638604640537668 -1.6365812099295167 -0.4553773368667254 0.34685904284864777
Ni 6.365353820014594 1.9891764510787957 6.954100117408675 -0.25385864196051117 0.4420983603696322 0.193944224993066
Ni 3.5912706971503705 4.424125197293949 0.7644648060610275 0.28945505100788216 0.2969960965799337 -0.5484134760888039
Ni 6.1538187525797365 5.670849910387508 4.791472667830208 -0.16707773961952516 0.4443071950954928 -0.03328678707758784
Ni 5.205793857344882 2.9669207019269135 9.201542729508937 0.5647703201802725 -1.2504951032594462 -0.2932605407969014
P 0.12585312795572193 5.602130101459601 12.440037910881408 -0.029198218830511005 0.3981751766241207 -0.26160074779977527
P 3.9512672496821355 6.126083693851122 12.719093189582086 0.5514095826026504 0.3991509102738287 -0.8455067603682342
P 2.300106753371972 8.299601325513793 1.6806318148128456 0.7629154706285636 -0.18525646741108096 -1.049899948608766
P 6.423547835922568 7.821954006784941 5.505540842786802 0.21750838546625123 -0.8127557911894584 1.4007935665381037
P 4.642136288197797 0.858967847145557 12.553143735259518 0.6409400226643155 1.4709425167493635 -0.6386648534768936
P 3.893975186903548 6.163451612001577 8.044845566071896 -0.19364186326129876 0.07983660981266895 0.18438743454256631
P 4.651715030431875 1.0897307513926617 3.7325418118998135 0.872437523320807 -1.0346959871748178 -0.1804356489836699
P 0.3435395157329912 5.360298428408674 3.6392897798057424 -0.6376873200549728 -0.395596360153351 -0.3777315640577882
Ni 1.3422054713703424 0.8952182453687026 2.6393538741622162 0.2758677992417507 0.4600929971748399 0.4719753504347226
Ni 1.7218646021227184 6.58745075859456 4.853675865398302 1.3998875097840666 -0.3807927194816152 -1.0301271368572131
Ni 5.901100505257122 5.597286613154799 8.999448405479361 -0.5224453341598163 0.8875332413116651 -0.17109226009555695
Ni 8.63998941701271 2.3716586951261496 10.13979045282125 -0.18623142972984055 0.34127177856885743 0.16969743663055933
Ni 2.1748886004193375 5.11875538035915 6.928608216112844 1.1219828826179452 0.9964531416435355 0.6282346592825052
Ni 0.7106687136119394 -0.12898290531469075 8.698254687217904 -1.014963541742897 0.12294398252510441 1.641827803040437
Ni 1.5290631011852043 1.2450831583980766 11.522343895481539 -0.1272089284490454 -0.03636491178227931 -0.7753855780711162
Ni 4.1658418991630235 6.812939040941017 1.6697145741347594 -0.038284754512811485 -0.63082376016592 0.008670788301120549
Ni 5.446344756952082 7.83342685059073 7.719005076596843 0.7192915632910256 0.03836214471796619 0.7377253445161811
Ni 5.386626440255446 2.8827053382361587 4.737480851552043 -0.7688485482835469 0.207608609854036 0.7345590309730574
Ni 0.7586156400169605 7.277048043197788 6.854194377079125 -0.09281990944621434 0.23494252178229857 0.5580939366013614
Ni 4.796758113168409 4.30649247015945 7.0282632134724246 1.4649479897288253 1.6562228954198444 -0.4100814411434034
Ni 8.187632864031837 7.026079584946182 9.279111600589248 -0.03619830429742798 0.9729128924297501 -0.02876550216846659
Ni 4.566678889393379 0.38177781865330335 10.31896795173939 0.2968441443831017 -0.5121894607597631 -0.13931702456648912
Ni 8.357822400015648 7.052750338982121 4.566713163612296 -1.217365153474697 -0.11255929685667067 1.0264082932447292
Ni 7.420431532176252 6.1063399398488665 7.056790187048639 -0.6778196692994842 0.9647802360202868 -0.7363822002247253
Ni 2.35877880443852 5.156826821950525 2.656620864871178 -0.09312947026683316 0.41993622245029616 0.42019230432516025
Ni 2.2233325029986504 5.243432361434152 11.672756305197307 0.9914361480449184 -0.020600706969487105 -1.273324699559452
Ni 1.2538681818782946 3.2515049533107296 3.610195477711144 -1.6218289913210067 -0.1353994346796378 0.378370997414
Ni 3.5305241538862346 2.5839514031896917 2.7996805526761936 0.2845943804814711 0.8952663482898646 -1.316630304325623
Ni 1.2725115530626996 3.4203505791317563 8.377787132534603 -0.825857875789055 -0.5101464621878053 -0.3649153861297264
Ni 3.4968271849723807 2.5446893834675266 7.194779996313377 -0.3855148075476328 -0.5666233142286113 -0.19665905282106774
Ni 4.208224676712863 6.7172327943818875 5.829916560379734 -0.632993257013413 0.37729627629258244 0.4400419920612357
Ni 0.5318474861799053 7.662227127102005 11.522013780636183 0.9156341133129392 -0.6480192981086002 -0.6786539922753215
P 0.32353148946382543 5.5707060544318 8.149634480643941 -0.24429593797274057 -0.413119713749095 -0.38500418645980145
P 8.509106998407534 1.7036090707839493 7.986179828677254 0.5898105509783519 -0.011323909653251467 -0.16865973939466436
P 1.9230091695070517 3.252037105657067 10.435189122226403 -0.7762196439366373 0.7712265615974201 0.6602574920460048
P 3.9244070854890256 5.959673341479437 3.83499466786675 0.6875356110356676 0.4204409300008565 -0.062241522438725064
P 6.784725947053828 4.107783176224458 10.281727208980179 0.9339303405189657 -1.1206657064684185 -0.023051225392508687
P 6.129944053244893 7.756878088499754 9.97930593250963 0.09173310413993879 -0.5754805075089251 -0.312312672332346
P 2.470657070607538 8.45912075597697 5.744360894338712 -0.5811945271745668 0.3441763538101621 -0.011163729926303354
P 6.93738151420238 3.945530827779242 1.4636209899294863 0.16724743242817003 -0.17325867161925645 0.7031972288323244
Ni 5.260686724799303 2.9276767212673365 0.3178392632642714 0.7001959801121554 -1.4867591720666458 0.45540124812612537
Ni 1.5111052143791324 1.0810990599444394 6.912239570720749 -0.6919980176823953 1.3159921565209918 -0.35252266889232836
Ni 6.9215251781877765 0.7799342041831239 9.081268181658467 -1.03482402811225 -0.754702595800468 0.22612183816687512
Ni 2.7720086306666363 1.5652043630796941 9.334054075465787 -0.3023779297171373 -0.32777245853084197 -0.5623815082331217
Ni 6.38937283185014 2.015838185583441 2.5236080329743915 -0.5232045809233441 -0.5556205353602044 -0.7028866395704411
Ni 3.9908449529995855 6.9080139203095765 10.543609300097355 0.5271838772860662 -0.6716726758614819 -0.8955468556447608
Ni 8.201865684413544 7.298749035490811 0.22922958392714907 -0.6433020951385888 0.14033929518341637 0.2585696742829353
Ni 7.6988644632176575 3.9116264096456286 8.051696802042711 0.35615152389416727 -0.7433267498633584 0.9009122337217323
Ni 3.0056235107088596 8.194190063282472 12.355616901877152 -0.13078764693923925 0.7943042693524901 0.6729016631725766
Ni 0.16080020390690516 4.887476558922036 10.319970923619268 -0.4828200064587104 -0.525291802469676 -0.12599922441166042
Ni 8.52338491644571 2.377485312341982 5.79356063364045 0.7345222641978512 0.12520372509355857 0.23305661761349541
Ni 3.663706552971346 2.6070955204897315 11.534950494370964 0.2368975886261404 0.03223237767114449 0.006182217551311933
Ni 0.9921394227931154 3.474729333302428 12.67747075852032 0.4022732579528943 -1.0014140851932365 -1.135978939786721
Ni 2.941233076802005 8.433081369131601 7.945573898792303 1.398253059504437 -0.4937466806735432 -0.1008054987548522
Ni 5.681411781532616 8.080318480697512 3.4082066821977057 0.17560377481266531 -0.3825606100153153 0.7525369556077168
Ni 3.3188267348880878 8.19474927422269 3.6138646230414855 -0.7020011516416943 0.35902164635311073 0.7321727901290681
Ni 3.566286595466383 4.504940197686919 9.454434151832395 -0.9205881148841047 0.3457647813432045 0.25367660785669216
Ni 7.018106319282412 6.114475557075927 11.191289214965506 0.6027293159225491 -0.0069540627203299584 0.9584468376030914
Ni 0.7461695887845654 0.1707451391115133 0.331268443407697 -1.2639933948561972 -0.8721655006063431 0.21956192556117024
Ni 4.69677660877599 0.11034584780219141 1.326158823245439 -0.548823567043029 0.6161808134417647 1.3069945810080716
Ni 6.231792600615141 5.695482250351035 0.3491956638073697 -0.9724362099036479 0.4249254481347714 0.42295983976796836
Ni 7.522857329549307 8.836092066403777 11.281412371653738 0.5709779916528811 0.31072835856436165 0.08130959481376963
Ni 0.06171163311257826 4.820732027347485 5.817507489225643 -0.34558763233539197 -0.43111820720904465 -0.48263000193509137
Ni 7.845251456116977 8.909565168323546 2.644318224186356 0.595898923264277 -0.7991510559218302 -0.4383057260964194
P 8.533531889151302 1.621017222726089 3.6304326000751734 0.0038821086632255717 1.028491658136319 0.00964626484051242
P 1.98546942371702 3.1939603436559136 1.4090744724767488 -1.2305561982436741 -0.20461558866398308 0.6838008265835835
P 4.772964589615212 0.9698341219034039 8.054402661430867 -0.36119037186965536 0.09556456207088704 0.825145937323695
P 8.536138533695226 1.6395072618784985 12.29160528828464 -1.054544646469629 0.1021131618226822 0.5300547710759581
P 6.373678847398825 7.681871666260029 1.3794777824890825 0.10397489762176933 0.046160557716462436 -0.664460731494075
P 1.7296213990354365 3.2131809648431258 5.977886481021125 -1.0763023498616948 -0.9556345649652769 0.19739361699424712
P 6.815554705016235 4.0535487345544885 6.034281100435973 0.2886384686438577 -0.22509262557141235 0.033209139762117
P 2.2093251708992887 8.559192455682329 10.331588079925758 0.5588038181841924 -0.21344321425794208 -0.8088993935578456
