# total energy = -340854.43768312375 ev
CRYSTAL
PRIMVEC
9.44943576028102 0.00000000000000 0.00000000000000
0.00000000000000 9.44943576028102 0.00000000000000
0.00000000000000 0.00000000000000 13.83020439877607
PRIMCOORD
 96 1
Ni 8.77485958508777 7.057273416329382 7.741402182288482 -0.5064587289235729 -0.15642797321516286 -0.07450311341489749
Ni 4.274839763601419 8.595915617141191 3.368761701897165 1.0303960742478833 1.7004016468195877 -1.020935443055616
Ni 7.464109430268863 7.740032959024212 5.67633096163717 0.39111158490911996 1.7188883927698657 -0.5898871698525583
Ni 2.7525545363606887 7.5680815736556815 10.475674894981942 0.7987041981923986 2.4265557415584014 0.005976015077776804
Ni 8.02454602502746 7.023066458312452 3.066391091899333 1.1537730305453484 -0.33061944106133384 -0.2919755034368907
Ni 3.476343529804003 5.98192760905682 7.012577584445382 -1.3870710747456885 -1.1409100585397511 0.04702162016517708
Ni 7.148857349229959 1.133044062977362 6.099189439116294 -0.07010884100194378 0.9606554152186361 -1.582993763621364
Ni 4.543147047008248 1.332729542760172 8.078637431043017 0.6852393588023231 0.023611468771352884 -2.140180357917108
Ni 3.6650393156161796 8.234597536010428 8.100862504318105 1.354060938368255 -0.40440161714980677 0.9737934952624906
Ni 6.1976865793332205 3.339855877429267 5.864988949705682 -0.9034347430332699 -0.1330633303472934 1.363178327288491
Ni 3.017847449710224 8.799806095906746 5.8234010372945475 -0.4356533760752368 0.9425859593114347 -0.0886889179969763
Ni 5.988872944455286 3.845315654026953 11.142442212332062 -0.647697138882491 -0.6376862916137083 1.434794863184213
Ni 6.977236694118498 5.458343814371711 1.1849913919835147 0.03393753328770929 1.8856509151418173 -0.9070774819921796
Ni 7.089751127573634 8.358328449898186 9.879219885341266 -0.035466825448042145 -0.13160422930326365 1.116106626342826
Ni 7.050621013444322 6.834824245424255 11.714653749185937 -0.860120396516351 3.6737474914762274 -1.8002704926927837
Ni 4.0291544297781625 6.765002363438869 12.374257449167924 -0.022196076481065 -1.761914004401772 1.3288042206839954
Ni 1.9971099325978394 3.447711738977677 12.352599342047814 0.10584306117875966 -0.04842338560871015 -0.34472605566604503
Ni 9.144143540695957 9.04994211404657 9.111505189041129 0.6280197150582216 -0.42265105027829786 0.7705958699919567
Ni 7.6138735401059705 1.8850868698103507 13.602421423965737 -1.298891492284963 0.9295774628669089 -0.14176188656255587
Ni 2.3033850495162778 1.8134412466931225 5.471643895423874 -0.780807777527952 0.16820979634143934 -1.8441895626732367
Ni 3.434558124182216 2.7946706722395445 1.2972639198791933 0.06714461616729728 1.6596967129010576 2.0851119561880544
Ni 7.203097111389401 5.3528030646227895 10.013385811311371 0.7300081783775815 -1.0359931087196868 -1.0936254145211746
Ni 4.022454779713521 4.345956218307336 13.402450571218255 1.4753056788140657 -0.33560301031885426 -0.7026007328989061
Ni 7.062593448750247 5.467783800852074 5.2796256879435335 1.1381258109263948 -0.7512642595428803 -0.837114422539481
P 2.0581627380529186 4.06057380419979 8.002114954049397 0.4392830024080241 1.1671221981587447 1.4300743177800919
P 6.275068010051631 3.584388380070738 13.492305257346151 -0.9358848931421754 0.09909494382164868 0.22735802456682133
P 8.692668391487974 6.786452582968823 10.137525885774306 1.737378995374885 0.8559192139508097 -1.2930260346431215
P 6.516142019147742 8.363100415035907 3.658725202536922 -0.6564964823416759 -0.12273803716188539 0.48346046825618677
P 4.19062639071554 0.3694994027470785 9.812226219525622 -0.30201566128171214 -0.7545763546352489 1.6225694690314572
P 5.681974164766373 6.995993824412312 9.193836234292485 -0.9158678265903002 -0.5288365823981408 -0.7480406103992601
P 6.54555811315512 3.0795050190639452 8.169031679961734 -0.45579488402011825 0.5968659151632366 -0.6578882204828799
P 4.948905825253273 5.060541461168194 5.335707145163058 -1.5653943053720458 -0.15195939592084798 0.025753969035652424
Ni 5.430146697597534 6.951014509450823 6.388973400473642 -0.03082238469749531 1.5417985203299769 0.6226731060343276
Ni 7.417939486381923 0.4622286072807085 2.3943954016567366 -1.4153388113421301 0.29166568550595573 -0.8246461148691411
Ni 0.1280691499169223 1.1981979236201064 12.752209372342115 2.177043035271412 0.5264739957032353 -1.23510242285346
Ni 9.503486689720217 7.745938856471887 11.967137952150956 -0.15598831457458295 0.1471365206109079 -1.519732541668873
Ni 3.9293022404508413 6.940998107379568 1.731998448417896 0.49576525376546876 -1.3366286018244207 -0.5133834810678642
Ni 8.859488733153965 3.7428743192585707 0.6092939582201268 -0.8780551266179006 0.7178095794288606 0.7927006723107961
Ni 6.942065893638108 2.3913781967686685 3.974164382406968 3.530544501591771 0.6784462471398897 0.2181899849143081
Ni 1.5165021724599679 6.54962137059912 8.458677679554704 0.06244463958846666 0.9533645379841773 -1.9240598539373188
Ni 6.375657255380422 1.62552031462608 9.805988646877287 0.116790818439515 -0.06364328788225813 -0.254698107142671
Ni 1.8963978446021368 5.665843977657285 10.409566641311654 0.3633480416426065 -3.11911605950217 1.658579825687795
Ni 9.154226088818627 1.8983633272727227 8.247919350765198 -0.7975474588801361 0.44883773597599474 0.9483729983068571
Ni 1.8668967056715131 0.09724603490161149 9.470425948279932 1.7368981990837247 1.8236500479589883 2.7390869576594565
Ni 1.5484129175492425 0.47509401428072257 1.8077318975125065 -0.340177259953098 -0.7872938994729279 1.2231143972536482
Ni 1.8685692558286948 2.840717773459572 9.945258213185774 -0.09062290179489554 -0.42549109083025427 0.10246925961052031
Ni 7.144368867169727 0.29003720623990425 11.78670853287834 0.15816629606250823 0.40567765564875297 0.14906099132713038
Ni 4.536778127200676 1.203499057169139 5.264812752201174 1.571362864250655 0.22110150213414825 0.39922727203771885
Ni 1.582052909411196 7.986115169155952 3.69197304280835 -0.21687460853699422 1.5024557568662962 0.8534481267024978
Ni 8.857513801047464 0.31297665687026344 4.09237115605807 0.42662854686880725 -0.5586007010344508 0.8521995990073775
Ni 9.030419579443537 3.479613034631035 11.488529692652968 0.22638691890280366 1.2136396249939936 0.6951257646780996
Ni 5.885373272864281 8.874144808260114 0.836962052581814 -0.6109025957619607 -1.1256492757259389 0.09441785006095353
Ni 1.8008829463603875 5.350686390977543 4.080062320833525 -0.40188167894143045 0.7355301366370752 -1.0499570270989467
Ni 9.28571498959365 6.1977905231283 5.021429300967124 -0.8033532669286358 1.7597604483938791 0.49832812939663856
Ni 0.16188679117410193 6.4287914335376595 13.892163807805053 -4.3440741948327775 1.2292523918305862 1.8619170618599867
Ni 0.9431425291422675 4.501966405285104 6.254710145313599 1.63804339629734 0.0769996545845061 0.6210800505155949
P 2.1622671735425656 1.2332175331258368 11.791424746344154 0.1839583174249477 -0.2763869049700144 -2.082416668744078
P 3.9657109170362648 4.8824384930181655 10.935708398299301 -0.06017101306294154 0.057084403717817825 1.3189949479030574
P 5.546762186240335 9.152099965737463 6.590355054003425 -0.705569842829559 -0.05430684097268066 0.07229016492397872
P 3.487748998954951 4.726390508296732 2.4719970042319956 0.2668321714020437 0.820675046036535 -0.5820985270460749
P 9.041286430747258 1.5034241531518375 1.4056328857978568 0.057874760829597104 0.2014834707929046 0.04940966078137942
P 0.13301498467550277 1.78701117443529 5.456071225033846 -0.7636652043103944 1.432825398162668 -0.06239913106251189
P -0.04929109257008668 7.93050523878865 1.6296960203574837 0.5272224438334856 0.987766926723447 0.6083582320735522
P 1.6697625735860986 6.9355646817277075 5.645655257822154 1.3636552669249096 -0.167433323186731 0.7940867540250454
Ni 9.202106380606413 4.001798312800534 4.394754995266184 -1.7688490409587085 -1.6459711357848492 -0.5942637016536991
Ni 8.240040411098205 9.17984350958766 13.78437125747728 0.13839065609747778 -2.936034231144905 1.6834084546957007
Ni 5.819331165245406 6.136010111107668 3.320050804692338 -1.1179318524770232 -0.08007289419319114 -0.194778033748271
Ni 4.114804116923316 3.5587520604298724 7.48876584340521 -0.17361836895152033 -0.5171216079540578 -1.7166535899020756
Ni 2.1364796629270395 5.780219949987926 0.00035718867763535 4.526313986904721 -1.6830243318834046 -0.4578782489117082
Ni 1.257568729482088 2.8201463514698326 2.915849293486316 0.5335046772977715 -0.42019487542832146 -0.2607427706748542
Ni 1.9604272223708439 8.354208495838689 13.303301419923104 0.4157435245251872 -0.09807755830072787 0.30947648843513154
Ni 3.2234860741202898 3.7584564390845148 4.455151064925082 1.9687373993503514 -1.1306536709190658 0.3216917995544008
Ni 4.462297673308564 1.8756468833299877 11.34831896252722 -0.9228231748622105 -0.13714932749120895 0.8117090950924989
Ni 7.568875326272649 5.217354850198846 12.870042893274523 1.732131888043333 -2.9443548351954583 0.10755490166354378
Ni 8.329205288404214 4.042251347958126 7.075670523114786 -0.4177032193547194 -1.1785988313397766 0.016198721247049522
Ni 1.9639046147880344 1.970046748133616 7.58535514251064 0.31577851939375945 -0.8736366858352309 1.2944473404706804
Ni 5.589369692786837 3.7874095107319943 2.0523059776720087 -0.3405953213271231 1.2707122016372698 -1.1852145368840814
Ni 4.972652257710882 8.408240370407972 11.250096800895456 1.089643032834659 0.829047072150314 -0.994552325076397
Ni 9.13915423853216 9.463893553231008 6.688839909953661 1.5082512805021508 -0.7273612276730376 -0.2832651201470863
Ni 1.6462145792827312 6.574709622956841 1.984758574911671 -0.5631854921916558 -0.47186710699163253 0.2920685773713293
Ni 5.161612627728715 1.975669162503802 3.0619101693878337 -3.5628696960870383 -3.3041205588034446 -0.7663031561538738
Ni 6.755949803831074 5.56678554094693 7.609627908548785 0.6034273704308382 0.5139077290024504 0.5252851176014567
Ni 7.21107243530274 9.470224675294915 8.02229327950502 -1.5583646522187744 0.4559085267798471 -0.5572863530984016
Ni 3.8011111928105987 7.000123227907726 4.750467671011411 -0.6831616503376879 -3.079476076513045 -0.6680145102836044
Ni 5.075670008070157 4.9161162826237845 8.982136741685718 -1.0064287647990087 -0.18185181260490615 1.306927732325878
Ni 2.6984565157399905 1.2590144931772786 13.811547835172501 -0.1058101510582952 -0.6334262307857736 -1.5924765063008188
Ni 5.298875133848585 1.5593742632121261 0.25244829510853756 -0.7499388558632375 0.9747054655537989 -0.0671772691774456
Ni 0.21286838782961096 4.50009541697368 9.253790070350501 -0.6751338949372049 0.25268364781580355 -0.6965175028193037
P 0.8713806779632689 5.4671884863893485 12.245111063556548 -1.1576739082616514 -0.9784852443112051 -1.9521537839600571
P 8.471211411354057 1.7309193228362572 10.540842929778563 -0.3703764092442976 -1.5729813736906846 -0.6275736286597385
P 1.7417672752681452 9.02995655708364 7.558815456796179 -1.6465257227367385 -0.3645088947199271 -1.7338031050981688
P 6.216783889320022 7.035596410337438 13.538373147325196 -1.3746372198577101 0.3937019713441155 1.4207432701871532
P 3.5949056022455563 8.947018858046459 1.0159230295130406 0.20760809563340377 0.30335649158032274 -0.4635336474252727
P 3.032843704509359 0.877191136108189 3.5812351033054752 -0.4617978956810886 0.9570586990063129 -0.014080646462782202
P 7.626857065054938 4.379860794374945 2.786813466275158 0.4710271275888404 -0.774529400718408 2.195187824501239
P 1.3632134230260884 3.1500923053585503 0.5792589261602336 1.8699761847190377 -0.03638136684251154 0.6618160947823764
