# total energy = -381167.01693240437 ev
CRYSTAL
PRIMVEC
9.28519479983040 0.00000000000000 0.00000000000000

0.00000000000000 9.28519479983040 0.00000000000000

0.00000000000000 0.00000000000000 13.58982115142158

PRIMCOORD
 96 1
Ni 1.2807718953950507 7.0992184196392225 10.170866663375786 1.1617249384025734 0.1361429977138817 -0.011852528463211845
Ni 7.7368048811476795 0.9533945021804767 8.981689499193637 0.4319080501001916 1.3633297652646905 -1.755785780016847
Ni 8.684488988614135 0.7199089973369326 2.467558121953036 -0.7384542522624057 0.9325406592602907 -0.16435159893761372
Ni 0.7651984627956485 0.21783623776872868 0.6470471463444177 0.5573634861932402 0.5014615328192976 -0.32187049122411016
Ni 2.409350165168113 0.025162877520321505 7.395404058442721 -0.8164512377631746 1.7540978507914626 2.4224581744502602
Ni 8.004794169336432 2.992376822872359 3.4500208545265454 -1.218123628907276 0.2534737478172667 -0.20609628697456764
Ni 0.5756207864458668 2.2925145607997712 4.288145236157842 1.4227888398622721 -1.5591984609739793 1.319041999090909
Ni 8.484597318039418 6.193066987873284 7.298033007633733 -0.5378146175270351 -0.534557544042318 -0.3177706101231237
Ni 0.5896479300141139 0.20662157966207026 9.847402051189649 0.5046476438567632 -0.5441367030903209 -0.43182963145377246
Ni 3.8085547184124993 5.613485137386763 2.5500347920128177 0.8683497264046787 0.41216043515961925 1.6493313105063339
Ni 0.8821863443563639 2.2732477818866097 8.421299217543558 0.8367238719692816 -0.7213569304604867 1.5857741545799786
Ni 3.366672304688477 5.400965602078602 10.792478875996434 1.6831323182161788 0.8372146955627711 0.008012585891831363
Ni 6.85797977725713 6.702787033760948 11.412758663183808 -0.3494077774124305 0.15662851926174315 -0.9655680220289047
Ni 4.646989225545337 6.296002655840178 5.521544068413158 -0.30846861599590747 -0.5415123780935965 -1.2437940370901868
Ni 4.5433757383684865 9.118599694410294 0.2657004877058155 -0.9650671711330863 -1.2556887316452439 -1.5506845099656972
Ni 1.4003930581604758 4.282712468764063 10.822620474891808 -1.521592220585431 0.8618628331287546 -0.9573443485675319
Ni 1.9361766454501848 7.375360108736773 3.9784338542975717 1.8825792181950285 0.3920904038826215 2.8577240852790915
Ni 7.00965343197833 5.54714242156289 9.206845255910435 0.5860847653873326 -0.022889503003663807 0.6487960283736246
Ni 0.9351769502635502 2.451124255929709 13.246460186322086 0.16104490316188394 0.3619699303481573 -0.2146889137395851
Ni 0.9561893457722171 4.49196361555298 4.875932413162704 1.7287282616784228 -0.8314309990014584 -0.5414807535247126
Ni 3.373747623017069 3.351268166752605 9.385605680484876 -0.8883824766858377 0.8896785697894419 -1.2232858898345063
Ni 4.4231974639236435 0.6441798782343531 2.2009254007036634 -0.592917986259082 1.1762570705804773 2.447493005931701
Ni 9.374703933438157 6.455475874073212 5.006299331704612 -1.8037551088072743 1.0575009008844753 0.8345788006018208
Ni 5.989442669046475 2.6891687913498132 4.782761055897053 0.0209586045295381 -0.22474269843116132 -0.9920195313522142
P 2.2161902607196815 1.520831318055712 10.21938273397779 0.644622099501593 1.3745135497956522 -0.0403362377252015
Ni 4.888580705324395 8.813478912788417 7.627192229702976 0.006041063987757338 -0.07254239014410087 -0.5309867959719242
P 6.575022755281382 1.3980996150802103 2.7807495947707292 -0.683377623003236 0.5813647342038439 -0.009453432103415977
Ni 0.07469381989833 6.2474875137576396 11.860556674423773 -2.4310903962039614 -1.6229499922993273 -0.553570594809711
P 7.91795902890468 2.815902413222458 12.51661881626062 0.7401828049177381 -0.4851142018095258 -0.6443945568718192
P 3.090502760006956 1.614203235525953 0.45276280482303066 -0.3918415210966091 0.7777219395137767 -0.04636007532177822
P 0.2029669270450966 4.05658083808882 2.2893278819935072 0.7595136440358662 0.411416100794427 -0.45983562974839515
Ni 7.813426307456791 8.078704318805716 9.714303428379667 -0.5785720019500552 -0.8443230244727781 -0.021252738731189207
Ni 8.275123326578735 3.5079279710045848 8.595534966761669 -0.3191934586125793 0.19868713899469007 -0.796883342933576
Ni 8.556548291436087 7.519874878377468 1.8832501073861316 0.16614417206166224 1.1610094003927875 -0.9194231480417262
Ni 2.135929038105047 6.256289878292423 6.274407150107055 -0.6841831496236669 -0.2043610494510158 -1.04078590212264
Ni 8.68124845567886 8.549890806867056 4.228758059651486 0.8968488622856361 -0.6768243952657504 0.502132076523761
Ni 6.692591890027622 0.9087169310496535 0.44967083500226795 0.8367400699191976 -0.42354296596494795 0.13869893136651598
Ni 3.9152973161887417 1.9957040283958605 7.42746212151529 -0.035033851675681606 -0.3668185166897102 1.2808120090754327
Ni 4.603775929611914 1.6593942779213053 10.290987369613754 0.18946690594800272 -0.6709715360293993 -0.26858643508898905
Ni 9.005766008939096 0.16555502073333297 11.970824860611257 0.6737714673720396 1.8047077025285305 -0.2576985845318917
Ni 6.653482650132569 7.530673559763496 5.428344855563536 0.6526107741340244 0.1774014901430364 0.169672754040211
Ni 2.169532157568532 0.5316758171734766 3.778377835777427 -0.17461467142651865 -0.14539665510166574 -0.8732829020402378
Ni 4.199210713214155 7.890084874544531 3.2394734945635193 0.13308184229005468 -0.6514967151342393 0.6226674496073727
Ni 1.437078862250066 2.179105193259842 2.2005994903712045 0.687636655389906 0.4554796667725446 -1.7761067509623862
Ni 1.9940419785522674 2.574821619149533 6.524608790891497 -0.8760787196178202 0.2912872191206145 -2.335770603154029
Ni 5.29878203487892 0.4324774400560025 5.024877149174228 -0.13706756641068008 -0.9910828784705578 -0.7886465568460805
Ni 3.1685262507092666 8.857490735462338 9.883904008425032 0.36148424896099035 -0.36177478361821563 -0.3738000902138659
Ni 5.610430308344629 3.9690121672791694 11.05296851246077 -1.0522576502076653 -0.14133636898936305 0.42205455434487954
Ni 7.8516720242487485 2.929469629071555 0.981609423184536 0.3804749311308802 1.0636509796462714 1.0468056259541585
Ni 2.8415945468382255 4.028353846331706 1.1916135992601313 -0.16510724615671565 -0.8089058213157488 -0.7012802143152698
Ni 0.1460013293052721 1.0071557792441894 6.655682312746799 0.12656409577619496 -0.6772987637990078 0.7310080803970056
Ni 2.9748370901653893 6.919865599645669 8.211091695704974 0.7727733372592497 0.1751414904642661 0.8530388070792212
Ni 7.024816154853121 1.5688914856000604 10.959538098264192 -0.6417992853408173 1.430866474664084 1.0747458040078521
Ni 5.936712048589683 1.8064067649247186 6.818652335287638 2.462597465673307 -0.47416875854161566 1.3078787833852379
Ni 6.089509211864374 9.0075766218972 12.040920652115467 0.021287448623866563 -0.6302087522897405 -1.4335548201295247
Ni 3.675767149623526 4.3479781020077315 6.511277108403055 -0.20140942302185957 -0.08868326157002147 0.38141312667443344
P 5.666782154717629 9.280635626368644 9.509993862187176 1.3645669801059017 -0.6751886594345404 0.7891818605242602
Ni 0.47323665904159484 8.008619669535094 8.120312204582953 -0.3430826065253511 -0.5443251649520432 -0.3508961890324989
P 0.1513068895322506 5.508042466862494 9.263678075366666 -0.9180332096727349 -0.28784348354638817 0.0368729617669494
Ni 1.2672340815852245 6.147931656645873 2.3613401376749117 -0.06708522368427156 -2.354468436673848 -1.372471579664959
P 6.116241287281719 6.711765816994213 3.6198526359188676 -0.7258933848782595 -0.8541053006705226 -1.0624932118927444
P 1.2128135557008688 8.409155111451739 2.4127364756595004 -1.1148598984199187 0.42880858523926146 -1.3650742587596232
P 3.360386227905725 4.544257831860896 4.170987435534904 -0.9159210484257388 0.3151375433756508 2.9303130123904113
Ni 3.2545350088165494 3.1134000500309824 11.749827014061838 -1.4158969978384455 0.10479739352306468 0.655911042151851
Ni 3.3407666115956 8.264584630643101 5.7670984692718 0.8469144393490382 -1.4003793618188207 -1.7944621135411223
Ni 7.379798431782794 8.835131986728413 7.113265990635716 0.2579952898367041 -0.1486789253973633 0.8437488971368632
Ni 7.464163710435797 5.515145640775057 2.272517037067108 0.8201533692051101 0.7446827496706208 -0.45900953430267405
Ni 7.923075171160657 4.158838686845757 10.8226613297483 0.9842375734139502 0.4862560287234529 -0.08041305114142926
Ni 5.898419905824441 3.224014573979171 8.881750163542538 -0.33445809808113364 0.2840919869237559 -0.9741881595977482
Ni 2.322840006549354 0.3163948649743392 12.091869443717592 0.5291417723433854 0.9977322654662751 0.4304404644157297
Ni 5.9741870942251145 4.203333339641839 3.081274205037418 -3.237387833362586 -1.3303137153499864 0.22328231183555095
Ni 3.998873353295905 7.624556162939869 12.067298961616382 -0.4480795176537315 -0.8571173480239691 -0.1395751633238822
Ni 6.138572180431672 4.246648772716488 6.420538472137523 0.32459148969969903 0.4193839494912519 1.3679464381010957
Ni 5.973128582034223 7.159507188546768 0.03132174713627326 0.3627811133955429 1.0953269705933135 1.0859707261893943
Ni 6.430702974728482 8.511598664101815 2.3984948440946776 0.2395728214654584 -0.03653203348776289 0.04370978218312472
Ni 5.187415410163519 2.657339144065805 1.3349212935954238 -0.24363953533566424 0.5303021112000739 0.047573378903589036
Ni 5.48401238309032 5.066048630802588 1.042586225016161 -0.8035095900008421 -0.5127275926514202 0.49316484002814426
Ni 5.967520324461428 6.532310859859433 7.523067128300526 -0.725020752465319 0.559348634944069 -0.8293347785940619
Ni 3.6810597105779848 2.5466503385603616 3.795066116134355 0.12533767956826158 -0.8531773895396145 -0.19526088692196047
Ni 8.638406567531716 3.187913737152968 6.0568067562826124 -1.0417636926548768 0.690633790345017 0.8600682031221769
Ni 1.276296431570403 7.696358573222025 12.90598138344656 0.9331307274358058 -0.3672250080995095 0.8316675404922967
Ni 7.410996685830129 5.022194656437836 4.559453052916987 0.8403308725942495 0.9901243712120302 2.1324616491166113
Ni 1.0943437570729049 4.468035668922033 7.542975514164482 -0.19021561118856917 0.7880924841148234 0.10222423347924976
Ni 7.1864342530519085 5.045974039954273 12.873637336378557 3.4043125923440143 -2.3182876158779173 1.5399846070496896
Ni 4.945944637915002 7.0187436375474785 9.742759764444807 0.5679754573811314 1.2475856429221355 0.6151724267819083
Ni 7.691734546282867 1.034519247898207 5.31582129559388 -0.8303976726409377 0.6559953743355412 -1.352624977252677
Ni 4.855451130788414 1.7944102934279456 12.581170418035166 0.9467408620200728 -0.13748691333628577 1.2061967955627033
Ni 3.2613689120840617 6.690382013699269 0.7880075434704343 -0.18297615601733647 1.3735519572133312 -1.8176845744041727
P 5.274835517858659 5.343053843003235 12.641781383197307 -4.47068688445872 1.385752355934265 -2.2191885582912105
Ni 9.01034360990497 5.568247669018127 0.6206697653629679 1.3779675697825238 -0.6804481080612669 -0.9487339811907015
P 3.2508116457591147 1.073331361564238 5.473844166421499 1.0293007843011757 1.3078954955557862 0.9201690250688154
Ni 2.059836867891381 5.290982471367085 12.821764667908067 -0.027216412513791834 0.14983797870247098 0.6300066635812633
P 0.9083557369774983 8.390454729412651 6.098255865231216 -0.14395400911786824 -1.7227044240818459 -1.9054563799035185
P 7.948191622707694 8.045398325571254 12.849556184035771 -0.9146085002619022 -2.2811344038663877 1.4515453431696743
P 4.478685787193549 5.210126996294407 8.670713473821092 0.1081107741670138 -0.721709428703899 -0.5892503075995078
Ni 0.15814264983869364 2.3843079951783315 10.751681587712747 -0.21429013563926963 -0.8878278897339483 0.6847997001617432
