# total energy = -381165.2447295324 ev
CRYSTAL
PRIMVEC
9.29948902296558 0.00000000000000 0.00000000000000
0.00000000000000 9.29948902296558 0.00000000000000
0.00000000000000 0.00000000000000 13.61074219187114
PRIMCOORD
 96 1
Ni 5.744443018452059 5.745084683178686 6.409297880279024 0.3613253547856229 0.28766839142110456 -0.2870040183642283
Ni 6.955301555552582 1.7133099165159265 11.39136043804783 1.5402142065619926 0.80022629126388 -0.7910793346572892
Ni 1.59076125321894 5.278073655548441 11.879741690921394 -0.6970610340275996 0.11002830290470082 -2.5056963537453103
Ni 5.765859741139337 6.7089208995053555 10.389719009936274 -0.5374371795829583 0.3142487130127943 0.7469538050929846
Ni 0.4429746389503443 4.808681958787522 2.2414846118780423 -1.1313147015418323 0.5849845903446184 -0.4434782714362943
Ni 2.839747694365423 6.532900175656111 7.067704476577827 2.001033797490212 0.02625764814494833 -0.09847376529788202
Ni 4.226887341001359 0.3965776294708084 1.1853184210830066 0.970754708436167 1.471791237902904 -0.8779952199142427
Ni 8.240621099408227 8.237366278331132 11.454813639920218 0.37297476609909314 0.6939181175232436 0.27441666861752095
Ni 7.475840440667836 8.230466057647693 3.0457025426862625 0.5754313994385445 -0.5800614420113881 -0.22768635444051755
Ni 0.38202671935843974 4.190349649538781 9.746461280879146 1.5035559319090106 -1.4590354808991324 1.5673660843864363
Ni 6.15752631057925 4.078253611643662 4.317055184325656 -0.08419797210515821 0.3367983161785361 0.515246502418532
Ni 2.6168668464948146 7.890904523907659 0.2588698694944764 -0.7579092756632237 -1.656292058094883 1.844352313503346
Ni 8.9115606167516 0.2819688697041732 0.025089090811120013 0.14297159059994086 -0.13609594652603013 -0.7728327297422755
Ni 4.0166444983986676 1.5532843133884 7.524344714307571 0.46332384540731175 -0.12285810767951745 1.5462624696386016
Ni 8.717257097937877 5.61382239888388 8.395037250896602 0.06585880747633818 1.6301380254073345 -1.974657107268896
Ni 7.742624175124047 5.959149615674765 4.073858673240706 -0.04570521534659871 0.6834182464331843 0.271563515439442
Ni 3.4440935724714516 2.765156494767219 0.7917175579744204 0.24185081886635765 -0.3125762104063778 0.11663012449193462
Ni 0.1110563550482069 1.6229932813709627 1.9669023261211143 1.1220556448374095 1.2563032253007913 0.47844296043693724
Ni 7.0118703458724765 8.480036438350472 5.177227209244639 -1.9168427673635893 0.14049716091751932 0.2851255703945928
Ni 1.5438639312424107 2.2098933185037675 8.6263518051524 0.4665696060381191 -0.6452201380969083 0.2827048767682422
Ni 3.5419055955825236 0.035627271509871335 12.629094497756359 3.0488156713147108 0.6602909163871016 -3.9569976992249782
Ni 0.3747340602479907 7.08936298597369 13.145159398813925 -0.048487663187742294 0.49813581088017433 0.43561069576275946
Ni 1.7483968877270002 9.246574700472493 9.336356615011933 -0.5526879350944417 -0.8830695491133566 0.3777289929546269
Ni 0.9253605113999016 3.779600529098305 7.075503027878544 3.343438896787094 2.9570272884568043 -3.138615820097995
P 3.4376490267388053 8.806727479602795 6.952625162678332 -1.419525595729968 0.5670056372686945 2.4610216365457553
Ni 5.70741245408352 7.854841106373457 1.43873693024779 0.5732220504920514 -0.4907564876969677 0.8296921619334808
P 7.359727023614704 3.2359338153581003 2.190743811183905 1.229142348615283 -0.05256363302932883 0.6859782938508766
Ni 1.948949663008743 3.886739939467449 4.717523719906911 -1.3091882462252806 2.247666096905613 0.9704104377228706
P 5.291632310206736 7.105134918964409 3.588200310685351 0.3869602817449078 -0.3327922803429365 -0.3200028418877521
P 3.1308588915007136 3.7532922753065936 7.93066634813432 0.13246606308292672 0.20412707906333877 -0.15980665987940865
P 6.5537775279934705 6.092104406929661 8.478865632711598 2.306380065807054 0.6054063485340799 -1.1392172442183608
Ni -0.18828581961661506 4.766192594498258 13.15241393002033 -0.4710677510187887 0.6165965608229446 0.9936583525072177
Ni 7.2640352839481395 0.9146633094428122 1.9439818760962182 -0.81757789516845 0.3139252682351045 -0.970735168052141
Ni 4.961379564747191 7.32627676243097 12.938643791318947 -0.08546526885335604 -0.03247097604451182 -1.3245307901196222
Ni 7.961115664284973 7.177438444319854 6.870511606596525 -2.5144422182587407 0.3860092306855481 -0.302731199291498
Ni 0.8864440107044069 0.2164762899397661 6.9583964254224595 1.8339992524037965 0.4216220947931513 -0.3107340149913164
Ni 0.8040644892431569 7.170166244084748 6.862699106062619 0.4214511164329258 -0.6173779190736594 -0.6311528613705646
Ni 2.4450959890233745 7.608590643169315 11.372332754031138 -0.7816323303117764 0.10386562573741467 -0.5347475485659371
Ni 7.785569214364104 5.9009441153275315 11.11843811104022 1.0230445189788187 -0.29366703220670065 0.5691332251346585
Ni 3.410885097996301 8.25170609004793 2.752445953486727 -0.9316140336809633 -1.5654256728306137 0.8075228249252931
Ni -0.05879043819223085 8.501239272795543 4.974141253216037 0.766367433732906 0.5158653669494535 -0.5028013346766438
Ni 8.834151672049511 1.7389486071146356 6.009346396274589 -0.972696662653886 1.0895335038399883 0.44628694452968304
Ni 1.006492971414185 1.6203336275765372 4.300450017139202 0.23372510443542974 -0.5482507252586944 -1.6788743142707732
Ni 7.254168526340148 4.1317256721959215 9.429521683573794 0.047250705456847654 -1.0083578635009214 -0.15862832330059135
Ni 5.141492063664784 1.3671457457337879 5.472103769391688 -0.7341545964457873 -0.5213245902918119 0.735017972887347
Ni 1.0440815051102252 2.9483657234524463 0.2121176195430976 -1.1913569023363935 2.047973913685176 1.7832508182063354
Ni 3.769371091427438 7.789660989432452 9.224707882527696 -0.2738525685839348 1.5595550729824497 0.12490881956095909
Ni 4.583318147409532 5.656888331478229 8.634885946016539 -1.174888215257409 -1.1564580335766794 -1.111841166198253
Ni 6.155843103107953 5.08876396221586 2.1764532867577038 0.7268940582286321 0.13125584482490943 -0.7543500975570556
Ni 2.5066865032907852 5.7474653523093595 9.457587540747136 -2.555579868839315 0.004596618231746922 -0.12083104994715965
Ni 3.6478732703639136 2.50490100144278 4.14625426353519 0.3852954924479751 -0.7564717718857488 -1.69746339012687
Ni 7.9295531993259525 1.4612472728169723 9.05562085752154 1.3581885873833832 0.6576568211983641 -0.410986469456176
Ni 6.657336635177811 3.0265372262354537 6.9351216648745995 0.2636702287342943 -0.0248787655195507 -0.13578072927845647
Ni 3.232846385079257 3.525715185596179 10.173131126131008 -0.7070623682146855 0.4233241650859226 0.18255115266477592
Ni 3.3448959255304174 1.1112889106078214 10.15445775263728 1.8051630448983942 0.5471600632976771 0.8300927398060091
Ni 0.5032650846846759 8.594727033618474 2.2812287670759983 0.7024798910503256 -0.5840985881952392 -0.17344481948813353
P 5.147750619621597 8.725282556765112 10.907648458496576 -0.9417138411191266 1.4318026133251085 0.11313368130290193
Ni 6.967056109385288 1.8694390338397315 4.278251207444541 1.5017309628851299 -0.7043719658667159 -0.03356215222616155
P 4.5746045264117114 5.29433846144512 13.73214964098801 2.9896545875735225 0.40385757172087866 0.2177863217179862
Ni 1.9703291877408549 1.0527207301977122 0.01382647993549547 -1.215149633880617 -2.3084143226282627 1.217589353670361
P 0.25146282667188946 5.489795116869013 5.306991345895103 0.45123220435010025 0.04998353100697843 0.0743987266265493
P 0.3891408282840881 6.432474996194571 10.13123692912441 1.011263724293807 0.985745011197412 0.4593702600762024
P 1.6017439494819343 6.511278864215414 1.5805745931965147 -0.40796156658692323 0.33857417713203625 0.5606354720762925
Ni 6.84986395163232 0.6490801389896096 6.913603577759491 0.4859325839457631 -0.028900227974117967 0.824668226356328
Ni 5.377159708623975 2.518282965814032 2.5034372619069662 -1.1411769390478927 0.8852729845225785 0.7239375467034693
Ni 8.611949686860697 3.6773619493223855 4.24416951097185 0.48125034797874544 -0.1748059615017183 -0.19303559713586754
Ni 3.7833110251261926 5.689250552473336 11.360967848778804 1.6191123637207923 -0.7809784987778614 1.1051740385907223
Ni 5.371235934263664 0.3916628496443964 3.2834551330325525 -0.283662355585505 -1.86997669893967 1.0523710358570777
Ni 5.69727601130057 1.2159174590032071 9.148296772972957 -1.2717658397127645 -0.3710562089201416 0.6563162480100697
Ni 4.799717251592327 1.9618108560076604 12.012867592770057 -1.2390305542632727 0.2831861872800349 -1.0717970057921733
Ni 5.709486240084068 8.03095482511062 7.683440368555927 -0.16746289087308577 -0.3023108239246277 0.4441267036535706
Ni 3.895834839505729 5.31548549895744 2.3972194308770796 -1.028517369167932 0.2930741358177082 -0.2911630348379244
Ni 6.968469631681626 8.694064172891384 9.586194820991915 -0.44329520889121077 -0.504027493774261 0.15546920884631935
Ni 2.4717297249227954 2.775692815568212 12.220500068868919 0.8265127357642346 0.3173643758236406 -1.810039399154089
Ni 8.058537108866794 6.427034795251428 1.5346927753960389 0.0695622244698544 0.7518720683302083 -0.9099956840802392
Ni 8.032396245873333 2.708252922850823 0.1185573227075899 -0.4822767323607307 -0.6585019428074788 -0.20251088361615446
Ni 4.636883202849708 7.829081522420457 5.682934339686015 1.1370032672861774 -0.8816991511283913 -2.675983344330753
Ni 2.66664700999677 4.8983569292058595 0.16499524993780929 -2.7348531220837673 -0.11152751315804663 1.3495278263845918
Ni 4.587977191294172 3.7380876111321686 5.958265234290675 -1.8000110683838098 -0.21344835646426466 1.1351854973511482
Ni 5.744052439922807 4.284516273043508 11.241479647243166 -1.3571236364539787 -1.2174178610895035 -1.1888140813098818
Ni 0.3397763519311216 2.005797437992388 10.795265066397793 0.13986621220173975 -0.9209149020959043 0.9423594451229256
Ni 5.137586278372272 3.4203705765638324 8.95942043581807 -0.17685075984588897 -0.6545578705580662 -0.7953910746587657
Ni 9.065197471079228 8.628874756461586 8.65600973480688 -1.2253260601929865 -1.5489934954165194 0.4789196429630396
Ni 5.659464289873529 2.5877501470880104 0.3310469218023554 1.2608502212415253 0.670247256268865 -0.6975986516986243
Ni 6.6706721021051045 4.916202648197126 13.08612903381087 0.039606301537712434 0.6514563488146071 2.417476404964953
Ni 6.48189247963365 0.38930542923570116 13.250492848459722 -0.50835234640186 -1.299889337421858 0.12025152329460581
Ni 2.599514000409507 9.113340924553846 5.020730762113561 -0.5616528575972134 -0.06686333748145258 -0.6730572149138344
Ni 2.1621404435584024 3.4936133502872395 2.559513179320901 0.5638169551280676 -1.3774620909010147 -0.8713203789972284
P 0.9528163221085085 9.178056067055268 11.673306988978903 0.026055816546787382 0.7886758674221193 0.5711060325903132
Ni 3.4535790510389828 5.954667262077166 4.684027891228096 0.8443605625789329 -0.15283974164327227 0.09779422273235416
P 7.204741743412278 7.210516725951922 13.164500475602898 0.6995840575597694 0.15935800237776426 0.5848449794429604
Ni 2.434122592249172 2.0878561270903244 6.023106849839663 -0.4190965001578202 -0.2399967963767544 1.3168676171474094
P 8.631673902587888 3.178202588939244 7.906697845722599 -3.3215950614391248 -1.5145571681155205 1.6719675598486108
P 8.229870890365024 3.743797497250271 11.50413905842026 -0.4586223261665844 -1.5139989816192054 -0.05389289336371364
P 2.4853441765138404 0.9604326034289086 2.3109815515161545 -1.1627927175454555 0.849839069195001 0.8360741542004246
Ni 1.3856424289404736 6.865542889735121 3.898156921857016 -0.5032327657871074 -0.5575743166524656 -0.30794385384068895
