# total energy = -340897.9021994932 ev
CRYSTAL
PRIMVEC
9.02532100890255 0.00000000000000 0.00000000000000

0.00000000000000 9.02532100890255 0.00000000000000

0.00000000000000 0.00000000000000 13.20946958996065

PRIMCOORD
 96 1
Ni 6.421416628404658 2.1333241552190367 11.40709060387071 -0.32294855477963735 -0.7460827153419409 0.22886469101933488
Ni 4.5776698981667 0.4075320530099164 5.929519484612347 -0.1766910943395731 -0.7827250491553229 0.09189405519783528
Ni 2.704681127818452 1.6211823138429617 4.730694216089537 -0.2359869038864129 -0.3862033489742252 0.6575056403324805
Ni 3.2898468415810598 4.231566887626746 4.903196981841394 0.28442340212124567 0.10472771662739384 -0.6895498132522189
Ni 5.116364233988602 4.413463207497984 2.9092932781691943 0.6588577834850008 0.824419857790948 -1.3116143391682702
Ni 7.3258620986307434 6.158788811994359 2.537710883852893 -0.6160666564614035 -0.7051042160470502 0.1025250525491202
Ni 5.113773966855375 4.550115593087466 11.74875315646799 0.6830842601325332 -0.28921722396546323 -1.091418893788159
Ni 5.6899685115224194 7.85244445364153 12.416188281471756 -0.9447590557033535 0.5400507059464055 0.08332405414063714
Ni 1.891075513675725 6.69445063995297 0.349257360237037 0.06740558313816779 -1.100518284986266 -0.1968907092158996
Ni 2.8451783001631763 1.6497384295556043 0.4649773187809021 -0.13071102806503296 -1.2753903238392295 -0.15814469879595347
Ni 0.4296738730724404 0.08247789615675853 4.6766542039400365 0.5729099185682714 0.0292054179193626 0.33398707198198613
Ni 8.599443198644149 2.4290297731738475 1.4860786733408025 0.008873905450862137 0.2843879208976199 -0.41412938596053195
Ni 6.876933605690619 0.6060151078548256 4.836290472043366 -0.5741584462633919 0.2132969184880649 -0.7509863232911453
Ni 0.8802269237964697 7.415050320967131 2.3617739834522795 -0.020205014192965203 -0.038457018424617635 0.8598563442216869
Ni 7.554229796442688 3.880644355661206 3.838063793612952 0.5785555468898229 0.07243543225259139 -0.21222348291822804
Ni 7.760909647839501 3.833216293692199 12.481680523465684 0.2518225853670889 0.19850870443529683 0.8441314772872622
Ni 7.959963102972981 8.802332415211849 6.872014805733794 -0.7314564807883338 0.8827479041078797 0.7700137722362416
Ni 6.90430740434942 0.8151381136522108 0.3055233621622102 -0.5135832557834962 -0.36536481496231915 0.5947668665423628
Ni 1.9879533095225974 6.280567468540088 9.260816015517642 0.32079962675743456 0.8322691786320376 -0.8993659722805349
Ni 0.19489548973878543 4.886426130318882 1.2974891753998754 -0.46401701481959445 -0.2924277604829609 -0.001030241036727258
Ni 6.335125534116233 1.869243262124245 6.981468483892297 0.42881861254159054 0.3769815732656411 0.4941374883540586
Ni 3.2398194871578054 4.148777617894739 0.26997803785036717 0.36485110855069425 1.2803651513460013 0.5085670335158273
Ni 5.914482397258101 5.59790121178011 4.77059967298696 0.3890937831481428 0.41412064420978356 0.9778398974177223
Ni 5.409587888662446 2.948175263662758 9.271687014688274 0.5104894473495208 -1.0232208966556828 -0.19665879571075162
P 0.21650301079682507 5.613307434764143 12.407087147753478 0.37447114813896154 -0.6715752310516692 -0.11981315020560657
P 3.933559812811403 6.108923913349495 12.713309069762767 -0.27106189321267515 0.6085073560569069 -0.3246642519191635
P 2.597541541969912 8.599840312769103 1.498402749195927 -0.6407428190518449 0.13389996731597587 -0.6238954084772029
P 6.222543679691611 7.678959732962512 5.893774700705924 0.49664894192200276 -0.20791457113022901 -0.5819985111331009
P 4.7618947508615355 1.0524878109449467 12.500676116620046 0.5736624804635798 -0.35747847023570695 0.29988036010626423
P 4.11810957706302 6.152010795907065 8.218257862760765 -1.756687208785194 0.015084662247264343 -1.240030970503329
P 4.677345543530299 1.0384444114351894 3.7339864991870733 0.096386286641234 -0.313034380989719 0.647949106992297
P 0.15184290340109657 5.659508053074199 3.471461571436422 1.0233401958423667 -0.6467219194534152 1.1247128799545985
Ni 1.4317588762396298 1.1299250653110886 2.631286314737927 -0.10581683592651454 0.2734447916225549 -0.39189937091773797
Ni 1.9455523513626751 6.414124169019128 4.692928662806357 -0.5223355480548294 0.3629760030151684 -0.05691779623296649
Ni 5.940682904184081 5.4826478623330654 9.025079143091483 1.0524168014933488 0.5040236371195191 1.0330322263191498
Ni 8.574434034093033 2.3737948085210747 10.08413558267602 0.3456495959215789 0.4467625986145209 1.2013209555276407
Ni 2.4817286226195234 5.123214452644068 6.960927755779022 -0.6858307125294189 0.552286585890965 0.46208920166926226
Ni 0.4131719761163735 9.20853503843527 9.316837085631406 -0.40822998975696145 -0.6977860851190821 -0.533177890085972
Ni 1.5825810158331728 1.1163148812103727 11.301110771773457 -0.719292077511658 -0.1780576356697966 1.0390056702937653
Ni 4.085510117532658 6.837032661453706 1.662517381590222 0.32807893402766725 0.8323807645092375 0.18420180089432148
Ni 5.662811320568139 7.917435790318755 7.997435333322956 -0.6578789645114992 0.1486473008284795 0.13831892231927792
Ni 5.226644631552691 2.858102559866243 4.942930957639407 -0.18669268563697525 -0.35249387253692194 -0.03168884646284865
Ni 0.5553325151253958 7.26679137254375 6.748876935842199 1.448595259402415 -0.10197149403849537 -0.2553210854386506
Ni 4.987202864847127 4.426739454720898 6.976224772378693 0.027171675318785463 0.27294008407199444 -0.11642546468029627
Ni 8.166101435108493 7.091997980316585 9.002610606407973 -0.3459712409270558 0.6387335019312999 0.8668600292330297
Ni 4.543337577000173 0.29931574636348846 10.419180769900194 -0.49593417524316524 -0.24956747078432504 -0.46558384508608197
Ni 8.037472559907297 7.232612481834592 4.7032716806972195 -0.057218358192520816 -0.4561707793022982 -0.0007417632620309807
Ni 7.2790567838122335 5.94573708395623 6.998443307669901 -0.3414882654550377 1.0810550340553318 -1.1802561644375416
Ni 2.3236952515296467 5.214307017716034 2.452707702874264 0.2693713928841296 -0.20021668826533906 0.5290810943087791
Ni 2.305428001781736 5.210056091514816 11.347674207988584 -0.0011875925501979548 -0.7428081583557271 0.6766822132609314
Ni 1.078327305030059 3.416327690379092 3.83284625553031 -0.41064322718414437 0.030651663447585922 -0.426782041727536
Ni 3.6336844965445696 2.747136237904505 2.7226036103033335 -0.4524781609420594 -0.5434005962552448 -0.32683554853886937
Ni 1.1719469599880998 3.4016795943608815 8.252774300476133 -0.679668806693081 0.26472566658200214 -0.12944578819936417
Ni 3.5661299686971835 2.498371314583529 7.069285759965491 -0.045852025337108124 0.39737427798938013 -0.46887125758810216
Ni 4.066710373844468 6.880976949508338 5.926746003462379 0.21153828392574536 0.37381757371536267 0.5044589248847248
Ni 0.879706162773518 7.338010180725944 11.31274802069883 -0.1948554239534257 0.3103162107276075 -0.31717231441749244
P 0.31961188827707593 5.551456909802468 7.981570624031021 -0.04863884405362592 -0.7940872682456775 -0.1293347165427966
P 8.34677031132078 1.7105961692048928 8.042175654691702 0.06930922791878387 -0.4843585545904239 -0.4455348968550069
P 1.8419055647495315 3.1435283371773433 10.420329693266256 -0.11317404762253414 0.7958101644740553 -0.5499103723493045
P 3.9633343468619744 6.090557385070346 3.7756491860874206 -0.21106905759881067 0.0952935677976875 -0.009752965621705785
P 6.970986476057701 4.079580481621404 10.437132133412344 -0.2689774998798206 -0.012046132531256673 -0.41123406669060786
P 6.188581396686974 7.694618664935152 10.179732685469913 1.2802036860674728 -0.16873404427602554 0.537438465134539
P 2.2713664402458598 8.448368350061997 5.7445211619059515 -0.28445348402823273 0.2913209005720273 0.0648049122905271
P 6.9444339816118745 4.037152447498417 1.5231312262632686 -0.36581450090522805 0.09859640691867536 0.08779545964842944
Ni 5.214631929272816 2.9114602577465027 0.49757407071495735 0.846965861412264 -0.19068406618455547 0.2076911422655133
Ni 1.2966498205448578 1.186613106648354 7.034954341331066 0.07449462877446525 -0.8797227441283108 -0.27204225484807343
Ni 6.852745745352476 0.6837890066950767 9.43528630125223 -0.40439981737759384 -0.2768075374472007 -0.9760290694612287
Ni 2.5687146666266187 1.4956310731101645 9.14420255019263 1.2367142474252704 -0.04694037330528045 -0.13969163429708845
Ni 6.206144671395192 2.1472682761975554 2.745958433511173 1.2549302562126645 -0.46621376536059705 -0.8996973874780247
Ni 4.2801411653655075 6.494738336384906 10.419880232279375 -0.3707080815521035 1.2494514924862805 0.7530992558690901
Ni 8.106092075635242 7.163920763538472 0.3837909460623481 0.7482815227654727 0.5045481421644213 -0.09327756580892323
Ni 7.61196477501847 3.9435869444665057 8.09227972434364 0.7117330342174775 -1.4821779804538666 0.658050199982041
Ni 3.0107568396271898 8.393061182841054 12.389901131463967 1.230545656720713 0.27909479081948063 -0.4830442066543746
Ni 0.08770987475303503 4.821263312542245 10.109696194341561 -0.09243218708949243 0.04574506744559864 0.7141904946190346
Ni 8.51706909367914 2.2568988506480827 5.799974539327449 0.09890005420202322 1.1591198966795586 -0.3757852389646948
Ni 3.651717087945916 2.689536639144048 11.604848925437576 -0.07293088383177117 -0.05632464273365784 -1.3062227358390537
Ni 1.1753043794081703 3.2188085398193 12.635069464357796 -0.8213116511792693 0.36621302189522736 -0.33143885163883563
Ni 2.895548616785255 8.395227259886259 7.826082393469261 0.7987895588173534 -0.5543594092595937 0.4091003081770568
Ni 5.668479222169763 7.792732929761997 3.641718837318082 -0.8723488202617429 0.4241402332293147 -0.3513330194596014
Ni 3.103419810556931 8.448756438865932 3.67464952612994 0.580713216662774 -0.6456939924095331 -0.25827374030907135
Ni 3.5195773628672815 4.127288328542083 9.028104430697955 -1.004596082465644 0.4941233472866716 0.9691459691881504
Ni 7.258334646746422 6.177010935137161 11.50477436088482 -0.033383974777084435 -0.6581427596958472 -1.1675405166430861
Ni 0.7013784548342578 9.043642423368905 0.33300004948065803 -0.1276529579649995 -0.1531775845986652 0.060757224583714714
Ni 4.71334754908584 0.471569413255148 1.489988442407401 0.044926171088729074 -0.9843460739673565 0.4974585823074916
Ni 5.960132470985833 5.744472425172434 0.4883195065393115 0.0929986011159237 -0.4180575173703445 0.14203879437302636
Ni 7.970603956457559 8.68347796267715 11.448528560277618 -0.29104733519566656 0.6961938009312977 -0.08710100468456612
Ni 0.19938378188287426 4.935569003282009 5.687706766074382 -0.33431951562074036 -0.5714047947776546 0.21477735968833334
Ni 7.990170852432594 8.75573468277684 2.492098716473451 -0.23861482842756324 0.9685137349207901 0.2918546615883103
P 8.37111160211629 1.7104607893895674 3.528156833030504 0.1196516849270778 -0.2967312729543212 0.8343047210048276
P 1.840524690633212 3.1748642517646677 1.597869909643924 -1.2544098649328204 0.4167940772768886 0.710648542904047
P 4.69545936282084 1.0375148033699548 8.17556538673184 -0.06165891046237768 -0.36727411616989003 0.9278442822258859
P 8.626094971621214 1.5915521849287375 12.487783445540556 -0.11939508883158148 0.3346676429887785 -0.9589258341220388
P 6.3221290718449925 7.84658702029845 1.4516813698629192 -0.5817593985391013 -0.16249989044085564 -0.23254265409155436
P 1.6993957458169693 3.121705110946885 6.048708776556951 -0.2998587628397094 0.5628749029297725 -0.6517278573084389
P 6.8506879721595295 3.9261500242525913 5.973480920776919 0.7422270890412765 0.13358423584776993 -0.15527483344732612
P 2.327594190211019 8.383106253754123 10.036343800269838 0.6847050835654079 0.17646355170979933 0.46324079877520224
