# total energy = -381167.5446177372 ev
CRYSTAL
PRIMVEC
9.19904876118930 0.00000000000000 0.00000000000000
0.00000000000000 9.19904876118930 0.00000000000000
0.00000000000000 0.00000000000000 13.46373771609755
PRIMCOORD
 96 1
Ni 2.9943547910362547 1.6673276024027783 5.471259405155559 0.5489796330049191 -0.9352410889105892 -0.344120303761246
Ni 5.071628805982356 7.737945515354153 11.086957675685612 0.452265273600305 1.1286700648301335 0.4482900910026409
Ni 3.3302488604107925 8.550718276637987 6.534706247352363 -0.26176529840209756 -0.4715991980422265 -0.23894855761789818
Ni 8.55390114753692 3.7367824258341638 7.711988559239947 -0.2540026237375432 0.03530741705204242 -0.4719848635164194
Ni 0.9864324053012674 7.137771971831039 4.46667543668154 1.0389336794052495 -0.19564166730014693 -0.10235844506426889
Ni 7.373286020254299 4.149543747322785 5.8708762057555 -1.639996149148337 0.17133008713797587 0.40043389075131036
Ni 1.7459702709431444 4.594989289342922 3.9704428659159943 -0.4484309874558793 0.46584609760853324 -0.2249591853173416
Ni 0.7988417217192624 1.2362601737208794 4.076900698436417 0.6987579621140483 0.8857254986789649 -1.0608196808450634
Ni 2.453975064978619 5.067930788348338 1.5505107209826825 0.40202077562245603 -0.6517173157854775 0.6379626852035465
Ni 5.402941749034155 0.5737695136352429 5.947539238985317 0.9748864712163532 -0.2981690338421123 -0.5520767838730041
Ni 1.54271728680472 0.24833568269762715 10.59768510527305 1.7626642523042353 3.118328787714184 0.3083721996273593
Ni 3.853656341357073 8.533746031526633 8.99591728414919 -1.3171509527157832 -0.6485096074814573 0.8885778805260955
Ni 3.839719782363196 1.3852203716006486 7.6779116027139285 -1.1789801259385952 0.17225234184192917 0.42407724120186313
Ni 3.25196495477522 1.263811324999204 0.30439192661907166 -0.13443244278067815 2.1496728707885753 0.2591589711275021
Ni 2.329557929406219 0.35245051747828726 2.3164088089931183 1.1592229979163262 -1.0403040773902148 0.70747914403713
Ni 6.443574950105669 4.918639424710298 11.090821276198767 -1.3154116014271733 0.7418334531472837 -0.22933828822164376
Ni 5.2658023289148685 2.8876734216289996 5.658189597030791 -0.7257666294924081 -0.02558684733016884 0.4246940488502557
Ni 3.391192558981377 8.343224530983935 12.995172490939588 -0.1883047673191015 -0.23012247468583594 -0.2505347197936008
Ni 6.557256795680805 2.5568204310192435 7.600468490142408 -0.2098578108995289 -2.0451433862149164 -0.8794448078765758
Ni 0.11392286065476682 5.4696808483744705 5.788182276105627 0.6093931010959698 -1.0691587968383782 0.3219288552658714
Ni 3.1176588416989133 6.38344996688192 5.226447878068859 0.6601263657847792 -1.0145786475996528 1.1876267458699998
Ni -0.24231490523129548 3.3059081771779226 4.819371568763877 2.0686625523827793 0.3757109340833336 -1.6194666617364175
Ni 2.239076085007688 2.749457712795335 2.03340099130947 0.2980821305552608 0.10371932996753751 0.6624411299608849
Ni 5.432866254913416 3.006561928848053 12.806545994458103 -0.09721289630758742 -1.5083950051688668 0.6728481842268219
P 0.2372259914125412 3.4580972412008277 2.7217888136918473 0.42435389190201755 0.16505222454906412 -0.5515515074971533
Ni 3.940697741489129 6.797572747598986 0.92862098286099 0.7830194404672902 -1.6121523874631913 1.254093362133666
P 7.434836856048379 5.829777615249267 12.793230371260982 -0.04456107443982648 -0.4277469767439665 0.007793013681857547
Ni 7.628936786590164 8.660251351185904 7.170181140802212 0.3552364682790657 1.5056552376402006 0.7571597990917088
P 8.719014875181209 1.4629339362080895 7.9083569752258835 -1.2470580525534394 0.5132302433194517 -0.6691033724724089
P 0.9902040153260131 7.001929617598312 9.428103317170136 -0.19222544252974638 -0.2884140113378775 -0.2346941532169184
P 3.1833860456667353 1.9351211132085564 9.753185744442032 -0.6402746211661747 0.5003562155702608 -0.414135556608119
Ni 1.7169012766060807 6.8438531623172665 0.32774003248201505 -0.42439760065575943 0.5165605932442653 -0.1308249279350779
Ni -0.03741345154059222 1.7924990599801278 11.595872975088028 0.33301828031081354 -0.27819104805828865 0.3336286602013028
Ni 3.838247934548661 0.7385070001819418 11.435251142992723 -0.6358528379493953 -0.13428768967269775 0.010696303371581579
Ni 7.23994580730628 2.9244236217481667 9.757736513903597 1.7227895275964846 0.25625593854809414 1.066865372818511
Ni 4.3570006967814745 3.5184430015967574 8.0963919728669 -1.5712242817902617 1.1171862325602502 0.37782566643349125
Ni 5.497829937827449 0.48130803392616256 13.423320141519403 -0.8456628263301242 0.7088739675021275 -1.4564978020789432
Ni 4.479044477752938 6.038034881957109 9.62584515114801 0.8326049647049014 -0.669645618129124 0.02833175706515766
Ni 2.340799167089729 4.390853196515777 9.872770619658336 0.385055351412711 1.671839776021495 -1.687723794241603
Ni -0.06695159736853881 6.124478343914509 2.172387580435997 0.7802812156005208 -0.30637573802262075 0.49220993231404264
Ni 8.494604078708846 8.291406288863467 3.4756103903840248 -0.7116559011226389 1.363862240729393 -1.447075994544411
Ni 1.2540327360813879 0.41728357389877996 8.444456383857874 1.6755347083745789 -0.39723081043298036 -1.1857051033672548
Ni 7.69632901839818 4.0887288354359725 1.625033135547235 0.11703558746046941 0.07999190444361062 -0.2518837776223275
Ni 5.570162058862998 6.7914461810709845 4.990185946974838 0.7090899401676756 0.479370100236897 -0.7348680775730442
Ni 4.75932109783574 8.803140176830718 1.93173678314001 0.21988382767696324 0.10833548858331019 -1.1531598224413817
Ni 2.80768769195787 6.9526871091532785 3.0095893358215746 0.20964852310220022 0.3470796434998861 -0.8345885707938336
Ni 1.2145412194076493 2.3742009134308293 6.667310536393114 -0.6213155635651686 1.0454416557270962 0.5592830718134562
Ni 8.157090976738319 1.3420216382440502 5.389184571492675 -2.395099837041965 -1.2538352233762728 1.5869162386042217
Ni 6.488420313204778 7.000890125079295 2.5793691395379175 -1.0818309929894079 0.16211242519444985 -0.6339052273047212
Ni 4.664331719505196 3.1930266488519394 1.955164000822985 0.30939344180302203 0.4323975881421005 -1.7556942487443052
Ni 8.407102726134749 5.074590899709108 9.69869793834795 1.1778812364474616 0.9466555013951179 0.6529761278932431
Ni 0.6191888973820207 7.950581529310237 11.78013820251407 -0.8143190219115202 -0.9344319627457327 0.9588070491559874
Ni 3.220081051492858 6.2692989698159 7.801858666890561 1.013466131261764 -0.6293556602608258 -0.44100152776102763
Ni 7.557221001826953 -0.2594407744582927 1.3061545468136038 -0.9369637280286509 1.4868743574882715 0.7712458448711298
Ni 7.66676327542371 5.616267691653302 3.9730544758819097 0.794001907620723 -0.45818421018790123 0.031442534779997464
Ni 5.738845017457534 4.95379818938 0.38136588769970875 -0.07934655755012786 1.6301076863900315 0.5353846679293037
P 6.845536588255141 1.8575639324314097 11.649727886621859 1.6841286206911767 -0.3724368913177521 0.3103730321074719
Ni 0.3819426680620297 1.443174379297959 1.4579342531630914 0.8368130892489782 -1.1680457384142788 -0.44358985731349415
P 6.248361934654141 1.8083766182794228 1.3978460661347054 0.06696463894600725 0.47082992397636986 1.478251905926583
Ni 0.7785320616884494 0.06570236653595235 6.1711175215375835 -0.08599620165616156 -0.8771300437004701 -0.13454300021661345
P 1.2915280591566636 0.6625486140933337 13.057199837463623 0.24065962677173391 0.29612706371141906 -1.2473789262279678
P 2.2442367514074006 8.963884356275607 4.553422467250689 0.48084359945863 -0.976265353841751 0.07310057664041604
P 4.846712061823747 5.285295113408615 3.5619259855625374 -0.36459219846235275 0.2645899123350863 -0.3859984320522707
Ni 7.63630522471168 7.47413519269646 11.036952566091674 -0.22887574676292838 -3.4010771161258524 -2.2630181538816507
Ni 1.3276619230034945 7.151956905143619 7.126787387610188 -1.1919407998643212 0.8751017004165316 0.10466780992373588
Ni 7.960047350567464 2.182437541294618 0.06237599047510355 -1.4355571952715342 0.25624771101797805 0.5090475726966717
Ni 8.330677028365026 6.4814106379880565 7.786200965858563 -0.6271098016494425 -0.22038750678625915 0.6772717672158143
Ni 7.869841477634158 1.61212411030888 2.950201196409977 -1.4154357419313106 0.681972000904961 0.536396911243902
Ni 2.7014938721391797 7.58971204233281 10.914029356051028 0.48315270720778075 -2.444725984709525 -0.8924589607480565
Ni 1.454121247418562 5.383338575954319 11.82673598441736 -0.4082518441338323 0.3461080236152362 0.005867514524370541
Ni 4.295238282864055 3.651755617398253 10.841405625167225 0.6912572828616289 -0.39375416473828956 -0.7442531183323698
Ni 5.46149369490612 1.6283972277083312 10.183984560897777 -0.9493243064765328 -0.7508765371861584 -2.0543978149336493
Ni 7.344667779310437 -0.18019096869443102 12.352616169692059 0.9146912897836957 2.8912291590150723 0.5575696886667751
Ni 0.4468529964927854 3.0241137140363814 9.546705733970239 1.1356506099130248 -1.1911309023685164 0.6348621919013517
Ni 8.198698274645452 7.370737883725385 5.461928809916293 -1.8303107478086156 0.297854587925487 0.9907370650953646
Ni 8.611008842740873 7.385152793258986 0.18542706729463881 -0.801442165948852 -1.4103709258138937 -0.8212954532293534
Ni 3.6440468144696263 3.17164805934582 3.9334847672930238 -0.7245594965581844 2.6011295324446557 0.8511089370463599
Ni 4.966446881536159 1.4373421823328645 3.7011683082468405 2.34517852673149 1.211908758345816 -1.3149184638408384
Ni 6.202449481889494 4.615300789183503 8.639088019422662 1.1465114638869287 1.9187289286427085 0.4130266398146565
Ni 1.383040197025369 4.786807855772178 7.621229823471306 0.3316028880205257 -0.3603344516272633 0.6855682028966515
Ni 4.048418603415399 5.703401082273766 11.925169486633914 -0.6116677560627595 0.1557728561296672 1.535210325589498
Ni 6.391940688962018 3.716746897458808 3.6821299567658317 -0.4806111717328497 -0.6264947937732629 -0.12060299309675358
Ni 5.696556989936179 0.1930457195446249 8.17571997054591 1.7293610101664152 1.141899419036214 0.9898816590736049
Ni 8.534748727850285 0.3874740561300285 9.881521674820629 -1.6670485252804388 -0.4041416786202008 -0.6996038550541113
Ni 8.42229035577098 4.050580379892997 12.022834868272259 0.42010231571451523 0.1567303349469301 -0.2176672796416187
Ni 4.338906167711537 8.658209162343237 4.075904441446954 -2.6216448787891884 -2.662494822926014 1.5797621440579437
Ni 2.0714234198833257 2.974871205591349 11.57893568636227 0.014031024171769383 -1.0656530976779646 1.3734889651858795
Ni 5.808141452375604 7.408444784924001 -0.17889574261764035 1.287384520086628 -0.9781929098817669 0.447466566660081
P 6.450419042443256 8.770557145836452 4.201992124288851 1.5857240180683336 0.03259644587878257 0.11644423373337366
Ni 5.390394246415245 7.243625426842618 7.318322623335146 0.18934709254068682 -0.3795724739212689 0.25648065296439054
P 0.6882185598837058 8.233985825998925 1.761649129787477 -0.22561764483694693 -0.17931439089503312 0.6012069657407517
Ni 5.542932874294102 5.064977893670427 6.436946115510958 -2.342344913937437 0.33975739880686007 0.7406386615082342
P 3.484130549420413 3.995027323943147 13.419509895489526 -0.5104943324455272 -0.09653592484522083 -0.5195996371809052
P 3.107061537434262 4.2810717476491575 6.395463924668061 0.2021470725188325 -0.09176370026755809 -0.5782886663816815
P 6.25641110238988 7.610538688908479 9.291917838415644 0.5830878875425377 -0.42500798054624866 -0.3411658491186124
Ni 0.9362791910209918 3.752862363207957 0.2239076085007688 -0.3490025715542119 -0.3244932735589379 0.09826653438308239
