# total energy = -340864.83878357767 ev
CRYSTAL
PRIMVEC
9.27310423570407 0.00000000000000 0.00000000000000
0.00000000000000 9.27310423570407 0.00000000000000
0.00000000000000 0.00000000000000 13.57212538869218
PRIMCOORD
 96 1
Ni 1.0031736655644963 0.6327113055009478 7.555574928024046 -1.2648400591272086 -0.7650566853412823 -1.7790421794416262
Ni 8.334276419291886 2.43704592026025 11.005554455825727 1.676944444237912 1.7955995695796754 1.354238344486384
Ni 0.23325380379989302 7.845463287291801 5.868179718770033 0.9803156126517246 1.4872818773393353 -0.6832809495243716
Ni 2.04601767010982 9.290351989558667 9.537498757795467 0.8047599174681752 -0.27386825231321865 0.4121624920421482
Ni 6.420623035907717 3.116959179823893 4.389917115149262 1.53824525576108 -0.1455069554272849 -0.4184845776054341
Ni 6.869116711645849 1.9725097745742848 1.5962990173311626 -0.45661763703172975 -1.1945468700286006 0.18207421302835738
Ni 3.3069001693854387 8.739195779258418 6.136012000135519 -2.310675607858614 -1.8184767312881651 -1.319773735050611
Ni 8.1267907169319 7.595562407162225 11.375381608264174 0.5778340953427662 0.49865260261559274 1.0827023398507676
Ni 5.134156042651709 7.376077308205421 0.8327015578847289 0.6056583166438859 -0.8005656768811696 0.16762975546825326
Ni 3.1064342067656323 7.804902730325428 1.9187452447994038 -0.9274539887660028 -0.5192785063960605 -0.6850398411970073
Ni 4.124426292547838 5.332544829971912 1.9566249473947246 -0.05590195337394244 -0.020777341756667442 0.9405879550447994
Ni 5.343820924455476 1.0422876183043586 9.745939589869108 -0.8096732956093928 -0.1438377952549781 -0.7884663225144743
Ni 0.19093784824327528 2.966261966458435 5.485283053531312 -2.7071420293217443 0.3099907090673887 -1.4516628425841451
Ni 6.885187000905731 0.6983314987603982 11.39928210655524 -0.06676537845100759 -1.0846970016832933 0.03731776261385186
Ni 3.119704018612655 2.0506449490138485 4.790770219004738 0.22903618360019265 0.6685387582181905 0.9467979405102533
Ni 9.141425939060282 4.633677345799384 0.700927967884903 -0.7999676382858545 -0.03930445402657747 0.018536111130974527
Ni 0.5220071351360771 4.724025198228137 9.579246272075897 -1.3363354960640341 0.06416856425810885 -0.13302784912366766
Ni 5.697441473005004 0.2929688844218981 13.515556521932556 1.6166816427921122 1.1492435181061111 -0.07236267003312699
Ni 1.080566991682773 -0.05073500669282473 0.266104702087289 0.7792147220092193 -1.2637419409670234 0.7261954894997107
Ni 0.17914338724521198 7.555076035027981 9.497338798922588 -1.2715763494097776 0.6697248081064917 -1.3886492178660859
Ni 6.594011534800544 8.092851156233015 9.611263518312247 -0.49525540400858575 -0.24749464741569638 -1.2419955504288676
Ni 8.198082340607591 1.1547425507074667 13.41992763676664 -0.28799080775752983 2.009129430014153 -1.156669378256537
Ni 9.315018446241465 6.887718558302122 1.3634152103815118 -0.023815614362358985 1.1572383633861296 0.16928528879380522
Ni 1.0109167074179304 2.352076468160829 9.784484174022383 1.0852988969333501 -0.42202035867283455 0.584285764505381
P 1.4575743085608768 7.710335615569355 7.6234494128698085 0.6520232770616706 -0.6227091014785856 0.7622809223683581
P 0.5406210368275721 6.690785648312446 12.755761962443119 -1.1400417970021852 -1.1347828625960907 0.5102665327054373
P 7.65036645189731 5.796645139769121 9.670818174234773 1.512208722488002 0.8093796756283738 -0.8851446864748305
P 7.4287207197047564 3.662774082210876 2.553581945740839 1.2309151242449896 0.9015246704947506 -0.1779686755004161
P 5.529292277881267 5.0888476564291 13.046938355858707 0.13131780841109644 -0.11826945986757052 -0.22358930155300843
P 3.0937207811595746 3.3191128473746274 1.923211171693552 0.478606225487679 -0.500052568286913 -0.07288486108518416
P 9.13970114171329 0.5484670101355847 10.57278054601567 -0.03272320126463396 -2.361240465290359 -0.78073552952912
P 5.36204257384709 2.89884650026147 8.198513539944338 1.0994505058433839 -1.2929856683234895 3.9928995553279103
Ni 0.8266146924085682 2.216550052965692 1.3223687427646966 0.0913312407158298 -0.4209749481274556 -0.7487031836839234
Ni 7.613542955849421 1.5554704676587257 8.826006869815433 0.11638149881623827 -0.7465401145943337 0.34165718693273417
Ni 4.426247282063494 0.9345526958454395 1.884734281199595 2.1686162446602975 0.1868199552434589 2.2249342025257355
Ni 6.287924917437486 3.0633977310269644 10.49949056842451 -2.0982569782104443 1.1912985382946324 -0.8931513588293909
Ni 3.6393502214662363 6.448080696899355 11.668091773084022 -0.41341693327453966 0.43406392010092987 0.9923843708908006
Ni 7.503971958795317 3.8800058168917713 8.497439466386172 -0.19650890039644867 0.34880948170679926 -0.33378266928066386
Ni 1.6230899421440448 5.241316032661631 2.179805378301941 1.4644782491812585 0.43862608555031557 -0.21665709320954943
Ni 3.2430177558186033 6.925376633711459 4.459787171979286 -1.325076121100131 0.3246118014146732 -0.6368290858197355
Ni 1.489343962919997 8.04986104601443 11.509284302946092 0.3875274671022874 0.7082995830558962 0.44097221718498897
Ni 1.2584714922314355 4.784921672301792 11.759527360613863 0.1490144543599111 0.35600677078618687 0.3966199163218589
Ni 5.7963298542325745 7.620497783861487 11.93756632117076 -0.8316315450480386 1.7708802124561245 0.2598973919554234
Ni 7.115122888088667 1.7239905869431065 6.19160333140157 -0.006185559985421605 0.1939740497897369 0.7458613433597541
Ni 6.87326178914104 3.2345977773719947 12.80416014692389 0.044579329272271616 -0.7007541666084706 0.9804914761079565
Ni 0.3493790307725691 2.900988587289186 7.865602614593942 -3.595268167022401 0.5863269633051257 0.6280965910427441
Ni 3.7615419130862375 8.678345670704843 12.768356692317772 -1.7284392696830944 -0.5335617557879521 -1.0734947052095705
Ni 1.3698692907767094 1.3821654267020431 11.947921596425525 0.23749639855240384 0.5467764547060131 0.723567050737928
Ni 5.910528130190706 5.513722736238254 4.546580643638672 -0.25453304231971646 0.7434319079826551 -0.4159304437250127
Ni 4.385000515399932 3.696843466365986 3.756995310187149 -1.0378347899141158 0.0016336789486810575 -1.080719505092784
Ni 4.600127255469175 4.992407374661777 8.69564650086766 0.3387970917761198 -0.8307316589415885 0.24396169456177336
Ni 7.264939156572597 6.429562308179226 13.304632352603404 0.3585310798699373 0.8804920181941676 1.6967082571284005
Ni 8.035246634085073 8.914346167914301 7.60444789543044 -0.7949205627802504 -1.008241135417399 -0.703030364237157
Ni 3.277624980006647 2.052035914616262 10.343153453196468 0.016703943018242202 0.5579646101123488 0.6313966019502545
Ni 7.044851305854747 8.752641780081746 5.046468643765173 -0.16066437989401364 -0.24101572455957204 0.25589238456108837
Ni 8.700295107910925 1.8354996627365736 3.4412257176104926 -1.1310038551696329 1.6699050208926272 -1.959161068515826
P 6.0908714570956 7.786402887813331 7.032681284144031 1.0838999597032946 3.266528459482284 0.36051288618665656
P 4.386929321035279 1.2111508424373347 6.254197710820571 1.0160022674200566 1.1504755907409994 0.3908171935971527
P 0.7091226099039206 6.60739262389576 3.8259278562011465 0.17810931484333842 1.2867276032289194 -0.044700428231168175
P 5.949669902242618 1.112429377082054 3.8370565083308548 -0.31048564642593623 -0.7473291861545323 -0.3322196956689182
P 1.8129103813533816 3.1192125440998026 6.643975946549632 4.581858042718612 0.5710751793523778 -1.3220409338182328
P 5.134285866107935 7.4722023044361965 3.3762017849392763 2.178194889487668 -2.88139957451916 -1.3689363128181908
P 9.0050093058796 0.8914327621706268 5.236546875266156 -0.16492264094973533 -2.3807196570608933 2.2619411187673886
P 2.910085502328969 6.025125149621532 0.4297963161104923 -0.4521490597374148 1.048674046621465 -1.3571943417909142
Ni 7.952873651110155 4.970661945744049 11.717942125653712 1.2199650529913892 -0.27952827881247344 -1.3728665011105323
Ni 6.96285852014449 5.932885583973497 7.395247596137881 -0.09628987027268579 -0.3263059012876445 0.8900053570012414
Ni 3.854708789135881 4.113382025664676 11.654397253073064 1.1441229090500942 -0.5672264950302489 -0.8896109497763001
Ni 6.388408272555825 5.345694091466726 1.8704694652916458 0.9482447002591088 0.14286077605368944 -0.3646739595428816
Ni 1.5026508671830843 4.953988904723122 5.467422127885923 -0.5463977312103558 0.9967115375112447 -1.3087655568655654
Ni 9.061148677593001 4.705840641252586 3.553074189010948 -1.0619494235741325 -1.3828922607776506 -0.5119081820739184
Ni 2.916715771700473 1.7917955235087475 7.989231637336437 1.344467381142549 0.7708018153551757 -0.4179991533285834
Ni 3.993165505200102 9.051096632839561 3.745350146163745 -0.6842880506326473 2.5320175081383427 1.8756192419374278
Ni 0.16774303316783248 5.795736375575545 7.475228118276646 -0.5001302156023838 0.5473197288039929 -0.1620484047257338
Ni 1.7633178210753386 0.26600918911592325 4.501019101676423 -1.673817725683472 -0.5040745449621126 -0.1487789413103373
Ni 1.4883888332063397 3.0335661554072066 3.3134989102032875 0.8165936768783097 0.18158621764834534 1.1938902102812086
Ni 5.098185672173301 3.68282253309366 6.3986735987016345 -0.4725314800485088 0.8940147352709505 -2.2300584111261785
Ni 8.899694663568882 8.799702782963397 3.4356748375464616 1.7181299173372861 -0.04301738410179043 -0.3784671566722321
Ni 6.646052194538834 8.909950716610675 2.3213630203491418 0.03132297848299767 -0.29650938675150224 -0.4281254431293078
Ni 7.726795375197913 6.959594387530827 3.2505243335196274 -1.714356823448099 -1.5120734824617186 -0.8229921242054857
Ni 5.0025892428714425 3.0029556390500978 0.6526225144442935 -1.1501254064904323 1.0417837472595348 -0.42727363665197376
Ni 2.169396319043881 6.507521293642484 9.732842257756785 1.5411490596714361 -0.223430407377641 -0.6441685569039423
Ni 4.41359876818555 9.076504937843644 7.929052901513628 1.5538325686763754 -1.0535180049773276 2.6676552840810315
Ni 3.13043299995927 1.367727203748993 0.34354717565685094 -2.3925991821072987 0.9939653422246753 -2.287981765805524
Ni 8.260499603739884 6.07923371155541 5.284537970480621 -0.44000162574160356 -0.5769830601963806 1.0075603073002906
Ni 2.4612301755342094 3.6671788066185185 13.404685435695395 -0.6772949071442658 0.1364517872035521 1.467638649187111
Ni 2.509413224001807 5.309510439595948 7.589803809568234 0.1615994901137733 -0.30245249170881455 -0.007477282213651639
Ni 4.638888830256426 6.436804602415791 6.554657408666666 -1.3459416516952305 -0.8001712696562284 0.078577026373955
Ni 5.817936186590061 5.831484191557567 10.625359045786892 -0.5721884670212146 -1.4197055729512582 0.19618159896401696
P 3.590990984022333 5.041304452138613 5.158425610482617 1.010220370630957 -1.153340056772988 1.2765545193506593
P 4.411085756997189 1.549322399696059 12.107502443438396 0.6096160157400533 0.11860241772695701 0.2858989582255076
P 3.958317180307641 8.156575927031579 10.179052895286155 0.3833319409637011 -0.05648790778439949 0.4774451153000423
P 2.6483892338909287 4.1655710550672245 9.610503123782927 0.46045526561026506 0.3125715824206875 0.8752526241720991
P 7.410332154440852 4.229944943146912 6.01622482438689 0.43424981085949077 -0.4229369569498329 0.5944660474724923
P 2.0655839195837675 0.4615529881239898 2.3690008103005926 -0.26075536908034447 0.23063695242840923 -0.5131219998763614
P 9.274958636891961 2.993228152937221 12.977313108974707 0.5120868737436277 0.4860716806267886 -1.1065439223550555
P 8.237901049252676 8.553010396823387 0.3799042345727301 -1.2226788523781265 -2.9881360940464665 1.4184740145370023
