# total energy = -340857.1480926059 ev
CRYSTAL
PRIMVEC
9.41690308928338 0.00000000000000 0.00000000000000

0.00000000000000 9.41690308928338 0.00000000000000

0.00000000000000 0.00000000000000 13.78258954631965

PRIMCOORD
 96 1
Ni 2.563205704889686 8.339835444051344 0.26397557106762204 0.5460475469597886 2.8807858521945615 -0.260426524986016
Ni 0.3517825428914574 7.127701086216818 6.551567417373813 -0.9800135080302735 -0.6320540330285953 -1.3629389575841753
Ni 4.295887635595172 4.307752933576601 10.484443794749705 0.613206304194473 -0.576644188799723 -1.7651394533176052
Ni 1.4811658642086798 8.905904326797085 5.307565317555991 2.6873728171146167 2.1288245665846564 2.08202868927704
Ni 4.152251611697767 4.212227867922941 13.420107795108647 -0.363069076949607 -0.1739065896159005 -0.9281846962844402
Ni 5.009792481047618 9.22186967852 1.7658388467313666 0.6750737311232309 -1.2545211936997038 1.2835882862689894
Ni 7.806057122240777 8.542280028182098 10.160690664113583 -2.414561802421319 -0.619308560437469 0.25135181637825743
Ni 8.693506076026354 6.988999519575181 13.980783617414733 1.5692085369118136 -0.8476189216152306 -0.6616906249481055
Ni 5.633822402742321 7.917741593716762 8.72798983370746 0.5423107056251758 1.4795834802538133 0.4053673234971858
Ni 0.22115314563845673 4.655622753205134 0.0043129416472176855 -0.7653240800700561 -0.2533585623956411 -0.37384251341602714
Ni 4.9934259033557735 3.7039787705787637 7.801689562555231 0.8057212529401802 -0.03753656349287729 0.3105494097843361
Ni 7.593762457404804 8.349619606434443 2.0471970793417817 -0.5452872717549964 -0.3300414570706767 0.010289040630833891
Ni 1.9747245926234687 1.2715455998701084 9.971579473166878 -0.4639946462220912 -0.40246814757251975 -0.35614175370215434
Ni 3.9926821876538727 1.059712363288969 5.184320655760955 -0.8673079154037256 -0.23204386007826486 -1.954284200039499
Ni 9.274585502408918 7.666517451217913 8.607998711954158 0.023870378859694372 0.10797553414073016 1.723634134984967
Ni 5.00130785130058 4.257221831220771 1.8163247479520293 0.5670395758304234 2.110221092550856 1.123524258963136
Ni 0.3562960645759802 2.8679461080460436 7.76768795031591 0.47119399218400787 -0.49958694150440414 -0.41059077667965416
Ni 8.56919353741299 9.175199506459714 6.389553365269618 0.543381055871219 -0.2784990662170107 0.3270993437232173
Ni 5.567621573528478 1.150792650651173 6.731499011120281 -0.9032521947088187 -0.5283403594880126 1.1428224450711155
Ni 3.433497061117992 8.085494306606579 6.578664556216322 -0.026948503564385846 0.42042910292631464 1.187892855047193
Ni 8.978725238932313 0.6304032817532997 8.687441590391401 0.7270586088309543 1.2121452998366542 0.5806674510265032
Ni 2.263437426601737 2.4983232421182233 0.18426619427095367 1.7950005025430955 1.0450225659118066 0.23165485216996232
Ni 2.9905259364779924 7.588347738087882 9.351708055907572 0.6873402071954099 0.8316022344720001 -0.022386338115000157
Ni 5.763144733836732 5.128944556729376 11.93375133387825 0.3931414708549552 0.6876428260374932 0.518907496209887
P 8.742059628718613 2.2574765269015433 10.72639699608767 -1.5346703939256279 -0.8212502018137147 -1.7004690097224133
P 6.90043354535666 7.9096524739024385 6.385253607286824 -1.4678031997894334 -1.0350335730198947 -0.21209749886332505
P 3.5586759548220632 3.066228420980138 6.282669631024531 -0.7169523736348878 -0.17955581748187788 -0.8162267804571942
P 6.051170133884331 3.0770013581950226 13.157701080107458 -1.897939502701183 2.446751756890302 1.3098351357806601
P 0.14584334599807683 1.5869741881129111 5.694056682114074 0.7441916689668151 1.0832936935778632 -0.34620109754967476
P 4.401159196019291 1.657356122329734 9.902570523430764 -0.1842722491209407 1.6070796009259742 1.5422083541738858
P 7.1477120054315275 1.0693835228341493 2.7986377007894445 0.36715893074826444 0.9795275695327904 0.5351108454426268
P 8.176131999520269 9.218159418675013 13.044821603620486 0.0358108390510222 -1.0673083738932003 -0.4977737995550653
Ni 6.6884213876154845 4.8700927226710355 3.8259088326926824 -2.871758194774654 -0.6927685772998327 -0.4435592611858748
Ni 7.463112342964851 3.4872864119671347 1.8754657248669226 -0.4507694057810689 -3.7435488285400815 -0.009958910984924784
Ni 3.2159100967061756 2.770970839305764 11.663144379605452 0.9842985085588725 -0.06966455437567358 -0.511205756690255
Ni 6.922469098750742 3.5395031399885806 10.020163159949249 0.489255477671409 0.6910945320315195 -0.31646988903382917
Ni 6.358669689666528 5.346249014046396 6.079431201957399 1.1814221597211847 0.4264454843237237 1.2382237420912612
Ni 6.675463728867511 7.526073757491701 13.461964987963926 -2.325959530600878 1.0777956465777696 -1.2589918278765477
Ni 4.821209578368182 9.080898638216837 11.017099621703617 -0.6023829883267239 -0.8455471266878664 0.06438170871017944
Ni 2.5135032900119243 5.396186851503154 9.657130242852704 -1.4847817366253009 -0.9731406921698401 -0.9281957520280336
Ni 2.8000219855539443 4.815408766021705 1.4949145428220811 -1.599005308558272 -0.08708197852117261 -0.5713785695254094
Ni 0.9230071801172242 2.734461505754972 11.882025226511432 0.26571862662289075 -0.008910672226068523 1.2829542522294164
Ni 9.671724559369862 7.98020391237614 3.9680626360327245 -2.4323142413087337 -2.4290016319957326 -1.6964737725200913
Ni 5.244424040178787 2.108491702009336 1.7451235431602978 0.5627034103489148 -0.866976757316552 -0.3817525122917232
Ni 0.15550320525946523 0.36492853970262745 2.2700754016391254 -0.5086616501121627 0.6251146255962846 -0.22009131570207902
Ni 2.297564283653084 4.787374645314791 7.28739293000179 0.6573786278363131 0.31897234374070876 -0.5657506818156708
Ni 8.290010609432503 3.376374126550257 4.377860835911472 1.8461502859440335 -0.12391303130659305 -0.10294902746041625
Ni 3.264670821267951 6.2706687296376 11.672723253499665 0.763490112185111 0.9537985401978026 0.5303743591989059
Ni 3.5134936534610364 2.8312390195288937 3.128854593754497 0.029119285963459526 1.34417376116153 1.3276413107241458
Ni 0.4476437919879243 6.9252094175702625 11.14356863114059 0.49361966817737574 -0.8125264487874716 0.3576018831874486
Ni 5.1465824163478 1.3143736754411697 12.865289286567995 -1.587900456894362 -1.2193477311223646 0.08273295752385751
Ni 1.5354448940221355 1.400105161808571 3.8154071022888023 0.9103546100815548 -1.87645587890611 2.407995204947395
Ni 1.5777456230162443 3.97348112211091 5.041464351445187 0.21261197660589834 -0.05701189860866956 0.38351860305321045
Ni 3.0275061151867777 1.0847989933068465 1.7844730147041055 -0.8607696000645756 -1.3220905561092455 0.22792469570356877
Ni 4.6569787872601545 7.246984998542814 4.768072818908018 0.8395554278808056 -1.1867998790933303 -0.3516451513833815
Ni 3.7357608187433047 0.3313243207766529 8.467940169567184 0.35148240055327207 -0.8791843551263375 -0.5924407895123475
P 3.319693786431036 5.554993506391099 3.340955270385377 0.2540147079224013 -0.5918219249814259 1.8133450664885546
P 7.79120666595767 5.554174235816192 12.314261081549189 2.20048943921981 0.525885470189617 1.647856268622704
P 5.848226453886103 6.849535183777595 2.1651343745159175 1.2031402681245669 -0.40633740071993896 0.201798173819846
P 6.199420440330069 7.122785462767369 10.963857392928062 -0.4973104867654016 1.0077472265001162 -0.7571788252551025
P 0.3524360759707519 7.607614721952963 1.849072028690456 0.7599761854945816 0.4000888487070658 -0.3623877346118662
P 0.2608227918896996 2.5671137197010294 0.49931245624546583 -1.1024723233888432 0.18666028973714305 1.9864283888722114
P 7.051047494495525 4.773804887861426 8.233609009646814 -0.18905347255966795 0.22650827497201637 -0.7225445230106846
P 2.1525157242817 8.268944997063889 11.317849141300824 0.4302802846887815 -0.33207031457524744 0.06791543289505078
Ni 2.2979692104889584 1.3810924343288058 6.794734457529084 -2.428061893790283 -2.4744209406707967 -1.8310283427009302
Ni 6.548495623563065 1.4157843055697443 10.88889319363365 0.5940341021413963 -0.4465021458642826 -0.4983646390615288
Ni 4.463376675196511 6.649821501563201 0.4319411059688512 -0.3914715393517 -0.3671031378096645 0.4760160961629995
Ni 2.555050666753244 0.7072875876020089 12.313062309776939 0.7165219709656886 -1.3843392776368222 0.2874709306983178
Ni 6.825493830010464 5.207641616436359 0.5835146375397052 -0.24818730260734675 0.9195856417615196 -1.042086108991302
Ni 0.7087472075917879 0.5443892882911026 13.784243431565214 -0.5347449774627758 -0.4067145815536996 -0.4311580593080445
Ni 7.30949440171799 1.4697619944820843 5.319651912761676 0.31269705225495825 -0.0683761745815532 -1.9606127133606877
Ni 4.279850649513923 4.827424734453692 5.249430065898571 -1.2732208269917362 -0.040034904434698794 -0.7166027036049529
Ni 1.7422777550253872 6.464157838863324 -0.09882851528214011 -0.6359299710442339 -2.236674888001432 -0.42082351015125585
Ni 7.20225470853346 1.2242727460075915 0.6983292876260304 0.3981551220194626 -1.3976419082829994 -0.8017213877521676
Ni 7.108895530606569 7.076039955481803 4.295095674039427 1.2682881655768092 -0.8416585902667374 0.35975826740881917
Ni 7.9799873236034635 5.856758168148939 10.248554137356377 -1.4869532903553229 0.5363825130661988 -1.804564492082447
Ni 4.817781825617992 6.0870956194392125 7.793806672920109 -0.948649134786379 -0.3429334825419965 -0.3820466464933742
Ni 7.262127378823875 2.734678094527649 7.2284035652277705 0.6117276627664175 1.1124885699742648 1.2184568438769787
Ni 2.4855350876271283 7.361070780324566 2.316674005235396 0.20847610006065384 -0.26750014400334576 1.0917937606290744
Ni 8.418438334726728 5.24839797331225 2.529946144619363 2.618748016857367 2.753738903244677 -0.4826179177502333
Ni 6.246090612390355 9.088865338290082 4.042915715869851 -1.8661786653498185 0.7698026846667001 1.0084499089940955
Ni 2.863746169236744 2.746835316507033 8.27323345476289 0.7635785581338591 1.5651698480660656 3.953600757728288
Ni 2.0545234300001556 6.433656489528525 5.3715437576241065 1.4421178792081872 -0.7177589286965833 -2.0308596226023927
Ni 7.9927189766756 2.710005808248805 12.945214310447023 2.1137342479104366 0.6345099507682557 -1.8560544324316228
Ni 1.172385609596741 3.2281049862981996 2.924431518269855 -1.465437527770734 2.3690612468863588 -3.3327616195789056
Ni 0.23471819464024074 4.245865046009975 10.03583382849758 0.812599211006936 -0.3685563253164233 -0.4499859906478251
Ni 8.894641710617888 4.708093737611897 6.503701298612224 -0.15916336986845492 0.7741445065751635 0.01708369495516413
Ni 0.2076012803010965 -0.10492125162657208 11.188306454672473 0.24918103397918376 1.7630545457641185 1.0249574197308153
P 1.6211952141958565 8.920001430827401 8.208097677296427 0.2462540901403759 0.8144730309908811 -0.5810667433474509
P 5.829128974277899 3.164154796939563 5.129204463256587 1.1150884694909569 0.24598823807349895 0.07035643823637562
P 3.478425106093703 8.727962524688296 3.8629841221233825 -0.8226388546311252 1.4394007373873403 0.11687875016763095
P 1.9666448897123054 4.667412715961285 12.155568371189476 -0.11491571290398919 -0.16265132841705537 0.24591727562624743
P 0.18883433399380367 5.715391617913063 4.229656672291217 0.20985549690668376 -0.7713589734102264 1.9702906027700844
P 4.582095573332917 8.754574693018071 13.577435996200494 0.04174083138221198 -0.19610857963423645 -2.0164349625366307
P 0.6688223632649127 5.7195821398192015 8.263062257659922 -0.4787746327447432 -1.1015395271619286 0.8673770780787642
P 6.800491952121025 0.786192760868825 8.41274110831501 0.5468772419499356 -0.617819120376136 1.2045268640594482
