# total energy = -340886.7189557021 ev
CRYSTAL
PRIMVEC
9.12951992018840 0.00000000000000 0.00000000000000
0.00000000000000 9.12951992018840 0.00000000000000
0.00000000000000 0.00000000000000 13.36197522921337
PRIMCOORD
 96 1
Ni 5.304743950373924 2.973457183678171 9.759613606559238 -0.11919634255721408 0.9813437968059228 -0.7356226963508814
Ni 4.463330895060197 1.4420258985386247 6.304754109281294 0.1530387450279558 -1.6197723659022945 0.912200662151358
Ni 2.7930943921242237 1.8674706469292655 4.892514181775465 -1.2292328514465605 0.9271364575255839 -0.015997660979836965
Ni 3.5079175270245555 2.206595786383756 2.6338189652155135 0.7165402257981337 2.367070184598259 1.5322440438723224
Ni 5.187703507585829 2.8568184397576797 0.8111222218405116 -0.3248568275459437 0.427067948399071 -0.2993309153606974
Ni 5.007267679874136 4.515889540078221 2.843147896931557 -0.16147761982392833 -0.5737072176585861 0.08388866839485552
Ni 5.176318996497159 4.786205489416186 11.72848674195119 0.5285964413628768 0.0022036925195381405 -0.04478450330454223
Ni 5.495121825058803 8.153455376621789 12.656783610519655 -0.8676532145582864 0.018119335308530087 -0.1527366404065047
Ni 2.3134111670874 5.302817621713371 11.514308209360808 0.3272224995646429 -0.03531744435437143 1.470383816032416
Ni 0.752829325487449 7.4995626563211255 11.767490789043514 0.40465512792150954 0.36429086517185 -0.4859714076034985
Ni 7.90158105711471 0.329952710993555 6.777915205431393 -0.30122221884613926 -2.0829874536458837 -0.20800815928529984
Ni 8.537698602523921 2.439197689765588 1.593722911129207 1.1519272355858612 1.0488730500061485 -0.27548033399534494
Ni 1.3551585184193797 1.2521592769579688 2.7704851365419527 -0.46909725755597925 0.3736795054756016 0.2518554954875533
Ni 1.6558209913008406 6.869306262571036 0.5603662684989197 1.2999448732501417 -0.054594290306112424 -0.09355781605350338
Ni 7.882829023613403 3.808278725755314 4.057483573696773 -0.2937858171727521 0.8027516287888949 -0.0631375518904332
Ni 7.5652495506940065 4.146563949395725 12.982401625550981 0.23872178631907273 -0.37716026493535043 0.20771145398048743
Ni 7.043515757834877 1.1419203263599775 9.459583809394251 0.21969330893271197 0.04854474167792285 -1.1767751478674766
Ni 6.821796241957211 0.924236058197783 0.5848479885754061 -0.8666965070719718 -0.007560328845761174 -0.6804630204596023
Ni 1.8518865567701952 6.850006457886635 9.321460566720779 -0.5578283416448007 -1.5775620510828317 0.35962971225075485
Ni 0.26690607372319414 4.840745240213071 1.4255754169582917 -0.44852611827284694 0.10525967787146388 1.0732165118475194
Ni 6.585168220379626 2.447870733497935 7.11996818185953 0.3625106333429757 -1.2980126892244355 1.0860532586008715
Ni 3.5051238939907683 4.620404281812863 0.5886166543151039 -0.029724266537310102 0.002910488778575633 -0.47469994845473723
Ni 5.988289350719497 5.842856101607613 5.011662630666506 1.4230546919291491 -0.4593381212866864 -0.0146876839191618
Ni 6.112834258716002 2.358301015542085 11.843452957859295 1.649989512915623 -0.2534045851422281 0.5528913093544994
P 0.29588864702078277 5.424988854583129 12.704485351047564 0.6332292842836191 1.7695908042207396 0.022599739677386883
P 4.070423754945436 6.381908593372283 12.68862463644103 -0.98414527081046 0.09236713817951189 0.6965784379642261
P 2.1619341759220276 8.827588242137836 1.552541473584079 1.4414481068346723 -0.7007158571713674 -0.9048102832245578
P 6.184920946411383 7.96895691263547 6.067031458289491 0.5617904116163421 0.6554292174194261 -0.3346319046548366
P 4.597991310904534 1.1170332556080005 12.861448270611639 0.5508462539000126 -0.025999252277239097 0.29046009523362876
P 4.287468956727352 6.3161577923613725 8.377290202218175 -1.2056519788028268 0.9613100180834993 -0.20165264938091726
P 4.817729721003337 1.2109394954300243 3.9988519721621634 0.038555234565378765 0.06785501197076055 -0.18134067729644252
P 0.18620294531771822 6.176485270191711 3.965045360645446 0.2569619634761832 -2.4748626561939053 -1.0206405375230163
Ni 0.8133991240582458 0.2905022303870093 5.05343200928149 -0.5888818685164956 -0.7883074283391069 0.17429919706862887
Ni 2.0119270374312954 7.147647059741351 4.952468650717251 -0.7388139495946695 -1.6784284849826063 -0.09177681289368064
Ni 8.186851159751184 7.5122618182492245 9.194548374261329 0.046164671481520494 1.0418354264330767 1.22566518869996
Ni 8.741250374162249 2.764427700208887 10.667532474164574 0.36953051630423456 -0.7974726397781426 -0.43145759282633434
Ni 3.8763849428535346 4.679636605744935 5.37641798377804 -1.5799765740615952 0.07216186687623057 -0.5585009422317929
Ni 1.647659200672716 1.6523335147684652 7.160001125824101 -0.4819723137464344 -1.5675807715004035 -0.10469892027198743
Ni 1.3020886202971333 1.186472382585087 11.672928136753747 0.15884146775266192 -0.1587334814198879 0.03718740768357467
Ni 4.003951721876784 7.188145609211554 1.654492646181834 0.4065821697408933 0.32735593981871364 -0.9391360530896213
Ni 5.598796650979365 8.226272425894631 8.463635373809536 0.017475788187260224 -0.13274914154098427 -0.6486214504689732
Ni 6.701149638880403 0.7945265808966585 4.793916281770228 0.7294139964370083 -0.4767858844494886 0.8436535092095793
Ni 0.5352820001210281 7.785316623502667 7.168057926975465 1.0491556142435738 0.5463229121083624 -0.4299534974769821
Ni 5.444361695425276 4.701501805470167 7.7092585947298415 -0.8891895459681654 -1.2571640306391896 -1.2689468822067307
Ni 0.7898559186087966 0.5357366502029975 9.217665231139936 -0.4088295710141733 -0.399611394850015 0.07135891135896097
Ni 4.872671170667826 0.5986134784065987 10.52064489256157 0.402800591211274 -1.1525995790625376 1.4499854548817221
Ni 8.070349358626466 7.536135512312475 4.980368462976254 -0.275134520620152 1.0514652362133567 -0.11403896672599069
Ni 7.368535789324655 6.522886636861656 7.247681946150243 -0.7657262006044813 -1.2834682157513573 -0.6937777352906375
Ni 2.4655089655936133 5.596979876555431 2.496804959187809 -0.8020926550486573 -0.26135212212407893 1.4308916714750646
Ni 3.54772223299617 4.671812607346386 9.66358110159483 0.1221716231354541 -0.028928252998575987 -0.5968764566861978
Ni 1.259115970983283 3.7244971233008406 3.6717102402898605 -0.3703429849032009 -0.013698323422698989 1.506218309232522
Ni 0.11358035481487433 0.35626033501369336 0.7212311447905787 1.3341055782922508 -1.0121206729774634 -1.8942810800129892
Ni 2.4995529446230056 5.647027903650933 7.144033595836864 -0.5789885206621834 0.016190493716933405 0.9068671657535865
Ni 5.457435167661824 3.1395322768730414 5.168933215045086 0.6084790739221327 0.16676509347511279 -1.742166903681832
Ni 4.209913686720732 7.043634441591213 5.973190038057466 -0.42770892441717956 1.3724515250603009 1.0609652052839922
Ni 0.6549919144747424 7.812632146499702 2.749654311400798 1.1853639179777522 -0.6023081692247304 0.2129703883865816
P 0.16296192697094342 5.8964463823538 8.167186174278052 0.6784081948131027 -0.9328077968787483 1.0602180427053225
P 8.60959357030522 1.8215309037069802 7.9363316609702945 0.9784595332795922 1.6744710429967549 2.501482572774279
P 2.1309485859982527 2.97750156091336 10.66861523520316 -1.6413886586204893 1.8518933590753979 -0.41274998911450206
P 4.1841045344772105 6.304472007122 3.7130121874952695 -1.175594240185498 0.07816770675067827 0.6609051529323329
P 7.176660673405982 4.191636388244775 10.829279262061018 -1.8499735163448656 1.2624245077071807 -0.10238338476493335
P 6.394059984117287 8.14887235772322 10.60960841040813 1.1319536206774117 -0.17262566602094787 -0.9931665004724638
P 2.6096640819449415 8.862654727375672 6.1601507335118 -0.13292783321069362 0.5412930629939388 -0.1678642400765625
P 6.884415617704756 3.946590949486955 1.778184857036653 0.7067862317351634 2.2614371825477764 -0.23919924017612354
Ni 2.6981839051331913 1.7361151172229383 0.5957130299921075 -0.8487306666221704 -1.235036088391899 -1.5158023533765312
Ni 1.0111490859156194 3.614157747985949 8.745332182428283 0.09317240768962663 0.3079657082175599 -0.17050861967794506
Ni 8.357363199529129 0.07090989260369829 11.098028585815328 -0.5764971216988974 -0.18982866016279565 0.985408968014232
Ni 3.112508898506991 1.5269578204775986 9.490329292949436 -1.2090751455517628 0.2685962052810019 -0.6473567248239367
Ni 6.542323384341832 2.1905826087979277 2.7625479320988973 -1.474546432050538 -1.7836143721933413 1.5635873340702942
Ni 4.288710571409036 7.083822587390994 10.47127244992522 -0.751729629215073 0.6283387889605373 0.6858343120738447
Ni 7.4651078489044105 6.651083352745464 11.776162006871916 -0.6964290568705555 -0.7379945390171677 -0.709382788817746
Ni 7.580797122774204 4.086464321090419 8.765334960130991 1.265776454898549 -0.5971739333219586 -1.2783164963470888
Ni 2.957252286178259 8.788869949012694 12.513302252723536 0.7244980471926297 -1.1239832008774258 1.3209602991595444
Ni 0.12389945095242376 5.399435328891718 10.563924293737957 -1.0791413619723866 -0.7759252526246702 -1.413154659206618
Ni 8.87777321202911 2.5382803672678653 5.876850781230526 0.07134785561536745 0.9736623690012649 0.0845116466908351
Ni 3.6843454955799326 2.9460412359642354 12.083367606535454 -0.12179701340485476 0.28072872687847783 -0.518661441637352
Ni 0.8513961851256444 3.363424618443653 12.743195427604958 1.2495018861082416 -0.24414321444496018 0.5295189531771461
Ni 2.978724916555607 8.543641919860509 8.275485101935912 1.2184632716348822 0.24227736488081503 -0.9594984187960571
Ni 5.57153590510064 7.9321740776906 3.6991289268597116 0.6680898436062301 0.5881100233474774 -0.16271329200324233
Ni 3.2137004950641863 8.803568475759093 3.860167264026017 0.0981300088052181 -0.12619385692096977 -0.930853244255539
Ni 3.2308822511739517 3.173019355199619 7.687331314270524 2.4988405071657414 0.8668973102288683 0.833355726827997
Ni 6.194981677140906 5.848580310470963 9.565784773420857 0.5623701953792121 1.096781700761969 1.1624754434153528
Ni 7.970271563474898 9.027825998118434 2.5604084971609837 -2.167800947847854 0.5012337330792077 1.1541376129736187
Ni 4.6400875263254315 0.42004189862137414 1.849698210893728 0.9076976320746819 -0.8026513557656048 -1.1464700691260319
Ni 5.965072982075962 5.745690623246171 0.6839580546368381 -0.3627170929268269 0.543648964820625 -0.4780907193038411
Ni 8.406425238495059 7.017423590480089 0.515028160626068 0.5641139175431963 0.03816674087770846 1.0068884780442464
Ni 0.27952580882974515 5.405725567977599 6.013837398699076 -0.2311969386969373 -1.3904677591320633 -0.24793662004912137
Ni 7.291975636967326 5.973755155328027 2.7818833419102003 0.5535646812724402 0.3910894734219329 0.046014519056901404
P 8.663749881273938 1.5940871789659656 3.909273124686595 -1.309536373593319 1.013837141447938 -0.8312926736513813
P 1.8813475169010208 3.3749643313675333 1.6849313778744848 -0.3044291558192112 0.9776370373782969 -0.573478903697864
P 5.065632699432973 1.3899785066248236 8.330897634817864 -0.2404012309040247 -0.6008904629415974 0.8512156378275534
P 8.339697578874295 1.8609795584095823 12.666885424087909 0.15611429862948598 -0.804099401066041 -0.052826656882728376
P 6.622608380744211 7.924715260080781 1.0793767256260929 -0.7875106434694243 -0.26142077057848523 2.30113372980645
P 1.9324363092444043 3.6451981150280335 6.1634647491695285 -0.7676067054566458 0.5976135919625385 -1.7250659823354872
P 6.999100644405541 4.293713548214642 6.269024820911912 1.4842970836793985 1.393134250220633 -1.5014864509744914
P 2.3408088557618987 8.517732342900086 10.531200443259824 -0.5046149908466148 0.9414011949747141 -0.550600970658426
