# total energy = -340885.68843705725 ev
CRYSTAL
PRIMVEC
9.12243517458774 0.00000000000000 0.00000000000000

0.00000000000000 9.12243517458774 0.00000000000000

0.00000000000000 0.00000000000000 13.35160598789005

PRIMCOORD
 96 1
Ni 6.487903206012071 2.3644530743957417 11.187377642460444 -0.2885243116634967 0.3015387216452936 1.4628666817197646
Ni 4.8420790785651 0.3144767927448752 5.73954789206666 -0.4124615113398058 1.7059572865304942 0.40255530796968736
Ni 2.4167519947884664 1.383636220416217 4.516327868287804 1.23365463466334 -0.0944402186584567 0.324183455628003
Ni 3.6751919159774453 3.9769164567047044 4.669551024853708 0.5492169458267058 -0.19311684399576418 -1.4048327696044838
Ni 3.3792418766645573 2.663605088426551 2.582387136542988 1.0840891928959653 -0.5712908949076096 -0.11479024306971843
Ni 5.228769979755964 4.031076353856564 2.623336835435522 0.060504742253276435 1.442578878005006 0.2552251832907346
Ni 5.178176954725778 4.774390610169144 11.505920304526622 -0.28202533420271425 0.4101580600176097 0.25584816158671425
Ni 5.642499778564835 8.284539430429655 12.64071291596729 -0.7297574958193561 -0.34443269279534233 -0.43411482794352335
Ni 2.1606852417056492 6.234354245015141 0.32544104748410707 0.890338571970944 1.011868190647025 0.15875507868644273
Ni 3.0019835733606777 1.6771596919941554 0.1253833091466612 -0.22213354294308843 -0.3993835951099251 0.4154753584654651
Ni 8.734722479873328 -0.3314071200354488 6.715537153394549 -0.9628822476666257 0.6035721235388186 0.391633518850861
Ni 8.924040375374851 2.434951252800587 1.135878181216828 -1.473560671098501 0.35232212284574804 -0.381106394067292
Ni 7.108776138495738 0.5430485264549952 4.726589050277659 0.7160293475999863 0.08358296422897864 -2.2621244384227883
Ni 1.0347669351242264 7.2553280582775495 2.2936055067268035 -0.7922031638490872 1.0750561361594195 -0.33503608207179075
Ni 7.7644967730377 4.097688374911453 3.8434470210909035 1.1187669467838088 -0.5873008971826208 0.31558774353919194
Ni 7.457809627619417 4.2278655236999025 12.414229307650139 1.135828787362102 -0.3933294184960452 1.3650166660488103
Ni 8.138671693279877 7.979758873945974 8.841139334216482 -0.3663870855792464 -1.14459470648019 0.7741807591297376
Ni 7.022924901828035 0.9268576503997289 0.18647808145682307 1.3994180263468157 -0.13240795615148165 0.20807937884286745
Ni 1.8786013037353297 6.780760739828161 9.679620657914548 -0.5936101272301002 0.5660458444585864 -2.203932403463088
Ni -0.05560306638369744 5.158125842389617 1.1048418325407197 -0.2252144958612573 -0.5471405229136513 0.17472985684814424
Ni 6.884720010157046 1.5748059702417787 6.652130756031619 0.25525603652867007 0.8002257770432477 2.9110387375418316
Ni 3.6453615532207366 4.252486976018055 0.2799565861064467 0.041919008831289094 0.07959698299803711 0.3298861624397351
Ni 6.053036725090878 5.679691946442236 5.00179193545673 -0.7109750730055304 0.2520609266301401 -1.8247952173070252
Ni 5.439306659285651 3.2375157250473627 8.957886434059848 -0.8502368188540518 0.45935689033976373 0.3426771435568162
P 0.5672092958009104 5.975222353740809 12.360569319941419 -0.953399504987171 -0.8058194690809412 -1.165998626077263
P 4.310888805488529 6.296706088881227 12.791920014377464 -1.081975231876756 0.40388508252470445 -0.28630904917973277
P 2.4767411279652607 8.635324427091343 1.2356858313345265 2.177472666609663 -1.6157455041310882 -0.20252065380816733
P 6.43636144773213 7.92404816282817 5.629077027567825 0.5135986824024639 -1.8620906113233735 1.8693187536406968
P 4.922484221481807 1.3189307882959311 12.585370751227273 0.845874685230614 -2.0998508050601257 -0.16830955514409723
P 4.1367232746778 6.668582155479768 7.8109035126033435 -0.819515478510795 -0.5613111579870783 -0.3771330112418408
P 4.84094789661347 1.2554660073484014 3.7243098432529638 -1.3127283981680553 -0.43177795228023064 -0.4018004320815339
P 0.3757047526074065 5.543138215523222 3.5406588044317076 -0.6958492731076854 -0.28393360696902065 0.4031798289275637
Ni 0.39841231804288024 9.004126233063275 4.605676646570467 1.2668475764755407 1.1810120687669594 -1.4515792817314033
Ni 1.9131935776109992 6.849781083747812 4.518463430343261 -0.7731518036445911 -0.6253208280698198 0.410292528712945
Ni 5.85081970636673 5.889079199150105 9.105862365959801 0.413291720550585 0.9439278180513099 0.10479687930243242
Ni 8.808103347767814 2.3225628524450364 10.206968561329612 -0.7686991671898761 1.8887226120886054 0.26803287657836417
Ni 2.79375486990972 5.19912206570113 6.435233914754537 -0.6650459145735836 0.5652696284141941 1.0291136079910341
Ni 0.9399939569347932 0.2330389901755512 8.804716187617487 -0.5260983575313714 -1.0613238741749915 1.2890403105224961
Ni 1.545595933071448 1.4239208937904144 11.090190867945193 2.1169368140081346 -0.7166893497814882 0.9699286129904457
Ni 4.247861901425501 6.858319682995604 1.7211690556171488 -0.18193794456080925 0.055810936322032906 -1.1028186509846682
Ni 5.670888796576723 8.303094463410433 8.05987027445266 0.43167382260219844 -0.30310092392609095 -0.3675821343286121
Ni 5.873187917216715 2.790634997107642 4.898437482574564 -0.8954337271056644 0.9601352810491077 0.7726653509264758
Ni 1.4628280794654487 7.2502103721899305 7.129023383186414 0.23347390765657214 -0.07898326067343817 0.14782686180971316
Ni 5.198018251054782 4.783038678638061 6.921232556619959 0.7244013737137653 1.031027022963663 1.0744645253220075
Ni 0.7430323730681813 7.916047787250911 11.329157616444691 -0.6913277310882481 0.32107602034727284 0.011475861850083462
Ni 4.789050363364871 0.571523295356766 10.459394550566495 0.4510817948151651 -1.1530310101730012 -0.0740768245107563
Ni 8.220481691201028 7.130295962881999 4.448314641202508 -0.20078644472587998 -0.3596561946133161 0.2878517110765042
Ni 7.341170172510157 6.258163800609945 6.932421223262499 0.09875041599803638 1.5002453794785389 0.8129923326802967
Ni 2.234157333951072 5.082573834942809 2.4754548646170353 0.8920434704771927 0.21433692971680504 0.3758155779819979
Ni 2.5776899947131926 5.2993046479011845 11.327195380656017 -0.24942091790413173 -0.7053813809678369 0.9058094139130336
Ni 1.1765022091765145 3.2636697464612725 3.876451991260253 -0.4481517656525637 1.1740603200394748 -0.9282566871729562
Ni 1.565245658263482 1.1271407128839914 2.116175968639516 -0.7585461379162743 0.5892130266036691 2.1705975367563846
Ni 1.1809083453268174 3.815558824765664 8.145093887585908 0.4411298258087758 -0.9152795581869978 0.09771503275498655
Ni 4.056582682378814 2.927334686988156 6.771774229017264 -0.16780870424827873 -1.951253640743291 0.8901380259243638
Ni 3.974353052443348 7.3461054098959 5.506268981848142 -0.059498669586265276 -1.5805005648858652 1.1935230567497768
Ni 0.8591445514290189 0.07044253155077328 13.404878322173756 -1.5895122814661722 -0.046194753388507544 -0.6489078713611406
P 0.20136407104287726 5.739735814229592 8.00369979260613 -0.12183815105543533 1.6301135999273024 0.8263767244070026
P 8.746654624976012 1.9121262527050251 8.175642185984499 -0.2017907176206783 -1.1692253605446767 -2.5253868901957026
P 2.2908623904941 3.499138041102301 10.144069371357897 -1.4482201354511834 -0.22355947675633758 0.5600577451959516
P 4.092588933694022 5.784453991059373 3.5901662596857316 0.22474218421052908 0.9190490525317591 0.9719916661670616
P 6.891333775600047 4.388383891610315 10.29176524450047 1.2936549264763721 -0.7929768087903182 -0.5755998066956087
P 6.3682715921920465 7.918684170993018 10.22134825576796 -0.9651059947908217 -0.41679716260068217 -0.7510724552470485
P 2.2395943052669733 8.857966577990496 5.843637613217385 -0.00546822220342284 -0.9929800954932705 -0.35985519799799964
P 7.119011510670975 3.9761136824164507 1.4288752882898543 0.9504918444220727 1.145140808791647 0.21857539327818487
Ni 5.642837308663305 2.847613726703484 0.4724682461343056 -1.0811244538406863 0.7783436322581757 -0.16086595438185844
Ni 1.7866380355547853 1.541910469293555 7.133415835684077 -0.8009837382551948 -0.7088973645408952 -0.7156979324024964
Ni 6.8165754200064 1.329467200829264 9.215504913352119 0.5568878321084022 -1.682213405946335 -1.5327500369744635
Ni 2.944804150192773 1.6822865005168677 9.172660484690603 1.2843164226842654 2.2928030984535672 0.350874334655628
Ni 6.621701961532757 2.106744282996041 2.8191115904964317 1.080911309388616 -0.47698257384132686 -2.3038326167948515
Ni 4.059045739854138 6.919522100039873 10.55489823580694 1.7201538897458506 1.4505055890512502 -0.04945414086606967
Ni 8.189702595194566 7.320644693549119 -0.10564600857772702 0.8298456567922097 1.8728491353914585 1.3040869204429735
Ni 7.7764654078807585 4.02993604946984 8.14407947280348 -0.17742797250559764 -0.402096623165714 0.7790856526305228
Ni 2.996546602044776 8.352766122496146 12.253609680710186 0.6437512668608656 -0.03943969405286111 1.520936332168987
Ni 0.056833682877850344 5.068662121424772 10.084254476691395 0.8310016247735237 -0.8275386059255877 0.38651162424326335
Ni 9.002055440296983 2.558906900855069 5.792541029770022 -0.37997176624221657 -0.6980804764310493 0.3872575012703524
Ni 3.9696823656753253 2.7777723636253917 11.403219017997174 -0.8703716419307138 0.45517756215109356 -0.5558550199685137
Ni 1.4441179650880758 3.491028196303918 12.516383248073963 -1.0464626407924429 0.01349237805947999 0.16826096129434892
Ni 3.223631378834608 8.945970709340333 7.979947708352415 1.068793185968843 -2.753048819156188 -1.2651910147087242
Ni 5.498228467556471 7.660491890533347 3.6631201976178263 0.5834599261699758 1.0750260542524326 -0.7446914914213691
Ni 3.238008336542428 8.50179934462347 3.33676690662434 -0.23447843766168647 0.8006595221465566 -0.26436056993309953
Ni 3.468915413636559 4.887846335430668 8.961798134228067 0.4199920153888961 0.007780415276367246 -0.28891769044717336
Ni 7.628499510659409 6.319977420805498 11.263721477273393 -1.0808542308984355 1.0529058253146253 -0.7040744892309552
Ni 8.466112378536545 9.161296667294263 2.220358738628198 -0.8285091973689732 -0.2354310313829429 -0.015370568918799333
Ni 5.076461803429967 0.5358080497210503 1.6046627880602593 -1.0097102637637578 -0.6518993498892968 0.07809134498678809
Ni 6.293075359713897 6.148503008347438 0.3428667230002737 -0.5058666038655288 -1.4918245024046952 -0.0044670346324181135
Ni 7.622013459307722 0.0013035959749032623 11.371255829915535 1.071526011518974 0.20663519019717314 0.17748556521641046
Ni 0.03673148490516435 4.989798670038918 5.969930429142899 1.5792180986290156 0.4193289278836004 -0.9633517311038764
Ni 6.878425529942327 5.918854827296251 2.711270724035138 0.32065101699471227 0.44591079213718693 -1.2493476199185645
P 8.609051814021214 1.874113065669183 3.550913333720642 0.9296545959617473 -1.0914965411036297 0.5073318755571457
P 1.7065613003014555 3.2775358478038403 1.4574878059615415 0.5344364450834216 0.44712383860868155 -1.5738709753844893
P 4.942900231221719 1.2904870356734794 7.94990661734504 0.523468376107692 0.25711571544522815 0.23110052232838912
P 8.949318643019755 1.6709838034356561 12.27415796575896 -1.528805964725051 0.2680788993249512 1.3795169165475145
P 6.582393388713596 7.95522864597876 1.6473074353932213 0.39230663365848567 0.06607529436251847 -0.6016926471279185
P 2.1310920622613794 3.1144267083267914 5.925509643697175 -1.285870911655579 2.418714648247428 -0.6882979431229888
P 7.183425024868259 4.151884761803687 6.085781705860053 -0.8227242152560799 -0.9502799855215829 -0.7547349917003001
P 2.7000400941911673 8.862044306477422 10.198010330067506 -0.7864171532949296 -0.8260224263913775 -0.2350939597584983
