# total energy = -340858.39326879656 ev
CRYSTAL
PRIMVEC
9.24266523173708 0.00000000000000 0.00000000000000
0.00000000000000 9.24266523173708 0.00000000000000
0.00000000000000 0.00000000000000 13.52757482956564
PRIMCOORD
 96 1
Ni 8.456345470815599 8.216036175254535 11.605062714560924 -0.6842271154877247 0.38687672089216596 -2.2111713444136885
Ni 1.0394763432798058 5.024497663573272 1.8962409078119284 0.653497547614352 -0.6700222847422526 -0.2901351077940423
Ni 2.051492728209153 1.648133575609909 4.344042483595173 0.8950681162361295 -0.41441529263206694 0.8124202622269106
Ni 4.468689990936174 7.781769550180053 4.449895955490256 1.5263780720098488 -1.3085464988762239 1.1733355260583083
Ni 3.1909562237727886 1.491267061599818 1.9189676973063552 0.17327152713506289 0.7041017429244647 -0.7105768091258472
Ni 4.223158589529265 3.3770110745283346 5.589296600930439 -0.8988625502815553 -0.689366236486503 0.5740800276169726
Ni 8.078653199515319 5.664616928291447 1.5740009307288854 -1.4704123552775064 0.7354427191295915 0.4049004111630962
Ni 3.9687080161909556 0.3220375627148591 10.710849643381696 -0.2753803180823709 -0.13094731244555513 1.4213798753298876
Ni 7.847947033111484 3.593640661811419 2.4503987647083467 2.7897626296374534 -1.4317884722577212 0.86215799577167
Ni 3.6740610918374506 8.071055728709503 6.956609355080296 0.8418393388189761 -1.5253555442826054 -1.531649347711117
Ni 5.988544616042546 1.7830857303978735 5.510687733286329 1.9929962718977159 3.329205783906847 0.3591324608993621
Ni 9.078367597044982 4.6904954707390365 7.674315248669925 0.42805422357174017 1.1722716035701681 -0.07011295476700183
Ni 0.22010945073611288 1.6222078996849558 6.079089461543869 1.3838692799789394 -0.13085655250396175 -0.5423940093676014
Ni 8.384733300738402 7.6424641000763485 3.7736387940523053 -0.16460768081247779 -1.0568172445538895 -0.6928009731996649
Ni 5.635844511480616 9.220501302704138 6.343337260008899 -0.7843517861254686 -3.467838637922118 1.5471225036460516
Ni 0.545257170295445 2.113779049085538 8.775324635611183 -0.8271480553553884 -0.9155834625806619 -0.396648198456633
Ni 2.2518367393853684 4.241560735970115 3.9261353759492703 -0.07889044384931575 -0.8042104727226084 0.32663808781608267
Ni 5.519701180402912 2.4521160519050866 10.124645617655688 2.397045647914427 -2.9569403851699527 2.4834401134502713
Ni 7.5041291298201 8.32906472815516 1.160590379709539 1.4339227449919048 -1.1892694236797454 -0.2508419666213744
Ni 1.6327075673679314 3.591219083525381 6.4237992820283925 -0.2618642858738071 0.8240586177967874 -1.1987256839966387
Ni 4.847241830101346 6.019988163100189 9.620729964595439 2.3177101461078924 -2.0766887651213652 0.653565681848126
Ni 6.533963532979233 2.4675882734731336 0.7406360217187604 -0.12406858304785084 0.41799735355637047 2.14528065525815
Ni 5.332694335130335 1.217674928603548 12.873746988213394 -0.2235841593466859 0.10382654496936314 -1.0415991420525545
Ni 2.356454466941356 7.639404777890551 1.0190241736945165 1.9125012025654415 -1.0029436344638856 1.4706985190593576
P 0.8113960180632367 1.1352858108869588 0.11177894456370707 0.17551892840834288 -0.40349915994019536 0.5468512738080067
P 3.0724375277351155 1.0802457395382614 6.050478791374281 0.6695432882233049 -1.2927684101063608 0.8189884023627314
P 8.819924192334273 0.3176648578021692 7.661477186687835 1.2345282955175447 -1.3363349818434018 0.11145295116636933
P 4.57432441166569 4.183923475696315 11.30366864460128 -0.6461763313625903 0.09323874215118781 -0.25273147033460347
P 6.422654115808392 8.546452213985784 12.578899498024747 0.16136166307135433 -0.4834869506187479 -0.3641962485755147
P 3.182582369089007 7.253412593228201 11.642236714051178 -0.2821261214466367 0.20611557024827729 -0.8100535617669468
P 6.556136686827348 0.11236400527174611 3.940068693759205 -0.8758565763046852 -0.10835220075385855 0.039350219662848365
P 9.252554865665896 0.38730834018880805 3.8978352593308694 -0.23940261443618122 1.509417790006426 2.3891690733798274
Ni 3.5053454810231566 5.409898317661933 1.8529528852826884 -0.14856348286542154 -0.23054696381776424 0.059247215697091515
Ni 3.178608023047036 2.5118236691867972 10.28573233260244 0.1545109586981081 0.843956899382611 -1.5084893646548858
Ni 8.212283653177696 1.0043357301366072 1.9041822057637001 -1.071917847640754 1.8643020171523956 0.7095491391922812
Ni 2.9709807916822775 8.69417773209934 3.2702777009048885 -1.3863773911127735 -0.7041279681767099 -2.940223586635904
Ni 1.1011156775912185 3.4039349582963876 10.73560519789057 -2.062533813777222 0.06025020304030914 -0.33344379788400635
Ni 4.330770940614553 3.2567362721000226 0.12396724718125991 -0.5701850634379406 0.6832513818380168 -0.26871756135021463
Ni 6.106869216110728 6.433320151465218 3.1258028281470565 0.4882242081934173 2.276781011993698 0.4613003872193797
Ni 4.75515715657539 3.824568652180387 8.81187567946602 -2.0917767698027396 1.2438405740574063 -2.076846116634836
Ni 6.943709367241274 4.314605519155464 8.681077178425175 0.4614903917429987 0.3811179640315178 0.844546453337494
Ni 7.689768060641022 3.079332555984675 12.456678190302389 -0.13762421024509847 0.43954756892332036 2.252682576283598
Ni 7.818684755044318 4.664292514857666 11.045819543263825 1.0016105174747587 0.558764994526457 0.10034372862708525
Ni 2.034144245602687 8.769958344188 8.175010757169655 -2.5782156039609596 2.1063690657946177 0.09333592985068442
Ni 8.05916041857923 7.3287588000518085 7.8979794284472975 -1.8854236296223592 -0.26091966257235066 -1.160756146731401
Ni 2.2974955055419706 5.429363370602379 10.716720584325557 2.1878745786692773 -0.31143181238928946 -0.7255676261077246
Ni 2.470425771693797 1.9914246469841015 12.356681795353346 1.155210020102191 -4.05631427213913 0.6627391208172779
Ni 1.6633839732128224 3.7881987645637416 12.896662328078182 -0.13192407453652763 0.12299746147085913 1.6496634970347719
Ni 6.046459156272762 6.811335916047983 6.003091646822682 -0.26339537780635286 -0.9680522219033394 0.11232712624120654
Ni 1.1031860345991291 0.17766251074133665 2.218224863068547 1.0942085407181543 -0.8742995162302104 -2.4321244938954307
Ni 5.877466265502051 4.4664994792804835 2.22001054598787 -2.4195227459710202 -0.6407471899272191 -2.5935275517276817
Ni 8.028086578130143 8.984073926532908 5.713317455569939 -0.3951795843309065 -0.8131072609916061 -0.3239973077591259
Ni 6.506133868020219 8.134164646789925 10.312773598218708 -1.013819400836125 -1.0204286786225265 -1.1948577164008003
Ni 0.668406441605276 2.4127330554287143 2.9617815669948953 -1.6531537695762177 2.130410423014537 -1.3472529143074863
Ni 1.8674805064658762 8.407340859851569 5.264769988473479 0.2626613278538057 1.362128802978054 0.3139522648182981
Ni 0.29951503612165925 8.007253610738042 9.444343865920139 0.15263816715542744 -0.1507653756127468 1.2388287226651116
P 6.4759842940925205 4.765527426945371 13.465875562341502 -0.045906789834443525 -0.18950675804700268 0.40636054064839044
P 6.057097463933945 4.25700522954252 6.598940393699381 -1.8366194636354627 1.6710059672662898 0.9788791373155141
P 3.9112001532301504 3.1258046766800995 3.191479358623895 0.7570744384667543 -0.009441347918557932 -0.8429860508289095
P 7.688695911476211 6.092117922429364 9.688963016270439 -0.6688146375873966 2.672994436905758 -1.927180401844171
P 1.7259845447064794 0.674712712080711 10.240942376975942 2.603703463819419 -0.7589552004292348 -1.801509507306207
P 1.676600984468681 3.9094717748351533 8.60587792997847 1.0847684783511768 1.3791610758699926 0.5372194071451974
P 7.836504613576692 2.4675605454774923 10.491351132816218 0.300015857242864 1.3530304402212117 -0.8823380702639707
P 7.993177031617292 6.189923805722716 5.648357231647177 -0.5297112716936103 -0.04422631680822706 -0.5929084731773854
Ni 3.9617298039544706 5.752486946479871 12.99602190339399 -2.0143793655591824 -1.0449999402039873 0.5035464403727844
Ni 4.284197150601775 0.9446558408505387 4.084772784614342 1.4686514067223415 1.2699395851373032 1.1651342211944384
Ni 3.558324438029157 7.63738063420871 9.454218729434656 -1.3273088670853914 1.2592556230608958 0.25180844429970184
Ni 1.6694194335974908 6.547337669543728 3.505305737562737 1.3444686666941297 1.4358371884057983 0.46510716255997964
Ni 5.82008779985424 6.9158981876126875 0.5796944166158666 0.48505840887092594 -0.9969899879836118 0.30228768399617617
Ni 7.971604651008079 0.9604423130358578 12.87745329696416 -2.4055950801463344 -2.1546803513054957 3.6596316209001363
Ni 4.413908714213466 5.174219597373027 4.156008778217334 -0.5433931400560771 1.433839441249479 0.08743884763995909
Ni 0.09824953122361922 1.10409181579009 11.342600599015215 1.8453907820701896 0.9427929331159184 -1.6583620532500345
Ni 6.471621756111565 4.096635745416366 4.492818892743548 1.6449622349043607 2.457286080762723 1.7314376901897859
Ni 4.089195399919187 5.497435599902658 7.3318375318345534 0.5211474412839993 0.35605279353277386 -1.4562486621826145
Ni 6.113893641673282 2.342183791851115 3.3971388265646167 -0.5015013849182975 -2.5738025624949286 -3.727670466746929
Ni 0.7320810107967866 8.084799571882554 13.178901898648565 -0.5094622916365872 1.9990635611377188 0.3283221603867249
Ni 5.483377506112336 0.10307697526483242 1.8773969619738555 -0.10860776840809037 0.7604562104547935 0.4630631355467574
Ni 0.14804254153039287 5.099178398501479 4.337413644103774 -1.9785304741813732 -1.0337853024350907 0.4052477672001859
Ni 2.007100207186854 6.1079321226103245 8.189661305800188 -0.5155992577722605 -0.15281608749418843 -0.025071855366963273
Ni 1.361010180740508 5.822703474109771 13.082761543626756 -0.20690412758784368 2.537995322988332 0.42380547559771525
Ni 4.175577349008175 8.4791748538939 12.99264001219223 -0.047854143368801456 -0.269218155135717 0.8692570687102965
Ni 8.005987365603739 6.628645395430293 13.016908478244332 0.25025652643154966 -1.7977153303710973 -0.39637951817627864
Ni 4.173396080017698 0.6973997581147182 8.433780427962414 2.0919485194939136 -1.4389464234587412 0.7193031332552516
Ni 3.218027990184264 2.4287413515791663 7.700057919823642 -1.488532719027301 1.6755866446584369 -0.21516096827999717
Ni 7.585178061080676 0.8373605131820883 9.25541824334916 -0.9417994588543973 -0.5332971892726558 0.13839836940696162
Ni 5.812444115722355 6.240712251073026 11.924719366716687 1.481486867924113 -0.1681627451535878 -2.473368588146882
Ni 0.5419723270784296 6.874675900758751 6.223482074581297 1.9500184827846094 -0.4950165485249023 0.690617849505417
Ni 7.67354718319065 2.9313574859103437 6.994446053666385 0.5695039782105159 -1.2383911209070608 -0.2535539662358988
P 8.466059511955393 3.179218038951152 4.963916614428849 0.7054747120125915 0.5742268376074819 -1.4681297298909166
P 0.3080090454532214 7.248162759386712 1.8590401045925544 0.13574781915799203 -0.27572356035440254 -0.9184607841284569
P 9.102481710588012 3.7983934242946593 0.5616934018453004 -0.15255460630268566 -0.09776722614916065 0.5915851263802715
P 6.0614600019149005 1.7052255186360892 7.76944075905125 -0.7761180853617666 -0.8937347421366866 1.2929743554695796
P 2.9404522684808088 6.280557380810092 5.510958543377096 -0.564729182529692 0.4913244443852958 0.02839706308545432
P 0.40243211327829137 6.054426333687132 11.124847103642123 -2.0173986120014806 1.1610032297452006 0.5442403185477207
P 5.569380505927555 7.524555419942791 8.009338756010294 -0.40078973142883234 0.2521997662008495 0.8311031833483945
P 4.422485907531954 7.434069727498836 1.9442232800033015 -1.9562930029394114 0.3546250599473118 1.8551236930872375
