# total energy = -340892.0151284327 ev
CRYSTAL
PRIMVEC
9.04500358175758 0.00000000000000 0.00000000000000

0.00000000000000 9.04500358175758 0.00000000000000

0.00000000000000 0.00000000000000 13.23827702487689

PRIMCOORD
 96 1
Ni 6.358664783886885 1.9254913571194663 11.152865013550525 0.5406446307766625 -0.4190651326992525 1.5875029643456273
Ni 4.614987047507174 0.49361932213149545 6.313122285414831 -0.5102032835676696 -0.18685620779803302 -1.2770276023323361
Ni 2.695483482882097 1.7347412726569666 4.796307715541576 -0.2604149550217902 -1.4196343533936906 -0.6380457318356559
Ni 3.144314659855787 4.002974957555725 4.481606708443712 0.23515566623436923 1.2855626363865407 -0.054587862548209215
Ni 4.944225184660903 4.495366872675908 2.7164941221346903 0.7555965683696471 0.3913787225275776 -0.13268563529290053
Ni 7.092666839656804 6.126289592084236 2.8077989126703584 0.4307204575499937 -1.640812474402045 -0.7060781499245453
Ni 5.04805278291331 4.68818826300127 11.274391875176077 1.2052701699833759 -1.3021205407452219 -0.8245964925781283
Ni 5.5995990226759496 7.730023030166076 12.439003043328755 -0.4887106609115326 0.466899478573712 0.4682323384525226
Ni 1.8596889547075603 6.391217752447771 0.6309405693366578 0.17865104627942138 0.7501067488996694 -0.6622336419357692
Ni 2.706871142625958 1.5253946604475423 0.3554614120777969 0.41955132830705166 -0.33860400192870715 0.3428452937035644
Ni 0.5570021860354721 9.154810113702604 4.924347884380435 0.6919599653556083 -0.6068276543616388 -0.845842032220466
Ni 8.700389124400315 2.0561193015363384 1.1965825429712849 -0.38253104232896057 0.896486850960527 0.24373235215978672
Ni 6.798532362126527 0.6324058599470671 4.947369227970645 -0.5403782644891532 0.8136299662642955 -0.7503160366969982
Ni 0.7503662765869119 7.533547458318457 2.528947778006802 0.21781100430833455 -0.43233588166622966 0.6124185181858549
Ni 7.484270277790614 3.6965935449236307 3.902498533199346 -0.013838191434672941 0.2052226261203627 -0.9911661822129832
Ni 7.546626533766927 3.6234104194370698 12.620671944008222 0.5062245014255797 0.14466131959753797 0.1258506146489381
Ni 8.211741840840066 8.647900967534845 6.79957615556135 -2.6044706810027467 1.0724588077458885 0.3235854170326879
Ni 6.659067449028358 0.6813890778524523 0.346041040653467 0.33256756592664016 -0.14342821852138526 0.009000146616081275
Ni 2.006091385695754 6.407534939245171 9.013320928761166 0.48297478686901973 0.194660020113168 0.5853394025808758
Ni 0.03579107990981603 4.854299757199849 1.2193234914446887 -0.8740544900989399 -0.9667486726005674 0.35642303238799905
Ni 6.254393980449846 2.059149377798605 7.085973536868514 0.565683061802529 0.707333105377569 -0.5559730336036167
Ni 3.251868799660594 4.338861172478904 0.4284419294799556 0.7894163451325695 0.07083620608627154 1.0530035272347542
Ni 6.0450925932592625 5.617480995125206 4.926704107861988 -1.3008437309153273 1.243836203182032 -0.694638540629036
Ni 5.5430225241073625 3.0523360165394062 9.385925336480378 -0.7893158149989632 0.08096223877667992 -1.5294947632619593
P 0.37123318514798803 6.018400787140013 12.38837996624024 -1.3820203996956586 -0.3122733344539783 -0.23599873096095486
P 4.266998617542465 6.004779011465466 12.592607106316997 -1.473878973669868 0.9830726065715714 1.129286872478526
P 2.521710870492057 8.29315591975547 1.4760279343823959 -0.5516800626552176 1.0542517978195585 -0.1190094233573886
P 6.196524046342442 7.867859842586012 5.907435776414308 1.053820623819411 -1.2992805001932655 0.09806084613017951
P 4.770524932301007 0.9894329621770979 12.591097495188126 -0.959981786190379 0.21023653439518633 -0.08508217448232444
P 4.07942332940252 6.314814605619817 8.28075431508922 0.2056864531306587 -0.949710486171358 -1.190378597583524
P 4.695379040996799 1.1191111811983343 4.053666776672878 0.4544944200411399 0.18146794690292617 -1.068782644445882
P 0.16406189634475793 5.678082520370534 3.5771940681843035 -1.1594320286033386 -0.5964285705155018 0.2068964142783598
Ni 1.268625093482706 0.9055224622217368 2.6021951230201155 0.6381992266943848 0.7782860395473629 0.11056052125908702
Ni 1.8018552006152269 6.617433296684441 4.766931352303996 0.48406673438161785 -0.21316964888158124 -0.27169361325940306
Ni 6.067397572551051 6.02963468181982 9.332601421266748 -0.3022714860462601 -1.055252728280247 -0.5767436904920648
Ni 8.734289798522626 2.001695513864526 10.026883247490048 -0.12704566339830378 1.3142106391405366 0.33256705170600787
Ni 2.393850697228181 5.389293640067121 6.849087601686784 0.806086863809715 -0.605064648923945 0.03073856673443738
Ni 0.8143813862542689 0.14322763466563984 8.977312768760918 -0.28459618025368405 -1.3157180769239987 0.04413092888094335
Ni 1.4789214310877663 1.030298289200739 11.376790362833146 -0.42684940463036164 0.22275857812159702 0.6114307003512889
Ni 4.091652174496801 6.631462097528545 1.7122915733048911 0.14677039552074078 0.17850037963417 0.11442848885492551
Ni 5.594144885403869 7.9386731770853665 7.990769685287684 -0.11566904613024595 0.12031991463869603 0.04556380467272798
Ni 5.298762197353613 3.209547227030311 4.938168650137876 -0.3920662355129054 -1.4494686631463036 -0.4273996207068768
Ni 0.9430954078738409 7.410851982206086 6.897619473904148 0.24994979382440824 -1.0374141574369296 0.8203459448318904
Ni 5.234931605763123 4.507577627762654 7.252126638084424 -0.560228723556177 0.4954500365178951 0.4076381218092335
Ni 8.03387184174314 7.460454782869576 8.979377743121145 0.01870554682930327 0.05320435193712127 0.18217191494848625
Ni 4.565510876896434 0.28670672043602896 10.37970984997024 0.1671888112760927 -0.05006632052877184 0.19529302571147655
Ni 8.031936210936799 7.203386730780398 4.6905462954835775 0.4042218970388328 0.6761582224366613 0.7273848818221215
Ni 7.2081082227472715 6.008279427923667 7.041188105211839 0.5870499575140793 0.799828541604829 0.323971596727513
Ni 2.002238214090603 5.145964948701473 2.6575315515721156 1.7018126682345014 0.8289763668133788 -0.1605329965224719
Ni 2.3613339086823664 5.4097624835940135 11.652437757162092 -0.19877249961964477 -0.5062005901661797 -1.306485502582137
Ni 0.7922319810272895 3.4278845729850875 3.817098321123402 0.1488550459639114 -0.6988456367318481 0.010496014435317407
Ni 3.9799644679700363 2.422460044146237 2.307881554415232 -0.6767238651321442 -0.6459744997644294 1.0185170634221103
Ni 1.3969103819236766 3.6119865796781365 8.343159414085882 -1.3957146093532993 0.3295169520257744 -0.35151428223247205
Ni 3.655529227817094 2.7721398898155543 6.763753418138346 0.32011108533084226 0.4493077336338778 1.2152506782348556
Ni 4.108195486388399 7.047306145760487 5.949149524791385 0.22842194705496144 -0.14353903306763666 0.03817445418719232
Ni 0.7291439842461483 7.427132988988414 10.676246680501288 -0.4851879924702546 -0.14682464579744392 1.5043833129063124
P 0.16374713021363296 5.736676054779377 8.149959942603019 -0.6369357866009289 -1.1749319240111507 -0.34868066943841886
P 8.700253449343796 1.5056403722183187 7.738792161319112 -1.6615900732690285 0.6502780122357898 2.090396344515445
P 1.8663098974657066 3.1757370029456786 10.651597236232844 -0.9690672934314148 1.0712689012028453 -0.07828289217230389
P 3.9352550143450116 6.026333255444514 3.948858700012023 -0.314410178291323 0.47357483371135856 -0.24590930520644746
P 7.181642541722223 4.0316114394850855 10.420218803845424 -0.6908937288746231 -0.22415725824133653 -0.19442065040885226
P 6.4390477323727415 8.082036486807526 10.446509916297751 0.306758061062704 -1.033778103346239 -1.1635751042374347
P 2.449567920438812 8.556618789508597 5.950512606859216 0.01500135850483868 0.7570453850010317 -1.5083944909482343
P 6.857397246648407 3.88424119309372 1.6217818386004268 0.3901425361276313 0.2879794949036202 -0.4484525847224341
Ni 5.192691438166752 2.9640839147754243 0.23682623815686235 0.6067669763270324 -0.029364312094730068 -0.1611451761851741
Ni 1.6687217901546298 1.3101054807625687 7.055988444877351 0.02666696776822504 0.5534564378293502 -0.9123762684972739
Ni 6.8510747890146035 0.7080763614698169 8.96461720147221 0.19126564971963833 0.08607436319226466 0.5530108656514992
Ni 2.64457820167602 1.7412174953548258 9.24876328134153 0.7290692115030799 -0.2959542855789806 -0.06347488062519391
Ni 6.281185281610543 1.906297859123856 2.386424749134686 0.9568463258851908 -0.051840638820375234 1.1984580321575489
Ni 4.044871415008914 6.8479904427297305 10.466049837937675 0.15174213770371933 0.5264673108350159 0.20160508397243343
Ni 8.160122004336321 7.010095000259102 0.7600362901152375 0.050106686848404025 0.5532438075979117 -0.7590462174811443
Ni 7.736969593059868 3.6887605716605774 8.26203567979143 0.6541264394476025 0.23212305005563252 -0.5110278363514941
Ni 3.1219825455526946 8.381408021519452 12.436673050358129 0.1917724141527278 -0.40894578487706346 0.09170585044642916
Ni 0.19567056651226947 4.891954107885865 10.315120382563617 0.6879158771932217 -0.5727903622712716 0.02340809451129517
Ni 8.564732157888457 2.1181137573619333 5.7254756266135125 0.05268241799538024 1.9752502607682048 -0.022539318753096668
Ni 3.8550348759269784 2.644605336687324 11.250735572321355 -0.09055579600238597 -0.40587254526837846 0.8299857819144996
Ni 1.3045428034452735 3.330442747392859 12.869908831835103 -1.0277568368528236 -0.03018552244444479 -0.8195897833921562
Ni 3.1388062525611 8.535218310593605 8.023561441948045 0.20396921332923582 -0.5540087107883943 0.8014797040550068
Ni 5.596397091342091 7.944941364696564 3.609018913941869 -1.0144382653670463 0.009147213716906827 1.0703952403486403
Ni 3.0862095556504148 8.414196160178305 3.75728823370777 0.5331912598224107 0.3490506511833279 -0.26429629235406743
Ni 3.4952879410639226 4.34694740584746 9.142473633063483 0.5162901131916979 0.03485541711628836 0.7348652493595667
Ni 7.2934116532829 5.970715527275331 11.319217104849331 0.781915408769834 0.9833451435066679 1.6122470040595265
Ni 0.5765104501622074 -0.049726717215111356 0.25980145222785644 0.8133916250012444 -0.019532413605972812 0.5406490016520366
Ni 4.570431358946205 0.12727134351858238 1.5155573143495096 -0.7072917106166722 -0.10200388993832754 0.25248927241681035
Ni 6.163084667412295 5.630225405434261 0.3839748819559127 -0.30744146028297376 -0.7113954483724007 0.5367470954944692
Ni 7.93976762254129 8.348900277977405 11.99782393954276 0.19360946736146656 0.1794887116893683 -0.7245808367144231
Ni 0.09941273191326688 5.009530111865571 5.7948571370164 -0.3904826930758694 -0.38317253256770134 0.2507200963315295
Ni 7.763688534190421 8.737545999879092 2.4976656324753135 0.12716239148182615 0.8595609244684551 0.4312490763599541
P 8.374705673727394 1.5865298409151813 3.552398999355196 0.05150485274751129 -0.28642166349819703 -0.40790243121421366
P 2.0225804275647445 3.093933988868252 1.976514223374526 -1.1986891743317485 -0.5864431771680159 -1.1976293656086665
P 4.565854587039618 1.2258964956828649 8.391294210637833 1.3395303488522479 0.8907808017146852 -0.9810566045828072
P 8.227453012385013 1.4979249840042492 12.273868409537117 1.7431392948974302 -0.163064504695074 0.06716415655132305
P 6.118302853757126 7.630102873541426 1.5621164712450815 0.8884395551760182 0.005563353020390419 -1.6621276909400537
P 1.710310717479708 3.4708935659017355 6.00851007551975 -0.3515505347870462 -1.0725318270756687 0.0012626687625075029
P 6.96324188074107 4.043966914632118 5.987222659151857 1.0827347357505999 -0.8523430665637772 1.5316421486222653
P 2.537422042037003 8.49099728717205 10.221433138035469 -0.6354257777143056 -0.037733509995031785 0.23611134527941918
