# total energy = -340863.3009617429 ev
CRYSTAL
PRIMVEC
9.36258186841332 0.00000000000000 0.00000000000000
0.00000000000000 9.36258186841332 0.00000000000000
0.00000000000000 0.00000000000000 13.70308494870457
PRIMCOORD
 96 1
Ni 5.154691267290002 6.186747413046095 10.031179026184486 1.045361437308464 0.18166206519160327 -0.8204153646172452
Ni 2.877084017039192 0.40503747131865564 5.484933879297372 0.4648066006004253 -1.2493612467653192 1.1601449955099632
Ni 3.9427986453048387 3.878674320768556 13.287703215187362 -1.4718526872684587 2.222282366725185 0.7229358449118324
Ni 2.1248660865064815 5.673509389622248 13.55950458996952 0.30073499479707566 -0.03928079987749364 -1.039476696392913
Ni 3.657605033142523 8.016738977539113 8.97571268024289 -0.8952547783256389 0.7195728419768703 1.3008843543452757
Ni 7.216987217882339 0.6790399891433714 10.861476209815507 -0.4893819759469443 -1.5496362712068408 -0.7086464248723537
Ni 6.723223365145523 6.005244397210152 3.1694006816335705 -1.046626934284449 -0.18611547297726655 -0.4054411141579146
Ni 4.752006612843295 4.7758905596810886 5.419090584694676 -1.3664983928006593 2.442926212496625 -2.4470389491134177
Ni 8.9341690311215 6.13727552943539 7.468660913749605 0.8116869836053118 -1.0463196874566754 -1.2555738033339343
Ni 7.59829709748362 3.663990314108174 2.9153179934019917 0.858800906373979 -0.38452647549243457 -0.7141748108897507
Ni 0.27933076327567197 5.672095639731026 11.885809161629421 -0.4353875240083598 -0.6819411476670255 -0.48911021034279634
Ni 5.208769541274755 2.8728521299475873 9.03588318637478 0.35278183609098596 0.11125934709832452 -1.205310536303008
Ni 6.917731007464294 6.410382048156861 12.129861715698974 0.7471013864144423 -1.3961781792532793 -0.9689706199525506
Ni 1.0568576256358722 0.021474954473480926 11.387359336571036 1.4037320803411373 1.088723349233867 -0.16177381090810847
Ni 5.982287345996403 4.0593815171293075 6.9838186654587835 2.348799925534161 -0.33065620783654026 3.2931362918777998
Ni 8.829326837201615 7.574965542987429 1.4818926359787716 -0.6064263051581621 -0.7976844986786326 -0.9899276818201918
Ni 0.13852501914279738 4.948686374200235 0.9795161440039746 -1.3177883291894659 1.664789811153249 -0.052703243930986646
Ni 3.4816914787970408 8.062952682592565 2.2534583423406875 -0.7746147613433627 0.8279458686663355 -0.27039083528757946
Ni 2.483312540714624 5.625713408200475 4.106732775903179 1.4126540654211153 -1.5742029048026116 -0.036875789980426815
Ni 1.346676353336357 2.9342238553579145 12.137343355023978 0.9541695503839761 -0.9891622644090771 2.539479363733026
Ni 7.77645767152376 8.188261480897953 8.716162244087643 -1.5349478159567307 -0.08044339015873242 0.5585670195830379
Ni 6.941877106599799 6.336380199546148 6.2834535231549085 -0.12011988281274798 -0.5859860350259392 -2.283866715195886
Ni 4.326636422062609 7.2033833861476015 4.374558798342206 0.7317662987192687 -0.12291081529432381 0.04088054026444572
Ni 1.6386016620005832 7.647544279124859 4.150266909970752 0.1465719063566895 2.539422799463478 0.024756895229705752
P 2.0479150245465303 5.68680425614897 8.345644612828162 -0.9230494319404039 -0.7228144888426197 0.4629775178114865
P 6.016011366580385 2.378835487495121 10.838606230614927 0.8564473185401379 0.5594633061450623 -0.228486995964942
P 4.855828285318522 8.407785942483908 0.5744168796437159 -0.7718068595809224 -0.6644910705113782 -1.122882511614079
P 9.162616033411657 0.5935465073108982 9.502198757283152 -0.21379134162598018 -0.2582824820598197 0.685007445297175
P 7.987321744703224 2.9985728818636628 6.9859973383043945 -0.10040877753706579 -0.2558592173303077 0.14966777167319384
P 3.1155302569705743 0.34093374446290764 10.422744678175466 -0.22870759661618031 -0.4521161496169504 1.0652885152496945
P -0.2348369645468393 7.309508253809853 13.056464290926593 0.019177087149083102 0.35809039278809296 1.3151940860997287
P 3.973180224093017 1.0294252601969311 3.5013304309283453 3.304901659943844 -0.08558971024636228 0.18784222586038615
Ni 2.0485048672163777 7.032123035086472 10.989751074117843 0.5235128561923822 1.1329648355507456 0.26082376042443467
Ni 7.781316851613456 4.403334694306911 12.844614337856099 0.23682688328920506 -0.8631028761834425 0.3263881765888056
Ni 5.960828307912427 6.5006935147179625 0.6788237134977606 -0.5413419139540031 0.20215478582831634 -0.04691671915619662
Ni 5.170982160076267 0.31357534342224896 9.60251882406754 0.05665605793114759 0.2721988350305957 0.30180251682964154
Ni 9.126532642148286 2.7788143557261797 0.4844771075904396 -1.5104117784885793 -1.2678847594908036 -1.197462758123815
Ni 7.424602475086612 0.9819288814011128 6.000498504363395 0.4385332687261931 0.5460328916717693 0.2667010451408181
Ni 1.290744288103513 4.431132200446234 5.849161727928227 -0.6627404063688587 -0.12298152063125917 0.1025178534602686
Ni 2.843697049409409 8.365513884478167 13.322742678550924 -0.7382292807357931 0.023933627997462008 0.43718909599347283
Ni 1.6131635265406505 2.022645415563697 9.896793204570887 0.05593563482535528 -0.7552281292866349 0.7626676162838155
Ni 3.153289550422878 3.7874359585834094 8.933273968276461 0.09108467192266248 0.35174285330351035 -1.5463447449397627
Ni 8.987854076659687 1.261252154611136 2.4498787601745358 -0.6100109371856269 0.6560555381495153 -0.12368394601492248
Ni 5.517510047320666 0.14387011724146342 4.779965155394067 -0.7564972258070456 -0.2195606400095896 -0.5274168192324787
Ni 8.484493577310271 2.1994671403691033 11.746791670670211 0.29744835362600386 1.050006135169327 0.7554196764721506
Ni 4.051685474675106 6.272396313740781 7.869654685876084 1.8339483445612028 -2.494418466838646 -1.9582203018691113
Ni 8.321369310060213 8.605823278239704 3.480090477264597 -0.7085708344394119 -0.2528453702046484 1.1756348636154463
Ni 4.637230719356612 8.210460162964754 11.765633867068118 -2.177245895310837 -0.9209344424799302 -1.5269354871752154
Ni 7.157385020481555 1.3421167758726151 8.43633151892991 0.8733278963455604 -0.03118285336070759 -0.015361055837102578
Ni 6.174697769933495 8.37503563043428 6.744644952901255 -1.0579446732901134 0.7905170343959159 0.9766759590166083
Ni 5.636751892450479 4.438266487976771 11.767511064771364 -0.08201819084502003 0.4828122931492265 -0.9476854853215291
Ni 2.9517974218865466 2.732151246733797 2.622934854474979 1.830290178983325 2.979084782477476 -3.2227392302114755
Ni 0.27196428371002046 0.7554199335975972 4.917886287993926 -0.1612901864034706 0.2869435974399381 1.1242819630647671
Ni 6.324967212013701 1.6392851304910414 2.9204290269491313 0.8368555124511394 -0.5060776914350703 0.8784652175721258
Ni 9.027907202716953 6.256966778504135 3.8558286842813336 0.00976427847561544 -0.5142643410109209 0.8890674185680043
Ni 0.7726957700166872 7.425407657143864 8.815030174394359 1.7241673817806178 -0.45052078010537244 2.4570618805670583
P 0.10907688978610752 3.793568449833411 10.64500863127249 -1.0245337019298355 0.8399575484152308 -0.959705649710857
P 1.0954970018019166 8.829336199783677 2.2077174476813197 -0.40435456596195524 -1.745690086343742 -0.7625809701072803
P 0.20109047376591127 7.52204822917825 5.772547718922475 -1.0257994560161368 -0.07175923212117319 -0.37009847299256265
P 6.5091572889011715 7.90553959039976 10.556966654602993 -0.7685315312637603 0.2294421607893597 -0.6070834791261868
P 6.839927950536786 5.757697727515407 8.195951905802916 -1.4200279892876835 -0.5826250889735062 1.7723020325043155
P 7.482369606403426 1.4921147030730502 0.6380749475933569 -2.02419995119403 -0.840785700743481 1.6782945305079031
P 3.7206526607417825 1.8559071916380652 13.365262844981283 -1.0803479806859781 -1.0143372210128079 -0.8432968972011089
P 6.628932801208466 7.6253455970580575 4.541764215112686 -0.04698613894155134 1.0198679210230501 0.11920714119049146
Ni 5.60950677865276 2.554468164378772 5.173188920668063 0.40900054937439884 -0.6395727100031436 -0.7156182282044966
Ni 3.657445869247485 5.686167600568818 1.6560722401265437 -0.04258261055721699 0.21463903433825618 -0.37257136001308744
Ni 0.9900836903763065 4.058857212533887 3.2271724942414157 0.5217771044481981 0.955824826599212 -1.3354433232670677
Ni 3.884759999108253 2.800591721600233 11.138374574271712 -0.5435396929362702 -1.4422906573406258 0.15204038567042846
Ni 8.600786209090847 8.086012722208984 11.1988053601849 0.2665586060256829 -0.5437273834670443 -0.8580599144428965
Ni 2.2097753432183436 4.627484271431036 10.86952054032238 0.5770694492625997 0.6092012968001379 -0.525961574843191
Ni 5.016630632217434 1.1537603499679678 1.169192693979233 -0.5026486111488633 -1.0383775497914631 -0.11010157934479749
Ni 6.038743715824668 2.44624607833484 12.962433070512628 0.0872562993155078 -0.6061578819881238 0.9173626659682718
Ni 0.7881543292577232 3.628992982363887 8.50642355327192 -0.5607280317900989 0.9445675085178378 -1.541806490749777
Ni 6.5873535742752445 8.439834060878958 12.754639924249195 1.3308742158391467 2.7226727779674915 1.7720837458459224
Ni 1.338624532763835 6.516366477088197 2.1089599958429264 1.92828494776226 0.08608310494301304 -0.022305862586051908
Ni 2.1758453458290186 6.945500425857434 6.503730736338574 -1.425218018129055 -0.937379732520147 -0.03701000156544594
Ni 6.844618604149382 8.702445125109968 1.4102801183100437 -0.03460113501363718 1.548474903908888 0.7995259227627456
Ni 7.7435388329970305 3.7815000815566893 9.117909704070039 -0.5304147255185382 -0.6228453699461337 -0.14364779073135905
Ni 2.591403550609701 2.5677536683234328 4.781074621368305 -0.011467377209651219 2.1092980665159544 2.8889344494436244
Ni 7.520784280600005 4.405122947480575 5.102069811073954 0.7574927569510954 -1.0578287165375393 0.535075107108685
Ni 2.843874938468569 0.6820444417267694 8.290778009433867 -0.44711432552698477 0.8641524004938796 -1.4967404516490739
Ni 1.6200450243555382 1.0988956190900858 0.8615335661613753 0.877987763715075 0.14480890091899576 -1.0271968505842952
Ni 5.001819027396818 1.0784945527790097 7.276489235655071 -0.29598822414070963 0.4079219715982394 -0.8838861314773808
Ni 5.226333745221326 3.4564874078886345 1.5452286311055117 0.7011372609795021 1.4893053355272672 0.701750983304101
Ni 8.883545549917283 0.2542381070937928 13.365126151283192 0.442460114584425 -0.9134178223879107 -0.34141858855936685
Ni 1.9730143680579542 0.9586909527255321 3.3058827853706423 -2.1755551378719757 -2.4681456491850464 0.13132063662457383
Ni 8.099101611930363 6.069902388923916 9.817726199065136 0.3491964327325728 -0.16779379184994325 1.4239442936229543
Ni 0.10771557035442765 9.02803827886581 7.48998325813549 0.22692093702940272 1.5860675174506813 -2.2350777187176414
P 9.219774596894503 2.930703524502951 4.426603519503293 -1.2621257455198394 -1.3447622866751483 0.8939229468880926
P 1.26635476183442 1.3851846533535463 6.876536582653784 0.629681933251993 1.1640911246419048 -0.40193464366655296
P 3.831664796239913 5.885272270679575 11.646978119575328 -0.6418262819240108 -0.009746537863802569 1.4946028364807808
P 7.226714940643793 4.922574132831905 1.1936206068347759 0.451517596801003 -0.8855591483044297 -0.1930649077119062
P 1.616889834200957 3.4117904411290767 0.9470092590879324 2.800129317583758 0.8743473387490103 0.2278899858108914
P 4.046320715154112 3.1721926036041825 6.5862918574695195 -1.6428806697849834 -1.3957626889824155 1.179948917609768
P 4.642127349774553 4.95843282212581 3.2837384062797943 0.1939560520676079 -0.5862179485310872 0.45077506220802366
P 3.9154037301941416 8.014276618457052 6.385445747095402 2.0952899251623203 1.4660353092557332 0.7380025094369678
