# total energy = -340896.32474985614 ev
CRYSTAL
PRIMVEC
9.04364449182855 0.00000000000000 0.00000000000000

0.00000000000000 9.04364449182855 0.00000000000000

0.00000000000000 0.00000000000000 13.23628785939202

PRIMCOORD
 96 1
Ni 6.396099352169203 2.067169085838037 11.260202644841216 -0.11651776728378642 -0.7559531803781175 0.947853121247645
Ni 4.299547465962416 0.4803739679984633 6.079254369343966 0.9154119699998041 -1.120416823682406 -0.3755870069109596
Ni 2.618216421039231 1.491595387263482 4.717386442274258 0.015295235596173658 0.4908827288621868 -0.2544373972821167
Ni 3.4655878057579574 4.2932621331657765 4.87393192530998 0.2683234112355895 0.649982592482558 -0.16385974690285973
Ni 4.943717206641301 4.554279795290388 2.814299812641324 1.171197139559067 0.7243237263982945 -0.4262660213230659
Ni 7.292695292876575 6.089004322276422 2.506926238503742 -0.16033065070367872 0.3423943222090749 0.44496179796035623
Ni 5.296166112757314 4.460994604215086 11.49747621882543 -0.44210298835532247 0.3347707442255461 0.034723005303482136
Ni 5.446326782908969 8.031135981860738 12.153863922969435 1.1333278753171192 -0.2225940275192747 1.7202104540153988
Ni 1.6949507732566227 6.546024887568753 0.32688071491794307 1.5721228823451312 -0.3691227393428546 0.8869645132923887
Ni 2.8321076526555147 1.453874346839334 0.2874431908034324 -0.6498329542785711 1.0186474183523877 0.2453953416845064
Ni 0.7606138961076176 -0.1404098128547675 4.719650066445479 -0.6299045907857602 0.5071837800150555 -0.4718732776392196
Ni 8.484114038145734 2.5324103238097138 1.385706973475379 -0.3170617569815572 -1.0075029716997939 0.4092890271490951
Ni 6.870745980225059 0.5969899526691184 4.788889111660373 -0.07910693073549602 0.08340170145610798 -0.08564370341274928
Ni 0.7294594458182034 7.395431092257614 2.508832638724651 1.0249113969842285 -0.6460228365038615 0.5469695445534257
Ni 7.629326865091405 3.9073517430964317 3.704108498292756 0.5595476383287525 -0.6057704167417179 1.1485279800963253
Ni 7.579460210356628 3.886750321354353 12.732845266720645 0.5326670118878245 0.07443806450491695 -0.20209359357307774
Ni 8.128599336608051 8.835703798052135 6.838713392072978 -0.9469576060165692 0.43826587399741945 0.08426327812545487
Ni 7.009918622537985 0.6293770516782189 0.3766958208801425 -1.3035151070999034 0.39851841889615236 -0.3209538929471118
Ni 1.7942861623764597 6.475149847097871 9.325334840368065 0.4603207969149298 0.4908102237530385 -0.17024611004517776
Ni 9.266751016881232 4.7765002233177585 1.5867797436442437 -0.6008084447507525 0.6945416100398554 -0.21655322064183352
Ni 6.35523112352458 1.8543811788277815 6.983267002751372 1.0305963631841475 0.5459267051112081 -0.08380999263812017
Ni 3.3426756359174887 4.339592722974674 0.41799633572286576 0.6619587910078277 -0.07146561214015434 -0.07362868122974416
Ni 6.012748313440071 5.712824893486478 4.931337361942999 -0.20800918772656435 -0.14427642545429348 -1.3490956239431797
Ni 5.4420400955052175 3.0541381641523393 9.034110501877906 -0.218729659467862 -1.0787358990038518 0.154226851798786
P 0.3233482674497886 5.378815978122044 12.4330828236358 -1.8122132668769564 0.8384706794570592 -0.10333392160366074
P 3.953700420193952 6.159562835196393 12.574592343638871 0.34538451518565033 -0.21384327790983818 0.511205756690255
P 2.2807980517692816 8.456006391624936 1.2791520431015027 0.6105267004797809 0.6248300044763303 0.6417774309639465
P 6.246137642192406 7.832673207440234 5.947037193871178 0.43725285935187275 -0.3726652052784743 -0.49954091875781714
P 4.853461636410422 1.1071591112169459 12.681859008820078 -0.016231374257197853 0.09197761605057707 -0.4999134716058874
P 3.823291069219075 5.998432224494633 8.456902616776226 0.9869236048865455 1.0514122714882344 -0.9333199606284764
P 4.576662814961874 0.8751516513154415 3.805617979505129 0.7591269501204088 1.1539848894458384 -0.19202258249032092
P 0.35112039476662293 5.578997044961774 3.6665439129152007 -0.5447933628377134 0.2920870893140905 -0.6392016998169701
Ni 1.2670959608695604 1.1965826661711474 2.360148795689099 0.7622577824399066 -0.3619287926975767 0.5608025937817761
Ni 1.9224165149847856 6.5141279540813475 4.941808093327099 0.5611599771211948 -0.4183328825189182 -1.1422642585748006
Ni 6.007457781517721 5.475076528175899 9.349663147931 -0.21487891826320416 0.8340499246815442 -0.35882727095411754
Ni 8.627130229291136 2.194268462994828 10.192576920368486 0.6898812284497087 0.9451748030845336 -0.2076839431766617
Ni 2.335349314257524 5.185073986032253 7.00137418739228 -0.16407571956840775 -0.04363573441207969 0.02410049259262946
Ni 0.4194659279235188 0.07864805275679743 9.183071984793829 1.1124116939897424 -0.8620973177370637 0.34156565566019237
Ni 1.6030944779825709 1.1155335258495904 11.344702839832122 -0.7377001477052004 0.5072750541772811 0.22967150319134638
Ni 4.096146861747717 6.966111209492055 1.5530795074810826 -0.19463713729503254 -0.6098427870388788 -0.6147780195569671
Ni 5.647168035783453 7.592275054346323 8.124248439329687 -0.7850917496152866 0.5145813580307073 0.005802208504073878
Ni 5.304784705786375 2.719640891995073 4.913257308235027 -0.31608936576595886 0.24414655687906983 -0.2361995341178513
Ni 0.918789043848311 7.499785703970452 7.059573655995867 -0.19337138320873148 -0.6522724169579993 0.7091022814628498
Ni 4.985336057763797 4.614456204540516 7.105305556551329 0.6897966391557023 -0.09773277336679942 -0.22059113815663298
Ni 8.129684573925456 7.031686674396274 9.122370139809192 1.025710495846756 0.1726521483835091 -0.2067264643593988
Ni 4.684264094982615 0.41604923910255426 10.376574385712408 -0.6870453016628103 0.20667581362712145 -0.5198068680957048
Ni 8.166573599072926 7.198044511510204 4.675916811282906 -0.6246166029139436 -0.013686239237840946 0.19817883189970384
Ni 7.173952243063805 6.068231071292421 7.0107714381965796 0.7227080451717425 0.02663791430250251 -0.11916497509864639
Ni 2.4678748780013415 5.224639929895989 2.556033227116335 -0.9594192288186896 0.16530933486519275 0.3127811273283323
Ni 2.2703978608108137 5.163206454086534 11.517450011652274 0.36457317229895925 0.35365781093803605 -1.0338372387189487
Ni 1.1228046158762064 3.363756370808088 3.7489405562392024 -0.676495294061106 0.030771476854901843 0.26035299143560325
Ni 3.711801022144298 2.6812867964691054 2.69988505099614 -0.8907160099150209 -1.0004743469877866 -0.40404963312702674
Ni 1.2074440829895126 3.345198812680456 8.20833805286884 -1.2730840443035558 0.209740054374742 -0.5400373362099667
Ni 3.653017334118174 2.676222355654547 7.041585847459873 -0.17242589130531596 -0.08472736224606699 -0.11992139364869671
Ni 4.200257295064137 6.716018269695991 6.0968722928276105 -0.4972909463813758 1.2485140682736755 0.17659416375039264
Ni 0.719543994194843 7.452550749730384 11.47701316484132 0.2271500223210733 -0.23431825793473837 -0.777734537919267
P 0.28524739396454885 5.570812546859675 7.905240313761836 -0.2803235210202592 -0.4613176136105604 0.5698924718981863
P 8.667293053679447 1.6543267230084155 7.929542394756266 -0.7484401598305239 0.1006337490636783 0.027116396600817817
P 1.6652514453369627 3.289797447626913 10.52396046578923 0.2918037537457168 -0.7876047458451274 -0.7747245474483497
P 3.879081310978022 6.30846643878872 3.6715604224149074 1.1274626747855938 -0.1977355737146982 1.792625574553016
P 7.075349389133216 3.858760242209607 10.306872305908755 -0.7427230548410886 0.39959725378262795 0.3583215349622926
P 6.472427710160046 7.740373773594907 10.179909487781071 -1.3233251998472952 -0.47046379888620266 0.8334066346705906
P 2.472233914559587 8.33485773242525 5.914701643634654 0.6525652656080697 0.8554384176596492 0.026019306881897124
P 6.856610764165855 4.048116066808218 1.746885709445487 -0.7855820589881438 0.017923931468272356 -1.6981953831968881
Ni 5.39760867100178 3.0664556077048903 0.30471112525221394 -0.07414393030326585 -0.4716195097572007 0.756106161016214
Ni 1.6143266842177162 1.0442876959619287 7.018223401109429 -0.5822054849375844 0.6008274709141458 -0.25036091321989784
Ni 6.967730021823852 0.6226214493773706 9.225334743391318 -0.5431547987930259 0.1576145373240963 -0.9810733167533555
Ni 2.683140743553006 1.7917177673919336 9.197406161027892 0.7271853642168058 -1.583439335799215 0.32460588787740224
Ni 6.16387665353308 1.8917856917010194 2.663392137469522 0.961667658533234 0.3087491233508038 -0.4697793712246684
Ni 4.147496674149614 6.84120943790301 10.529533159414106 -0.03249822973802145 -0.06792443175611527 -1.3220915845505101
Ni 8.368264954512712 7.0012819422203005 0.43596334387694263 -0.8443489926147071 0.5190270525068869 0.1396425262267079
Ni 7.698311783901138 3.9132934174092258 8.130733636665616 0.33924523505713183 -0.7194278317585739 -0.7623716823099516
Ni 3.000328480497657 8.222816023047459 12.34364570321513 0.44928022283005203 0.2574977813749952 0.43102230506112865
Ni -0.05189785724718654 4.819783104993609 10.128989248483979 0.8157526690342533 0.13548248131174734 0.3062620952628919
Ni 8.51753934752182 2.42939417145501 5.789751036366325 0.7623164035919839 -0.15405201678381858 -0.14798164222002255
Ni 3.576652801550084 2.7099099307156718 11.502466501756633 0.5851002899868762 -0.009396096502919301 -0.0002666233978253473
Ni 1.1447716279093532 3.3830916823465267 12.780562247202527 -0.5246734521593867 -1.00087261086747 -0.16299379935813865
Ni 3.2553230755106695 8.559700817303018 8.221984912135213 -0.39951446426083453 -1.2120781940441447 -0.39975717639925995
Ni 5.50821244093401 7.905465500505198 3.6270078130776926 0.33190576397292515 -0.42628684725867233 -0.17927222480318802
Ni 3.026365132471074 8.412533593418539 3.437318278003979 -0.8153510627204604 -0.477686541886887 0.40604300940797167
Ni 3.327654142715736 4.107876468420007 9.250709400601117 0.052058925478768406 0.5406772837868107 0.6473369273295948
Ni 7.395385874036056 6.16720471463979 11.614921505679469 -0.3193711218410242 -0.04823826618109757 -1.0292804725862015
Ni 0.6074019003651916 9.131186788648678 0.15448172340379032 -1.0312378534228885 0.1090757091834444 -0.11202707850228448
Ni 4.385335475903309 0.2630768999343886 1.5721796842674167 1.4802080012116896 0.5210762217264316 -0.028603779779621707
Ni 5.893480732257223 5.760602466385249 0.3475779992897256 0.38070838729792494 -0.07074467481372977 0.3507450081666153
Ni 7.845768404403591 -0.18281455666795068 11.430156234933483 0.49694204768238937 0.21316219268241351 -0.020779398639196468
Ni 0.04977893138495258 5.026077675388056 5.728082425804765 -0.19743372620356323 -1.162005959978102 0.45862695415227467
Ni 8.029942220811591 8.786244107311386 2.347892848917868 -0.4727004015262053 1.0767656626513586 1.1156911360719624
P 8.569983440885434 1.5544577588741875 3.631084687933412 -0.7663052130364029 0.00787451765207031 0.04460812562767801
P 1.8397123877541857 3.2986511754080783 1.6544433860200363 0.5339150253623128 -1.6694643338107829 -0.5556860984908172
P 4.813009415404137 0.9808646184038973 8.145491959817896 0.3905472277652177 0.8783600594528292 1.4324009090307397
P 8.514726774140877 1.7585004618350182 12.379078701628416 -0.007006513224820191 -0.12226161174609912 0.6033903465453156
P 6.3373880132975735 7.810769500917268 1.3905914457681343 -0.47245331851240574 -0.739656757210939 -0.3229814649001019
P 1.8206483855450981 3.2315292473265567 5.852927222434647 -0.18487877235668806 -0.15281274506007875 1.0267574490540317
P 6.8885257849418835 3.972176585522778 5.8887581411976475 -0.2337186766775265 0.14182513570032348 0.7002003509875296
P 2.5048181650146826 8.537218317544102 10.244595058085016 -1.2047659766534478 -0.1551377936488296 -0.1649115852061418
