# total energy = -340891.78312267724 ev
CRYSTAL
PRIMVEC
9.09913142835993 0.00000000000000 0.00000000000000
0.00000000000000 9.09913142835993 0.00000000000000
0.00000000000000 0.00000000000000 13.31749859970453
PRIMCOORD
 96 1
Ni 6.542257125832853 1.7314827728753894 11.051286090337399 0.009619268257318918 0.9170317649914143 1.3366537986354015
Ni 4.554897684822717 0.10216231523830875 5.817935346230513 0.21081040462078532 0.5838476485266977 0.6455610663760947
Ni 2.696518428400969 1.730345381476903 4.771073933671566 0.15642000279536286 -0.4819196061316281 0.9624706140505037
Ni 3.6030193729948317 4.168066320631813 4.867052479354583 -0.5855386630758754 0.7829047692662968 -0.08985645594251622
Ni 5.102601688415575 4.723841253588331 2.7026530626478467 -0.3457586106956174 -0.6631535826468773 0.017690218190911468
Ni 7.347184468976263 6.339246409899767 2.3137552857641714 0.9134227074839172 -1.219145128193255 1.1147362283578608
Ni 5.055158818401899 4.618327728333521 11.605733460053605 0.42803339763613374 0.3342840343971146 -0.2912453101390855
Ni 5.553017781347477 7.803178329326344 12.458613224557212 0.08032589074426165 0.6270049006404621 0.6180615754042452
Ni 1.944575326164661 6.457407727505748 0.42122062060242826 -0.9723979004665447 0.7603363970474776 0.8497825049254526
Ni 2.6747715048619045 1.4776534092579203 0.4846533938525883 0.11667717567978617 -0.8990489552607485 0.019803150768856217
Ni 0.6584704572824374 0.08815511268766593 4.945319566180365 -0.3556853828910261 0.051035369310260495 -0.78700619302918
Ni 8.623992755523815 2.20302704842558 1.452326887509538 -0.3067017539034718 1.2878666019293692 -0.07657233723910038
Ni 6.86718710055252 0.7126748916818362 4.85063218721291 -0.31917263267697293 -0.3737424975030531 0.47200234701791616
Ni 0.8308534976370746 7.681004294866502 2.664498585750773 -0.030623124202495643 -0.15625956595809865 0.09061416004414717
Ni 7.673224537700853 3.9902692972203795 3.5693289298585382 1.0051038753399981 0.5673445086653519 0.20394170252541002
Ni 7.566828396720817 3.674311065851975 12.75250333305562 0.003329321483549105 -0.2243999703797619 0.3407038218805294
Ni 8.163849691352056 9.191851334697855 6.9218765186442335 -0.5635477606270811 -0.1115254562755176 -0.2704268307318375
Ni 6.670054423366813 1.1028419973662225 0.46162622255538693 0.5244114567472516 -1.5602947793619515 -1.22184247251976
Ni 2.163746099087445 6.086490743762469 9.464892603905444 -0.3103696896733622 1.1822590538001831 -0.2614979036733239
Ni 0.11594749898796698 4.6462802593427295 1.303395947878577 -0.47142359169631076 0.05666762789537338 1.2747658028813529
Ni 6.256562604795381 2.0612170888622643 6.992459389181839 0.7512588602262417 -0.4790052606983105 0.16782258820534968
Ni 3.615648967083627 4.605534349883343 0.45822587723047126 -0.16320514403799632 0.22754442954601456 0.311890754303579
Ni 5.8977474655319995 5.576193268483041 4.832401167964847 0.21486014921012675 0.6027794524341942 -0.2142690525933471
Ni 5.464155666166512 2.961476029461232 8.999206349014019 0.31865609805187056 -0.5619364502759032 1.0445978196695622
P 0.01398081507019794 5.582781039463075 12.719502604063369 0.47329869723183643 0.23949208882619397 -0.96484708470248
P 3.8095514526976317 6.503904287875882 12.64424550983454 0.9867238301709136 -2.1285106348886633 -0.5450077928413646
P 2.4336718257762975 8.4205543804249 1.4234143981600074 0.28926376093268247 1.210988560524392 0.5327829686403985
P 6.446379580506021 7.85545283800079 6.0959647591553034 0.46800531004338114 0.21216203355267332 -1.325892446353839
P 4.652731543354945 1.0203310757544066 12.853783032568701 0.14948136669400064 -0.06546877112677112 -1.14299882274798
P 4.068922187208528 6.148847089793101 8.147525850000976 0.27085646207008834 -1.5829063461138801 0.7106937943196857
P 4.736434451152376 1.3329044303209148 3.9549910556917984 -0.5233385353980471 -1.4549782801106232 -0.10073685030044587
P 0.36553211790628415 5.663517630493252 3.3486986562932164 -1.7837951207455798 0.3108949660492129 1.0694454748408613
Ni 1.3416031997365405 1.2676727588349082 2.733177008130753 0.4361624545011714 -1.9619900533241887 -0.6607390596681137
Ni 1.9751484069559824 6.587543501754998 4.822812503519046 -0.27331392247164543 0.14732446825199788 -0.683973604716022
Ni 6.211540103677685 5.406576364009523 9.19694411842372 -1.3379383217747796 0.3046556700077205 1.0355866173098875
Ni 8.931388704444412 2.4587945269860705 10.262890048736153 -1.2429887675800722 0.1584984825909464 -0.08836753010181554
Ni 2.3359653550807002 5.254393394892009 6.839680426971519 -0.28353868552344713 0.09856761056326896 0.9396582441416784
Ni 0.3897685637383566 0.14156610284748036 9.075834682312863 -0.14786568546744855 -0.6123773805352744 0.5274517862354722
Ni 1.1534513650332845 0.869821436862346 11.434683442417995 1.0875645530390754 -0.16772771449869822 0.5019410435588775
Ni 4.510239148952538 6.7922284578266545 1.6183023196816608 -0.8838264818840391 1.2775366807582706 -0.10854811881474855
Ni 5.904853886989745 7.5250087897812605 8.244876544667125 -1.5847989351509029 0.9393301713782983 -0.8826599723797638
Ni 5.659186444047815 2.9975631837524164 4.917526269966944 -0.18161887065849366 0.577835895114979 -0.5602351513140803
Ni 0.47195828601923967 7.3466021245802375 6.723951307132061 1.0416135402302575 -0.38645120331897315 0.6359394841259306
Ni 5.367013341604563 4.58097579480722 6.9370183828540055 -0.7479894454463505 -0.24742754162318678 0.9297055038043407
Ni 8.205023259977272 7.126230266340652 8.978577708697946 0.3393686480088736 0.48259040694640754 1.1324886672452754
Ni 4.354107156899478 0.37026548595022624 10.711876668158439 0.37656402611224826 -0.03310423875313653 -0.636230275893472
Ni 8.24437700236491 7.273153937631564 4.631306729059932 -0.6121884044529199 -0.2025147402708964 -0.0527567228767414
Ni 7.437338660785909 6.054416306325145 7.015391929514687 -0.04558051684327634 -0.012533613690636478 -0.8915883852176452
Ni 2.2475581964591296 5.183110801166054 2.6243859758220642 1.8689464579029427 0.37395589906543986 -0.7831515951697803
Ni 2.248095045199215 5.049344473572836 11.749375984638162 0.49675358582066703 0.21394329382281216 -0.6226533085399858
Ni 1.1207945831999357 3.297916405133584 3.6143022956678195 -0.7397452031596873 1.257808091981092 0.9987799900044992
Ni 3.6052577592670536 2.7872731628690164 2.6950753061945694 0.08058582927386766 -0.030497397257908763 -0.1821292346360089
Ni 1.2531414463278427 3.569116010188741 8.39953265764151 0.044148926603072354 -0.6815739941355939 0.08581519599360705
Ni 3.4684432227258912 2.980957269334511 7.371661131871696 0.7471381531896487 -0.7403267866947703 -0.13469083864838738
Ni 4.044227145164586 6.820736035838324 6.099360554914625 0.9038520330763465 0.589740616972365 -0.1973241972088924
Ni 0.8614575154744346 7.2366755206993 11.476234624987509 -0.48320232949879366 0.14175083081896234 0.08678167367193441
P 0.575957715844384 5.642662421810601 8.203432731845629 -1.8932724362428166 0.15554119973483535 -1.1162413521484778
P 8.632982697137454 1.9206264128781259 8.067514459726475 -0.6561658384751344 -0.013660271095911957 -0.046016833049746554
P 1.8300081653778972 3.1354241203801867 10.692166130179224 0.38139795716578184 0.15781276937783142 -1.4679227560864334
P 3.943763637719057 6.2894559640396155 3.761847437618864 -0.08045264613011305 0.04124306581018704 0.6019050202490409
P 7.121926377288778 3.987484963076884 10.643824266004184 -1.1137563809430948 -0.7337267648797492 -1.4235146622847032
P 6.306489537623351 7.68645467444805 10.40424232200072 0.3513029375526143 1.1108762311818223 -1.011586654850864
P 2.3994226959850673 8.567296069092054 6.0815954111833825 -0.051180893749189264 -0.7075315945416202 -1.1075232555491894
P 6.797251178242372 4.021679498080987 1.6111513124810954 0.8676107913561252 -0.5991300286070649 -0.8234063289247688
Ni 5.107569814044163 2.8994836486781157 0.6096954744628545 0.0764239845866942 0.0071589796422844455 -0.11406133532349388
Ni 1.4828308149038314 1.126827307177509 7.109613432965321 0.06042863759970238 1.1002071815037504 -0.5317290734545874
Ni 6.893674671440477 0.5648531361426792 8.993693185427274 -0.1635501860822409 0.09496575214462355 0.5669069069073011
Ni 2.500595935663252 1.3881361566314265 9.247231376846731 0.9312386526194156 0.8403961786145462 0.9017403860499824
Ni 6.390265238470284 1.9542750000109552 2.661448556976591 -0.4810796267288359 1.0001858692130903 0.041878642511656905
Ni 4.21307972261832 6.867632957980726 10.266951900898428 0.818275692566423 0.4637457634360787 0.9250001279088714
Ni 7.945324956743612 7.380278009106631 0.1544550221751311 0.3632999620134904 0.3867877607227855 -0.5053297575254523
Ni 7.825207325932233 4.030287276184734 8.34639555133045 0.8116656434490732 -1.1804060597518446 -0.5140491396763212
Ni 2.939583519823161 8.423939257226795 12.496581169264935 -0.002639237395059971 0.8851786250365594 -0.11608170818763233
Ni 0.09559001278129348 5.0351225315261585 10.387475352960788 0.20537072166245277 -0.7088397718300824 -0.01850294390019394
Ni 8.819978942179848 2.4077029053660506 5.716962287438462 -0.25809324886714907 0.5602292377768093 0.542483226647298
Ni 3.566741136948701 2.7449713019765007 11.808372931434224 0.558748796576541 -0.3654095521573255 0.014023825082917784
Ni 0.9792484984410688 3.228553728088274 12.777727034621577 -0.5566075818638221 -0.40102987246409644 -0.8396469591533475
Ni 3.147189297006133 8.33646020998639 8.211649247308296 0.7737539560049642 -0.3939076595970184 -0.9000689118848305
Ni 5.8394948276671075 7.709530071140547 3.7902267178807842 -1.0271186890481925 0.8038217219246221 -0.10836762737282628
Ni 3.034278178095566 8.56359272269858 3.7616872929099574 0.8386725110552202 -0.027179131517953193 -0.4461738159905865
Ni 3.665894369503174 4.32753769383083 9.537392661384338 -0.16931948446585032 -0.5033631207173848 0.024615484555835027
Ni 7.28833128845297 6.091413373735119 11.387925736982767 0.0647213514377853 -0.30462250277693986 1.018706296614781
Ni 0.42504407552758106 9.287392212170737 0.6391029565490067 0.46557921710039174 -1.117388064158411 -0.5444552627720043
Ni 4.673204588527706 0.44871000583417253 1.7847308885869408 -1.0852220209488277 -0.8879397327214643 0.18007209499666404
Ni 6.098437903012172 5.540215303766111 0.3350618572973862 -0.3076864864142443 0.4880668566799466 -0.7018731107042622
Ni 8.051730196854836 8.768423264869245 11.214226052345241 -0.2195470131628348 0.15246358925077613 0.15319943897553615
Ni 0.11935512361783301 5.097879239329058 5.513764129402905 0.4593694887452541 -0.976045267411145 -0.04068822174798154
Ni 7.888728360754916 8.960069165948651 2.635319491857437 0.8822735355746225 0.34307797853966077 0.31052035631861363
P 8.29348501338597 1.8261592328854186 3.645465000160116 1.881928214874591 -0.6398763572864915 0.17911615884129797
P 1.999188311554396 3.3063058040888214 1.3278189259000013 -0.4826762817919945 0.3651334156778034 1.387281905204914
P 4.777280451054828 0.8334749573323066 8.272683489577327 0.029808855831316403 1.350963530389854 -0.0726604037792039
P 8.48554947450002 1.5424483224469079 12.525959534131285 -0.6523248674624894 -0.33209474005527967 -0.3404364271517556
P 6.3682089444708305 8.066197815443585 1.5180617409502353 -1.069665047050835 0.12495947029323638 -0.7747397169570012
P 1.794776329418375 3.3110646497000897 5.975268423600375 -0.06352090337178093 0.1289613923637779 -0.23491449675784054
P 7.258931995584887 4.202015179093842 5.8145259017744095 -0.06907140087636492 -0.7011750561959731 1.0486380511772069
P 2.2096148194056147 8.330973433880091 10.151662269095347 0.08397685723328763 0.5523853162523583 1.0229822982823156
