# total energy = -340890.72203530796 ev
CRYSTAL
PRIMVEC
9.08429596846434 0.00000000000000 0.00000000000000
0.00000000000000 9.08429596846434 0.00000000000000
0.00000000000000 0.00000000000000 13.29578540455464
PRIMCOORD
 96 1
Ni 6.577738665381469 1.8375985880655947 11.27889439610952 0.15607521786143444 0.20717023676503674 0.8108027812281456
Ni 4.734171695037783 0.4818673813684363 6.042070451130588 -0.9715563784018557 -0.7644406490238383 -0.2440815079690893
Ni 2.733982382446657 1.7048316063391091 4.547371322458808 -0.1983904336898777 -0.014655030909013472 1.5720496059050346
Ni 3.4109713512597177 4.503321572585956 4.792984333860598 -0.2075492173710103 -1.213405911716633 0.9768952741162661
Ni 4.922262037606847 4.712778178652845 2.8040540973660724 1.2305790810618096 0.029311347369607586 -0.3177580117176334
Ni 7.145370882499461 6.29210115553365 2.8240513575011734 0.32390346249373897 -1.4839515274145216 -1.459302875627906
Ni 5.126086380336726 4.566375669073369 11.487956743742817 0.6285614464943046 0.9134232217045494 0.5856687608958364
Ni 5.705428254618277 7.893762415552697 12.476551590105602 -1.0252919202520987 0.24239177897149225 -0.18969110614366685
Ni 1.93065811326615 6.2670557522753585 0.6172342885256519 0.2759205068565571 0.32307865259959845 -1.1566282406059565
Ni 2.9384335415801695 1.6701477653379653 0.36740525548723774 0.510285815979147 -0.27390810441221863 0.36647450308673013
Ni 0.868755725853881 8.757115710750899 4.353677786298987 -2.25942529432407 0.9349140445884737 1.0980644241291346
Ni 8.531461805442252 2.616331668773054 1.2657757853389526 0.19709973990291219 -0.7027588557433252 0.7723665887391342
Ni 6.83594160220062 0.6406399764092161 4.736996002572424 -1.8083093038368598 0.8097697119779409 -1.0329286108617501
Ni 0.5902621061483608 7.410332535323025 2.3297403078762247 0.8320506348633283 -0.9068111157046707 0.5659532847447801
Ni 7.676329797856944 3.930075260722363 3.836179980316961 0.2893617199631275 -0.18303529139004607 0.3844799385252152
Ni 7.610341473856863 3.8318467712657442 12.539121493631946 1.0888642456871052 0.42807350684544987 0.9840527110966536
Ni 8.074476310009418 9.05096542391591 6.34170413537088 0.8693686545874963 -0.268620373650718 2.4397940946255465
Ni 6.965656260570274 0.555943453834552 0.3816194529766276 -0.22383252791206612 0.8688186956212973 -0.3160124897814364
Ni 1.9137249860722965 6.5722790036628504 8.986873900859003 -0.25195705406242414 0.006735776061936786 0.9408036706000314
Ni -0.007017618432002055 5.073388380952849 1.5859345272947996 -0.4419083558460132 -0.8226380833001768 -0.11412072780651958
Ni 6.486287060520673 1.8865447733233642 7.187195888354193 0.32274775162274094 0.9977178672885721 -1.9004422145183786
Ni 3.5374156631756226 4.216403177043752 0.9060558440180239 -0.33560969518707356 1.0005080284391996 -2.0509687346474417
Ni 5.937005120726493 5.540829900741973 4.920317998326009 0.6611224111494615 0.21412532792663122 -0.2014209929860854
Ni 5.4552194980194 3.059527203325914 9.447333230969374 0.694320752278301 -1.09453224260616 -1.2663472398003548
P 0.18253529574554475 5.752194208906882 12.587505360985585 -0.7859245299292271 -0.67397201341862 0.07565136808672777
P 3.737560866145033 6.035260863070227 12.661775837379784 1.5903085521152223 -0.42032934412365675 0.7364225665443576
P 2.303441271810663 8.40709779724276 1.3251798118121538 1.4075108306572792 -0.2953873573319171 0.41360925179100383
P 6.33171776910253 7.6052088467836185 6.119265162312181 -0.8948261754286525 1.2914993135859498 -0.6242391649698669
P 4.907400129833702 1.1288054999898296 12.6050952827589 -0.35107925157758246 -0.5998494232715927 0.385517121540478
P 4.010216917430611 6.0663291543808375 8.364976643348047 0.6980151704107528 1.7823061949048788 -1.3375835095385222
P 4.603348752592137 1.0263709816218618 3.7629069595911546 1.4972554436122796 -0.15709543159583264 0.4694039901631207
P 0.2525643144751466 5.6779755129981995 3.823828063447067 -0.5302787141613061 -0.3557182930114906 -1.1924881877273592
Ni 1.3246265782037279 0.8984186766189506 2.356876916005773 -0.45154845003893845 1.4661399531543977 -0.06578990191161573
Ni 1.8184307241283464 6.682843966686664 4.946417179886063 0.7931462444886469 -1.5863716789546614 -0.12161240819787443
Ni 5.952230400327833 5.492310677382331 9.3562041186061 0.15208563708606712 1.4526138936435047 -0.6308417578880491
Ni 8.949412082231314 2.2685394077126024 10.353108370250117 -0.33813888936683056 0.41711752205457847 -0.4256433001374024
Ni 2.5390969866903594 5.153548206252508 7.049731417318726 -0.7890517627042991 0.1289390237662747 -0.09494441198838488
Ni 0.5166347978900652 -0.1488480019832234 9.461852660794447 -0.12281388470514333 0.8201186593124328 -1.0833155479547343
Ni 1.8181218580743814 1.2152607422129542 11.66673204949612 -0.8998431690272697 0.3697999679155374 -1.2533505704303705
Ni 4.204439159600455 6.888230808277777 1.7051441061113561 -0.5816894645331143 0.14053521324430635 -0.5351895211993623
Ni 5.315384934234536 8.127628524178537 8.091442140667809 0.014958678192361336 -0.658702488854059 0.5202483265084976
Ni 5.23951289650757 2.9521871652773233 4.892756245157472 0.5292605573094369 -0.4224854712347111 0.057371595940933454
Ni 0.757021613972851 7.712221850186834 7.027473984412255 -0.36321614405043257 -1.3181071459814653 0.636334148461188
Ni 5.094709222972149 4.554411651630072 6.900246606206592 1.0025939644339508 0.45042076419239846 0.9961327821896392
Ni 8.22751035545344 6.994944029922733 9.238629713016417 -0.5083058094346408 0.39418173919401145 0.6650340874990418
Ni 4.613032611813515 0.4558426910331619 10.468981287254278 -0.328148353813022 -0.4631500388336088 -0.652685850346334
Ni 7.970869917495524 7.140156496764873 4.814975596902916 1.135921089965592 0.6064512448588265 -0.0663696856744857
Ni 7.5454069281585445 6.179873766395846 7.132537497957209 -0.41191592324898096 -1.1660780731649465 -0.5237650814125044
Ni 2.2746531387219715 5.171825809210681 2.7092422115240495 -1.1172304555346242 -0.3382149940204046 0.5457981499531439
Ni 2.033410581983788 5.401376877376713 11.398848887173875 1.1198923186375036 -0.3441665836181492 0.8290640414311785
Ni 0.9375629068111795 3.0848269668639405 3.8483583871388922 -0.25943150806259835 0.5454960453316928 -0.8178889986509655
Ni 3.845645816441422 2.6796673784273173 2.5661799974752495 -0.4913876935230634 -0.7171200095610036 0.35847194449722775
Ni 1.1381169030873082 3.2940746341296174 8.159383588244435 -1.4546486646853465 0.9396160780498334 -0.3920402673709764
Ni 3.6319740971674794 2.9044491913482995 7.217510183121301 -0.37324396060007975 -0.5533785334035631 -0.2769648889606714
Ni 4.267220727216722 6.820498299502364 6.085520637486918 -0.8828877721198537 0.9934218110163794 0.148432356604196
Ni 0.7534696543522519 7.487131171211887 11.26129084789265 0.6987708176298547 -1.3246811996545573 0.28436863762391024
P 0.3267684755107008 5.435034192963208 7.994236542907557 0.34208578982972054 0.8978749895573052 -0.9152322498888302
P 8.760149865516322 1.3773881676575377 8.148215355104883 -0.46649607248770625 0.7662643324961383 -0.8504823592059546
P 1.8810669430133355 3.283863885757358 10.565495570111393 -0.3303489610087666 0.34614761860391996 0.023518137726598207
P 3.7783221009727264 6.308589152237965 3.8136836304334527 0.8128038708185744 1.5162533248710208 0.4128906284574244
P 7.2237774387280815 3.9345174813220383 10.494203834278816 -0.6484517576603283 0.650296524178551 -1.138554670933697
P 6.126830563775186 7.9478866493622355 10.212917702073623 1.6363300131506595 -1.27886696953392 0.36750140168934775
P 2.402441926402195 8.531152939388287 5.883465007130777 0.9279232150929374 0.6072027783128704 0.15602045336409903
P 6.870816213411566 4.039631866922939 1.831601136041248 -0.4807646665915784 0.2285908685326579 -1.1035035928668349
Ni 5.509761609431362 2.98289208475974 0.2611253547474039 0.13385034502496304 -0.26964084449543235 0.6000085745572763
Ni 1.5296863851494658 1.1232277424270476 7.017927298056022 -0.4489194970565237 0.8286133270470052 -1.3139887529377174
Ni 6.940538182946344 0.6925222060387956 9.07436021064463 0.11388572897757805 -0.8522461359745968 1.5595255052960946
Ni 2.509382255439772 1.7539049717367468 9.119525512030037 1.478441653339886 -1.1065398085899976 1.615638546239579
Ni 6.27108009527261 1.8085651789928716 2.658611797842599 1.2531747069741384 1.127883050152464 -0.7367228713935956
Ni 3.7570557647276557 6.881735536848805 10.613174496118335 1.5646057480324798 0.36338223731465163 -0.8316528852042774
Ni 8.089747011089283 7.286640765005692 0.4670663383765128 -0.06718343982503268 -0.6231731855991978 -0.6663816026658717
Ni 7.542327351914598 3.82190855176463 8.210200229987834 1.0785052710502845 0.2518153862782373 0.3047698269880816
Ni 2.9477903661561724 8.214519812595494 12.486298130967343 0.9016524543218666 0.1845519851448886 0.4851720516306547
Ni 9.379535315264883 4.9387682029025735 10.05114819787981 -1.6903758871524694 -1.1069259882848226 0.4562137167250917
Ni 8.63451405591815 2.3142879208822627 5.933110683157821 0.1876416798138059 0.33550119463366734 -0.2967274162995793
Ni 3.8830821990411377 2.7082284041233877 11.14378275766161 -0.6032466218785998 -1.2492249782977711 1.6587484900551757
Ni 1.2899245686111742 3.4709822086860034 12.789508302426638 -0.9387524444979575 0.25041053551091064 0.29127539204607256
Ni 2.7796309683635636 8.636984984349871 8.139161037575853 1.9501832904972478 -0.6207458071046277 -0.35238588620414796
Ni 5.60262128012641 7.879972454672724 3.743188587334192 -1.053670728505108 0.2020570839081875 0.2128868275338398
Ni 3.055693630538464 8.596641627124601 3.716278178167694 1.5206218862523617 -1.612537795827068 -1.0623613143005703
Ni 3.5869069061756838 4.40176823090136 9.489720554728235 -1.5325014112987672 -0.41874914412073044 0.08824694536355125
Ni 7.232116822185141 6.188240402740019 11.47202833965392 0.6877610967829123 -0.2692814042734846 -0.18627719536611148
Ni 0.6820870755626263 8.891708635914062 -0.007023977438995456 -0.6937337694265795 0.7307815662084963 0.36465621893106875
Ni 4.625432675450644 0.31896143178194664 1.5605393786518715 -0.3075255353563478 -0.6796240694980746 -0.2681994840632155
Ni 5.968236929359792 5.509616260700084 0.2869601833024468 -0.2841215546101106 0.5394207856718903 1.0824359735632585
Ni 8.028464352264317 8.822059340744923 11.445636643772172 -1.3032988773240393 0.43919429934895976 -0.3875989437701712
Ni 0.38066469349804705 4.672898120508522 5.82592053598836 -1.1614567723428515 0.7970944305031176 0.26046946240880947
Ni 7.923104690679385 8.821087321104502 2.480767632399043 -0.5984432869526854 0.5143980383753076 0.6057629605425503
P 8.583669252858066 1.3506530853981433 3.7846847416844085 0.285801770526011 0.8935442233924353 -0.2803865130477107
P 1.7422770732345298 3.0694018327570936 1.7021126766346455 0.10046251359313667 0.3956002168080929 -0.18399534131047024
P 4.682954435853799 1.3283874766255388 8.14740412749844 -0.3598305154076512 -1.2907441805874802 1.270165327994864
P 8.583687421449474 1.6779330067570277 12.504791940163292 0.4465304279990568 -0.39469338872310733 0.31435464246303924
P 6.2342432761894155 7.728564498159872 1.4422872846026067 -0.4037213032533305 0.2820065651496369 -0.01352528817994445
P 1.9038140194582978 3.2039856736245502 5.978821950715091 0.08122217730628592 -0.874060660746527 -0.5007513941261506
P 7.099949403975176 3.939359410932727 6.029279762778148 -1.0424270372704885 0.06690858889709123 -0.09756462322005133
P 2.480357930662754 8.693316702015688 10.27927757376803 -0.1487534873890406 -0.21986891527862779 0.7811811017069707
