# total energy = -340866.1635843593 ev
CRYSTAL
PRIMVEC
9.25301820241201 0.00000000000000 0.00000000000000
0.00000000000000 9.25301820241201 0.00000000000000
0.00000000000000 0.00000000000000 13.54272744864360
PRIMCOORD
 96 1
Ni 2.657540804310746 2.6664329546441023 5.38987005220566 -0.4357834738951979 -0.31351929104593745 -0.03836934380681779
Ni 7.252478525164848 2.311496435770826 6.086819399660227 -0.3375441932056251 -0.4494992808193936 -1.6774391244861433
Ni 1.0413531558965627 8.703758886127337 8.906212144866918 -1.340468287285485 -1.465087343520167 -0.762070606129765
Ni 1.4366976045365063 0.36751692219609755 4.896535217254294 0.0894039417861299 0.11118015712095691 0.29402467265643556
Ni 7.311910660015157 9.215848663337475 5.019557793260648 0.38735828851427484 -0.13850018509214856 -1.5599985882777714
Ni 2.8232716103677142 1.9082776687815732 1.1033826129098003 1.6036230098359414 1.0352228062125655 -1.2414257939683266
Ni 1.2388588258918722 4.948856407743331 4.877859850950638 -1.9086517469123645 -1.2962715381636127 -1.6395379785649957
Ni 6.168135847469352 0.19782674972118625 6.9698053012535 0.8462768057650394 0.11188386805620086 0.026520157777715617
Ni 5.785532804666071 7.235406706886967 8.244162405541719 -0.8026971214018757 1.0229599296848124 2.040862242341059
Ni 0.9788582720760743 0.8615901479868003 0.03394469666796876 -0.28634401618272615 -0.42187611978548634 -1.497446219466847
Ni 0.5199150545638535 6.458421529319568 7.98691832579908 -0.4692476670909144 -0.20312537727170182 0.39175333225817693
Ni 3.0783773176420497 7.095343772864058 8.38428918538908 0.8510325752824699 -0.7517921070218923 1.5762122219231565
Ni 7.286437101359871 0.14623377175164548 8.938795722581675 0.4054912506695597 0.27943211955424135 -0.04507426663081915
Ni 0.6422084927489089 2.4398450489591577 11.543333388974073 1.1771605562313534 -0.7020263484526749 -0.5881241644148646
Ni 3.002955967624164 6.625503276009908 1.1506655350778037 -0.6821576345532058 1.631650862507435 0.43954602626142364
Ni 6.675488079444655 8.59886667366227 2.520612792798701 0.38648797009417957 3.219286495776185 0.21283026326429152
Ni 6.795481217345763 1.8829151463427283 3.6243183360379856 0.6911351554614678 0.47447600536938933 -0.5441166484856629
Ni 5.489334444290345 7.245048351681304 0.04097513977232276 1.0147347135615425 -1.9304251340337144 0.5559038709285781
Ni 6.470561488983838 0.31050352626060446 11.131092929398948 -0.9142110077131674 -0.6165824197555575 0.29659860403119886
Ni 6.854210122825278 4.373115119458104 3.408094735856051 -2.941038883448348 -0.08774275203362308 0.10048025420494952
Ni 4.921300920029766 1.3862779092540307 2.159875556918161 -0.06999108447715688 0.33120796657495216 -1.0765486615445459
Ni 4.964318200882809 3.086316407117616 4.808399295152054 0.5623241726326251 1.0495893593468828 0.21824963450764992
Ni 3.4949019245682083 5.661810700496134 3.2845179040692924 0.7787506378886072 1.0681540097229476 1.833922890639906
Ni 2.492744553075494 4.180060151138491 2.098729763127437 -0.45944327940598295 -1.838057995854202 -0.7946624240228571
P 7.926440599910612 8.889735295648805 12.930812339969279 -1.2742495253665669 0.7313531224412501 -0.539746030221793
P 5.458447870083536 7.781538337454461 4.214483228838962 1.5591023017157473 0.530588274981925 0.29420053611266755
P 1.4172292545870975 7.983568733269761 0.06766732090305452 1.0524659095637294 -1.88685213453877 0.18996801395413734
P 4.779220828074836 3.6901961232527247 2.5975488618692095 0.3649061301583457 -0.11365664368590749 -0.048441126220523024
P 6.049798999796829 5.84963771362496 9.95306529468455 0.0037923771628966953 0.36023546415555374 1.7653438560189274
P 9.09117349830975 2.663564519052697 0.04990985398864841 -1.237360108539385 0.5710520394239261 1.282953738008784
P 2.9467438830506567 1.8103529788982111 11.685585587064487 -0.2115413692495389 1.717191464683417 1.3028083108408661
P 3.2251949548318164 4.94257360849635 5.38800094256223 1.9743382904768965 -0.4942655292914907 0.6239069784414286
Ni 5.082127626527234 2.261113752560498 11.177192390560046 -0.7034646235610982 -0.2340629473908227 -0.5659401721186575
Ni 5.463083632119968 0.34807170479178073 13.456351378895894 1.434389143105362 0.9710416435489663 0.007739020515470542
Ni 7.2242660731706705 3.6487611084839737 10.245384789899251 0.18621600311087283 -0.7353339614658692 0.5345634575795891
Ni 6.99455064738929 2.168574319174548 12.411435811055167 2.2903878041438555 0.4739458438975322 -0.7237107754046439
Ni 8.652238081698483 4.60722572880696 6.726130772461816 0.1243971700318632 -0.8234168704477303 -0.9090461756827765
Ni 5.170521707832702 4.229841388176428 9.173315315327757 -1.6637644552125281 -1.7901046079033751 1.027863794744333
Ni 4.0672103431617845 8.04727576245307 5.895095015334305 -0.07076498652870393 0.034622475169875856 1.8383726988811433
Ni 8.266211422221588 3.993186198867455 1.8753295221561668 1.5939124674163967 -0.11199879636751034 -2.727088390536684
Ni 1.0378092499884715 5.310843726360641 0.692502346986084 -1.1251795351783718 0.22960671139168198 -0.722477160107859
Ni 1.6653211741895448 1.5537112706297687 7.577765598342833 0.8048928435016138 -0.003444506905174713 -0.06654297802755636
Ni 5.815827185718525 6.6611181424335175 2.355649061936983 -2.704173947832356 -3.3696757189964357 -0.16041241178420762
Ni 7.783648025566849 2.483898667832321 8.265898670211945 0.8084358236578658 -0.2767054646516976 0.7066401930756024
Ni 1.8610965298119746 7.0745337352993145 4.849637220636621 1.5589912300591797 0.3925400898255304 1.3350229479001976
Ni 0.8094586443675184 2.1002315279548083 2.193718470387725 -1.7633543363927244 -0.0529302723401282 0.7906928978521479
Ni 1.7239853085428016 4.819258637120032 11.016358281648149 -0.4240355893306504 0.8228301447063248 0.1608160749805295
Ni 6.510099635055047 7.190483304318346 6.142981517936335 0.22309333575319643 0.06389859842617382 -1.2649161637807829
Ni 8.912618009253789 8.350691476897492 1.308619179474849 -0.7655040572913461 1.3816463041856915 -2.236285622982813
Ni 2.55290767635071 0.5668991042492684 10.090496670377796 1.0805683242269004 -0.7184518409985498 0.5924901546930441
Ni 4.60154437573237 0.1291314185142442 8.769579304630247 -0.5234904875948792 -0.2830959415590737 0.3904811504139727
Ni 9.160534121513537 7.760422950294504 5.770664129982751 -0.22341729475151845 -0.5742764598984949 0.5714310200298998
Ni 7.114728845651135 1.460607403143575 1.082306088425597 2.495498587276702 -0.45603631060696304 1.0455987501302508
Ni 8.899154868010257 0.5070959233756828 6.953323825526367 -0.7937188291626652 0.6109599313624574 -0.19326185421406072
Ni 7.657640425941826 7.246103195737498 10.098419104420897 -1.5548926345097738 1.833737256991661 -1.715010397871698
Ni 4.533284861674961 4.921152871741177 0.7346831550086008 -1.2673612828871657 1.8614141540816391 -0.26506273820644677
P 2.722265665478101 1.5212701893927785 3.339554855352127 -0.049155635789044375 0.05684014891749566 0.21046690523843753
P 6.493832829346368 4.298711601424266 6.353312796232442 -0.9805467548259243 0.958724259634194 -0.5059529929317479
P 7.932270001273791 7.743545445395396 7.6114188249426435 0.8095707085932574 -0.05663883153996697 0.8767376933580577
P 2.6965237692997475 4.284554483827975 13.024974752718883 -0.6369401574763032 0.7692375561918494 1.4380493655657685
P 9.18867254936342 6.193489116890161 10.613164497807594 3.570839344556076 -2.500627166752519 1.557502304218479
P 5.791278928866918 1.9016247488131202 9.117031982515366 0.8346186527008206 0.8337326505514415 0.2866569194374547
P 4.44706523960814 8.34654612481701 1.4468102279489155 -0.7261530662975494 1.0570463298455601 1.0282255489591257
P 2.109808401622887 8.324394399636931 7.067718887515218 -1.6131111518320347 0.851784880067462 -2.3333239413857494
Ni 0.27621831852888185 3.8308697564660625 9.425155632536908 0.11433695758238374 -0.0886215550941506 -0.623607702033455
Ni 1.6440207266688514 4.43838590868963 7.011259747360128 1.8899929941605969 -1.0476060103682667 2.354193585745907
Ni 7.975870222263152 5.853773812687406 4.784929940203536 0.8080139056290988 -0.23888916513487246 0.017701531044821125
Ni 8.059600782478077 6.659637659547631 2.531067777878472 -0.5727386830977297 -2.2200113113028217 -0.848467385658455
Ni 7.152916051088972 5.2184338352272075 8.292062504012776 1.0742804343356596 0.3461761578490103 -0.4894614230346281
Ni 8.691803986823802 4.320576483045203 12.181575112890611 -0.4511026207507715 1.020493213311875 0.1554859210168677
Ni 6.106566265452543 4.7809974075379005 11.956996037421453 0.20657811170699258 0.3671157362151548 -0.2955434232938071
Ni 5.496542545341005 5.6915406474483445 4.732343188096845 -1.2308230787518157 -1.3300216380308643 0.43694458408283454
Ni 4.666833670999969 0.7468888111009321 4.296700920604871 0.1108417999449317 -0.1259010082708993 1.1370253787733644
Ni 8.713539326192224 9.227331658721134 10.788434240158692 1.2130788673945172 0.8334739975734161 1.3792397516267279
Ni 4.617986988783748 5.431604864758804 7.172688825331793 -0.590716350622073 0.28195617152767566 -1.165051174562329
Ni 2.0855377353123834 9.090525787047174 1.9711713576794472 0.03357526485228411 -0.2973303399909008 -0.6011989953209518
Ni 5.706530536667946 3.1927168615226793 0.3888349504510609 0.4781549968828733 -1.7489900972512524 0.5428984598078457
Ni 3.5344400706394175 9.191309659503904 12.526426767405587 -1.2842441746854334 -0.6249035380267431 -0.5355096235429423
Ni 4.6417764981563385 3.0242194030727103 7.367229828348114 -0.3357570193982153 -2.0050665727986887 -1.243776296478374
Ni 4.005566737000681 4.303097531973705 11.37230245418563 -0.6691830766704089 0.21494910937950723 -0.20067100219393827
Ni 3.447757797670757 8.14047216011963 3.6182372525842066 -0.20326704505588866 -0.0703546384641627 -1.6941574656820888
Ni 3.3685519632758236 6.657611248597574 12.316541484578854 -0.49824379721294837 -1.138382407021891 0.42371497276643805
Ni 2.9080107495486485 2.85116945974864 9.427146882018425 -0.06755676400405139 -0.17399452134401647 0.5495355055083891
Ni 8.724559670674044 3.398170874011593 4.159174238825846 1.1206716200056892 -0.9002571166362366 0.9864659485238366
Ni 8.212988062473965 6.583633369393428 13.018542054579704 0.04836502156694896 0.8691315988760259 -0.3758006655836625
Ni 1.3670593907916153 8.02290331294416 11.471163549494316 0.29674849934550185 -1.040266282173744 -0.4937489946663884
Ni 0.4756680476137213 7.954902883391782 3.3346794401485416 0.479424093403284 0.762752719798454 1.6904082830523017
Ni 5.581559275063043 7.332803974742232 11.400037450449108 0.947053251054169 0.13320602657274477 -0.679124761264153
P 0.6147594147427676 1.4493834922649471 9.56383338975971 -1.320519869188016 1.75844275802372 -0.6296389958291995
P 6.841792572619903 5.116807938129129 0.3124401829357049 0.6300490867834246 0.4736586516744165 2.035570654924817
P 0.704126913545705 5.794036328241882 2.9872822803716432 0.4841256126440114 -1.0531184555460638 -0.8099229497263535
P 0.21795946636563668 2.618067429365795 6.243291635869582 0.8552466133638175 -0.11480027037204746 -0.6105135878536583
P 3.754291779193578 7.878519219498071 10.646560490505982 -1.8441245137632563 0.9942597335366424 -2.09002147767453
P 8.488876048258934 0.5542493032911711 3.0601960625015585 0.2099495992823868 0.6378328444939015 0.15716048050581322
P 4.426125659790881 1.0170547305319488 6.3805610837471844 -2.241640973757456 1.4424971169244771 0.1468930371415341
P 2.9984497478402465 4.854975286742047 8.847423094770164 -0.29500734828467906 1.3295763229633295 -0.03042694903128953
