# total energy = -340893.6693137641 ev
CRYSTAL
PRIMVEC
9.05175704702067 0.00000000000000 0.00000000000000
0.00000000000000 9.05175704702067 0.00000000000000
0.00000000000000 0.00000000000000 13.24816140394221
PRIMCOORD
 96 1
Ni 6.285974633672968 1.9761434090456707 11.399645339655821 -0.8377811095892024 1.1447618281856735 0.956231060898695
Ni 4.539718700394228 0.1520179247262487 5.784941773151999 0.6231585303111784 0.05121997451724082 0.14508040941282757
Ni 2.6930878323287204 1.5394232829155359 4.748591616813969 0.44352969349952004 -0.20114228540340198 0.5149256287440036
Ni 3.6262425263590585 4.401009574172531 5.273338270657544 -0.24994439450776954 -0.12765861439195433 -1.1121121604714523
Ni 5.200379297858529 4.618812954174258 2.394645063605301 -0.46667604970899623 -0.2774994213079027 0.9009140334939452
Ni 7.290502432653586 5.876581762310734 2.5159449453436906 0.6832200143794491 0.9127596199786217 -0.08751932316890734
Ni 4.829990447958659 4.5779804777721385 11.362735894792756 1.208971272984047 -0.38074541118344746 -0.28822966324121324
Ni 5.578181536845813 7.7382023401793685 12.506370192132966 0.10272174194095857 1.5082433100823507 -0.15583790503964776
Ni 1.9478385645080012 6.306250569638552 0.4580940402352829 0.6652307768908802 1.4090995153006378 -1.295087802268157
Ni 2.730326761151225 1.6072571508289653 0.6235556346472835 0.06917990142977118 -0.6697448627111499 -0.8664442818518496
Ni 0.4348219726604994 -0.2900499795148086 4.844031533614825 -0.044552332689078114 1.6563707338516183 -0.39996877818943377
Ni 8.679223011153498 2.3535926295049836 1.7238374464010806 1.2472935656030133 0.6309466588970295 -1.4411493446473307
Ni 6.830157220420695 0.7052070098158303 4.661869447302601 0.08644820159191563 0.2427838722035883 0.1294452739787319
Ni 0.8408032367613819 7.461589694120322 2.241403341315415 -0.5071040758170557 -0.025261602780266172 0.4637827873216012
Ni 7.805212498194196 3.8945728146464487 3.7114331385644546 0.01967665249332095 -0.284398205310265 0.7684405142118508
Ni 7.852028186057588 3.811079406902457 12.48714697552131 -1.0535776545706692 -0.5679194073322155 0.18893494470393268
Ni 7.744357535026063 8.945552861115711 6.953907412813497 1.055152712367273 0.08988756629076777 0.2870706099361056
Ni 6.783459205399961 0.793010864303934 0.3880913713141062 0.3965972906140396 -0.23876935172755656 -0.05515453368495663
Ni 1.828699337195944 6.568878250935621 9.2129173269176 0.4425650155934055 0.2711238567988621 0.6922026774940336
Ni 0.335869974094176 4.824115857582917 1.4442748326941848 -0.87560255131235 -0.8180306664351524 0.04102323648989709
Ni 6.274288815221376 1.9495131395765875 6.913791835575876 0.09611529236803447 -0.19086198652331643 0.10643647178838445
Ni 3.5402779889192613 4.367174106029964 0.31397920465704793 -0.35557251146224567 -0.8026811805622757 0.8268703762139694
Ni 5.973924358459789 5.542590027820514 4.704355679731913 0.40701411507198937 0.20896075300655628 0.7031429785556214
Ni 5.303668898440346 2.744881986612233 9.02773466925193 -0.5731132928283291 0.8560716803682741 0.952230167269418
P 0.22284249319460164 5.532633094980271 12.504674798022986 0.5165307684475943 0.8795623072910466 -0.4709466520598921
P 4.140481900529039 6.194968267513158 12.668461817366401 -1.4104382887167193 -0.008773118206939729 -0.615029987666773
P 2.6154509114462163 8.527931942524587 1.3740069472891727 -0.7682993606482962 -0.576516147862291 0.24172277792892566
P 6.385507755046877 7.828511721040362 5.727378934051136 -0.9395086059376917 -0.7068983318329954 -0.38626582678104443
P 4.71916073368964 0.96704447271567 12.6406801643907 0.21104643189099134 0.03574141926566747 -0.022171393890716654
P 3.933078989466802 6.279511679083939 8.327092460555493 0.04077898168957493 -0.9858614821706184 1.2199234011201765
P 4.750235415908322 1.2689024694032927 3.765127256669028 0.41742631154424886 -2.656718839674186 -0.03143405013956522
P 0.3155017102058922 5.734776935151435 3.4598630837743296 -0.2526715636309455 -1.4062602460796296 0.544944800813913
Ni 1.3800942539574115 0.787718301911489 2.8094843772311475 0.5563041916907903 0.707173182760937 -0.8521134670514744
Ni 1.7982673297333138 6.634702628766748 4.832730414841151 0.47161436755087804 -0.5781220588968301 -0.15242862224778264
Ni 6.267997844017769 5.666870653180987 9.303097267651669 -1.5671020320917721 0.06240427326883446 -1.2788746828434039
Ni 8.379356401033922 2.3054734886152333 10.283103856573907 1.2615570175005628 0.24258923969427898 -0.4671365342851826
Ni 2.177780350817695 5.2895119502929475 7.119058531956025 0.2245724914018842 -0.40138442759003773 0.011243434124303217
Ni 0.6120970152995906 9.321952077748236 9.093789866889807 0.6548923710793495 -0.3586339239963888 0.5867481100029444
Ni 1.4630626597880085 1.2904637548809799 11.442384116108988 -0.507662519423687 -0.9648614828801836 -0.6279158424905057
Ni 4.212923112820363 6.715516716401001 1.6310080563557932 0.1265689808722014 1.1890400812777586 -0.1195465268077812
Ni 5.826335458496024 7.793762025427918 7.908582659414448 -1.734563380302961 0.5911966326926011 0.6471844609121307
Ni 5.5485913427960405 2.9470891890832895 4.7513342992236 0.015138655413651348 1.01412921876706 0.0527207274324834
Ni 0.6045822465323463 7.476072505524311 6.878816751210957 0.4487117519210917 -0.18190734843318995 0.603147120186258
Ni 4.934918416580554 4.62078623722805 7.254560620627451 1.1532035311951236 0.5754437407337186 0.6962537076349558
Ni 8.190618213168575 7.564852139430758 9.219793041631641 -0.5803931143191939 -1.0775791596915893 -0.6780808933806709
Ni 4.663854497640661 0.27902493933352257 10.442969654729694 -1.1890102564810876 0.38525975411403324 0.4535333416794512
Ni 8.087545854757817 6.988092278781186 4.6708641783601905 -0.28917634342519877 -0.36978865506162767 0.15544041249091295
Ni 7.337218551188575 6.203160107713539 7.071166590170174 -0.1250510015657782 -0.5250845715548764 -0.2935019673837462
Ni 2.438018368233107 5.446786230383132 2.6197839875831472 -0.4000394835263691 -1.4342587881750848 0.6917115967902282
Ni 2.3794263443468475 5.168806768997834 11.55479517234818 -0.20955879160187132 0.6945632073064102 -1.2952886054250532
Ni 1.1330355949196291 3.2364557609349727 3.8606993291239458 0.1901042824216855 0.7164178412876564 -0.6889589737457553
Ni 3.7362575824866036 2.853023329014387 2.892272653094907 -0.8629468102215526 0.792992492519602 -0.28386598695587884
Ni 1.095715200282977 3.235541533465096 8.126316340886294 -0.47694297885264314 0.2503249177756398 -0.15734919947785161
Ni 3.8045530900135347 2.6641403130349994 7.011999779706319 -0.953891357021925 -1.1979139867286208 -0.3380980088265661
Ni 3.924534130738449 6.702310202751989 6.312960637197163 0.7102050276087253 1.241002847498295 -2.276986186025969
Ni 0.5275508882016717 7.393647205121363 11.184005329607563 0.9778722933175547 0.0881297030593966 0.7719174170168577
P 0.20446108999580245 5.686757363590087 8.109093562599814 -0.6754210871603207 -0.2192726764555256 -0.04608676705573354
P 8.429141065235132 1.6425861588975688 8.02598757006088 -0.5928783912703983 0.4203599402512761 0.6294636465935998
P 1.6956385074218028 3.185575834121337 10.291900354150405 0.25225247381565585 0.053543223333778756 0.4742209519357898
P 4.057712633355247 6.0076693090310815 3.9062731159094453 -0.19956851315837887 1.1960579073564885 -0.668407631956965
P 6.905648874863983 3.954558809130342 10.402522783181205 -0.914345990629135 -0.18500501352190718 0.5404463987229273
P 6.276072011375492 7.604471680377793 10.25836902504732 0.18033794706354103 1.414696292662125 0.34783914737373
P 2.430523513331543 8.549122105960047 5.7177478644674835 0.02569920453831703 -0.6228790513975466 -0.18124374670726204
P 6.886712598953269 3.8524911957607353 1.2739343411904658 1.1564361791998083 0.4433422600790623 0.34481964382111585
Ni 5.05127875445447 2.6471411131495683 0.7274860996337278 0.04096358689655526 0.17241097890698048 -1.1304798643453626
Ni 1.4353099724351164 0.9935570693420958 6.876418940747884 -0.3928311387033879 0.9754526281324684 0.2597161291825527
Ni 6.634322454967394 0.7950674235233002 9.432558213616206 1.555364946160502 -1.2953683096230528 -2.2561733630456753
Ni 2.7589574689454843 1.5965036633615042 9.030689162778343 0.5010617262777177 -0.511029636123707 0.6963123287870331
Ni 6.476876191491788 2.1166176279072277 2.4557326569316102 -0.596902939048759 -0.769284607379701 1.9580009867694539
Ni 4.120776225262488 7.021991109223645 10.439749944719443 -0.11420428865926137 -1.5074701793617522 -0.062295772715428195
Ni 8.066147500908425 7.276218759906402 0.03916695309066041 0.4522745295716856 -0.2976604696368099 0.9418079434948297
Ni 7.5288623530918475 3.787843546356183 8.241747968478931 0.8174349418326825 -0.1371200169151703 0.013879843305885773
Ni 2.991144091022796 8.570782960766136 12.336118407849096 0.5386381418695949 -0.6175779508996073 0.6811518189965108
Ni 9.185361062694373 4.825754225622992 10.142501102761141 0.09875247288056542 -0.2825123011414618 0.2698563029403481
Ni 8.61834994447111 2.4954517672070478 6.033398023490267 -0.0792020615524636 -0.21790510668403762 -0.9158454579927969
Ni 3.5149421207194096 2.449677031413317 11.46138194396817 0.8518260177180428 0.9400395387404972 0.16627632676415235
Ni 1.1207704640118765 3.4690135050545123 12.6323733668748 0.8493351329753889 -1.0133658582384744 0.5627828574365984
Ni 2.9447176287158867 8.35525157180341 7.914557724294307 0.7633934387062465 0.14953073187469731 0.36116131840393284
Ni 5.726938113479027 7.825099208603298 3.458591311897917 0.1988815143936833 -0.3779344240972137 1.2005020591707711
Ni 3.3506165218269093 8.300533699967717 3.5408093270626453 -0.49069992342741936 0.07501193473051597 0.5299750668779581
Ni 3.347285475203992 4.315895901902718 9.338245240577722 0.1587825894902685 0.05832830342724793 -0.4068508500212477
Ni 7.365378567612204 6.018784866783643 11.338385762944087 -0.0010700931357271893 -0.04638655768433947 0.9636003567795727
Ni 0.6656454001144112 8.953255906431208 0.20276841141296134 0.34233133018162337 0.6232171514632557 0.21101352177052693
Ni 4.72331549021116 0.22665418812098875 1.6342006110946596 -0.009116874699603653 0.04789425257811751 -0.049307330875560246
Ni 6.109809336457708 5.733038997782956 0.43169096987009975 0.22764136013519506 -0.7978613905761291 -1.2077669682633005
Ni 7.618266558240092 8.907997120793745 11.590247284313717 0.7334930516023883 -0.44762288973228714 -1.2549721651941934
Ni 9.087330533003628 4.874208281526461 6.041532837620744 -0.05492159173854413 -0.17102232608957 -1.1133252069429471
Ni 8.062164727772327 9.104890941830964 2.404753160789572 -0.11441229090500941 -0.8148602391269709 0.09111681071217856
P 8.651678514214538 1.6189791763090682 3.8417684842675075 -0.4494170055182324 0.3099284883708856 0.17384616869161026
P 2.0163241589346104 3.267648115996312 1.665148568713557 -1.2914481486330402 1.023954689497914 0.08573703445750394
P 4.689389504497317 0.769354097051232 8.08331234794929 0.30666447290763316 1.0333656983991688 -0.017603057793743875
P 8.605668432735492 1.594937709378448 12.459883083053302 -0.34260335289608734 0.5148371827952553 0.8820462500551648
P 6.561166153862998 7.7324454226462835 1.5046998373987615 -0.7551895627392156 0.24141835931462938 -0.5835110911228854
P 1.8645895542064521 3.3289375635065643 5.920576922653199 -0.39061741888152085 -0.563739822033229 1.0288829800374668
P 6.801562719654946 4.087022222934068 6.185010429497204 0.6488461648852697 0.06453906022365014 -0.9234865194778223
P 2.479330587762983 8.523596150860518 10.215749731788236 -1.5277836941081238 0.7050263116212632 -0.21282512105796894
