# total energy = -381163.96162829176 ev
CRYSTAL
PRIMVEC
9.29634920484265 0.00000000000000 0.00000000000000

0.00000000000000 9.29634920484265 0.00000000000000

0.00000000000000 0.00000000000000 13.60614675066184

PRIMCOORD
 96 1
Ni 7.016289397222271 0.7969537042479913 12.711651242637407 -0.5655377944739164 -0.544990566450184 -1.31780864090444
Ni 3.2634368990586005 9.117998724238094 9.411412886066797 0.7510935382929709 -0.2766810391716654 1.5461979349492534
Ni 9.148193266385517 8.461499841261212 12.619184175850595 -0.978577032694063 -0.5344045634042215 -4.378397136484362
Ni 8.337495839504905 6.39943944351225 4.598782158814147 0.3905109752106436 -0.625737089671632 -0.27632057050845316
Ni 7.956559339019997 1.5201297221073176 6.160169078597038 0.7417704611198321 -0.6942017102019336 -0.8657218018635284
Ni 5.7024177744452755 8.403778809181977 -0.010849769131852875 1.6643470671888754 0.17840473459657016 0.8155197270878406
Ni 7.327772872958594 8.673159119467044 4.818970837395674 1.4918448141196694 -0.11901945065971758 1.8526649471340997
Ni 3.1470001255375166 6.395218900983022 5.981031218739216 0.5368823355207528 1.2546649183664198 0.9975368616260176
Ni 3.9757510625321357 3.1712264115092488 1.0893350416824281 -0.672582589270261 0.7870352464949026 0.05810898832759025
Ni 7.020416976259664 5.5455418819767495 2.1293073988363447 0.34808365928436824 0.3227567504838054 0.07310854706021602
Ni 5.029482946112284 4.527275570530967 6.3685337306523015 0.49650727413781587 -0.32431355344796403 -0.17468589098408627
Ni 4.54134094684533 2.0623857699703785 10.350250260455374 2.1215048929947913 0.41916463439159424 -3.223237510004133
Ni 2.123685896485191 0.8175534844033102 5.757740348435214 -1.9917585428358726 1.77314715411343 0.20713578398267554
Ni 3.562621304825391 4.823633886146028 4.518438460997302 0.3289510522199754 -0.9626634467876002 -1.3523727520325548
Ni 3.976187990943752 7.296118803989389 0.9454721788007131 -1.1677269216222794 -1.0635177965025167 -0.5931560704118172
Ni 5.829359422543512 6.697489694678675 6.70502717459651 0.23098122314170544 0.5726003577476526 -0.2959416871734903
Ni 0.1996298023626156 4.98836519367446 8.531448361421267 2.88150318997656 -0.6718619090541527 -1.8490787724447382
Ni 5.378700303183704 2.9646987180526096 4.40090843681226 -2.5976762837887324 -1.8372820369201261 -0.6166610955122928
Ni 8.932824744855541 3.314269336392995 1.6765361489420865 -1.4623180083051461 -1.0373149128549037 0.12862972005597204
Ni 8.911898662843887 7.311857523156749 8.283081518830178 -1.2670072419818565 -0.2864879979597582 -1.4662052591746941
Ni 5.913668013287042 0.6746713863604354 8.995989719016526 -1.574402165297611 0.2073000774746817 -0.12861737876079785
Ni 3.6078480436022433 8.73908882787515 5.232039239197809 0.403344379529886 -0.9026855235720713 -2.149788056210201
Ni 1.7116995897279947 1.3712765789839965 10.122578950416191 -0.00028719222311563445 -0.36060081791477255 -2.4722918101429356
Ni 0.15736023226097748 4.149862386386538 5.5236331758564186 -0.36387846022477977 0.7819650310608468 -0.236566944759599
P 8.096441505181415 4.361419404751353 9.88501539521104 -1.156785592119427 -2.3919252959687256 1.6923458663946465
Ni 1.4546834238567443 7.852830674832512 5.099801460969837 -1.5680546258130283 -1.509731207481787 0.5873309790896077
P 6.016922563666178 7.805158996220446 2.107415426144544 0.3966250585281815 0.030999790815624033 -0.016431148972829768
Ni 4.581082839604024 5.274274412807469 2.2248636424567736 0.2683830608289313 0.27622312569864044 0.2889313172939282
P 9.415621343342085 0.4138604507525537 4.735850320077772 -0.6953867316489701 -0.900807589823068 1.6921718027106274
P 2.172612582237005 0.4327180950709185 7.853317803529719 -1.5082582224806862 0.3831069694370886 -0.7646828469416314
P 8.912930557603236 1.1641353264812582 10.960268327150574 0.030961224268204746 -1.3079983396822377 -0.6872023960659648
Ni 8.18003427703783 0.8405136076162742 8.642474659717658 1.5793214569760994 0.319440798736695 1.0992587015475521
Ni 5.547763709431562 0.6221767617920636 5.679137856820406 1.1093765067078443 0.34850686286471594 -0.3654686875300351
Ni 8.653478748245956 2.5055799209359804 12.674941818982314 1.148141286180868 0.6946470252694681 0.821466688699895
Ni 3.1517598563193765 2.9884787792635423 11.513085957320804 -2.423579432538897 0.41879413842605295 1.9592040059386195
Ni 0.841115081408435 3.372585334819962 10.532477297146814 -1.470835558857854 1.2614528878225308 0.5611268098904143
Ni 5.357132773078401 7.638540529807801 4.356211589938857 0.4468713562782433 -1.7379765197495682 -0.9343671709460684
Ni 4.416249272234575 5.610132916102458 8.352323516452302 -0.04760757457563414 0.49143345915933434 0.557685131198717
Ni 0.6564960940721264 7.050332627931589 2.50928637535537 1.6346706231703654 -1.007261288002633 2.0627819252322857
Ni 7.724355129119029 5.148522697404699 6.839279471692509 -0.17118996201568581 1.7783220134461502 0.6794908863543201
Ni 8.183473926235658 3.094410678207475 7.809193611766008 1.474948552584963 0.7710327004190591 0.7722557741928829
Ni 6.165496816313999 0.6325542763854038 3.270210219073568 -0.7262883063238331 -0.015800714477682463 -0.43512784258906995
Ni 6.27973965142782 3.8927904424201873 8.793108053709586 -1.485753356509951 1.1988935770330706 2.7634975252933374
Ni 7.007485754545667 8.754511471170277 7.235938887551166 -0.4076653755027431 -0.866266875733721 0.14212621188051006
Ni 4.480542823186417 0.2662483702452057 11.574857408739211 0.3375393081096187 -0.23967849380538722 1.3313760951762297
Ni 4.00303584738518 8.883265907359261 2.4865911980941307 0.5787776902029581 1.435657211184508 1.6091822490912737
Ni 2.6107495192468804 8.006025213024444 11.9226989061315 -0.6656539804712278 0.17175971847622676 -0.2528242871587259
Ni 2.9658328726529746 7.0418357647780345 3.5295569796850765 0.12206980745026719 -0.5884560938329866 -0.569855962233296
Ni 2.3307806672420126 4.622200592041848 7.367075048400917 0.46639168569935807 -0.9905527169987004 -1.558416074282
Ni 1.0093232235314287 2.4675392600778343 7.6618120807184065 1.5034975678672495 -0.7581329616382556 -0.18014228611296718
Ni 1.5249173419367277 0.0339948896935649 3.2820063565522823 1.554993421753696 0.10253328007923632 -0.9149946799567275
Ni 7.212953664195407 3.763608374168771 5.192962965040643 0.2605522519306029 -0.055836904463961896 -0.6673534796608378
Ni 0.6470482143971181 5.242202008125015 1.0804653949266223 -1.0232252675310571 0.008783659729901002 -2.4849005000458817
Ni 8.978237410616059 6.226648201241879 10.28088648065895 -0.33500471461322306 0.7022281800508358 3.971075517474284
Ni 6.23096170726294 2.441174813793939 7.3405163084190885 -2.151627680522101 -3.1065017131722694 -2.9527147771243794
Ni 1.396590537810177 5.213885328512623 12.174480297777622 1.0480934915276465 1.3426982050572682 -1.1379764298327242
P 4.2425283950458725 3.2377603826142707 8.077724235735719 -0.062335624814428135 1.677222380489647 2.8516863637254435
Ni 5.302061200516413 1.2130062341379717 1.06814959152856 -0.5090858821337749 -0.10665347289519696 -0.8597455296754355
P 7.179384547294438 3.5091951860688506 0.31887500297198074 -0.445841115241516 0.4639627645428913 0.42842600508886214
Ni 3.903927468741805 5.094901355315309 11.801522853796758 -0.9344638444249326 0.3111201946861416 -0.23179343463035565
P 0.3995003801690792 0.034626111803112335 0.6889626639599534 -1.4983234798654776 0.5498234690624532 2.4862259037255243
P 3.517338787953439 1.6234493469307372 13.251162078586633 0.4059892733519008 -0.08329422934396623 -0.7219076607576341
P 3.171616858174948 2.071802971693082 3.6890070312424643 0.7865194832007487 -0.4936299525900209 -0.14001302219224918
Ni 0.17574376277099296 8.916909395053697 6.849728568174561 0.4479193379267834 1.3126692627953458 -0.07965688970169507
Ni 4.020624540040022 2.2014126720069305 6.422523208169352 -1.382363384857374 -0.9728031063247632 -1.987981592291944
Ni 2.8397278959812375 4.198696108646518 9.503076748284169 0.16992215104685574 -1.002750544616473 1.0010839555473277
Ni 4.899389835640903 7.677473640187546 9.506369515164902 1.2409876779896434 -1.0660557324330222 0.13968057855349492
Ni 1.6126841745764524 7.146791547057718 0.3435986436250205 0.40911702034760505 1.3296866232889488 -0.7713815991180457
Ni 2.6440118566248 6.422652427423 10.054302843474215 0.263217714577908 0.2796861445465764 1.2319183686985233
Ni 8.495533775621347 5.050576362409238 12.796771404664641 -1.5605629454216736 0.3823577499758899 -0.20672954968319238
Ni 8.268609892056503 1.758292891834795 3.7217032209551193 -0.5544571111797225 1.4547304257658753 -0.9357509386674723
Ni 6.210546924456368 5.340436529945158 11.33035505850363 0.800862382185982 -0.7754004904694517 -0.49187671734433996
Ni 4.3990510262454325 8.604496284399042 7.23580316085309 0.19766795370155635 -0.239026204933369 1.8802634255776587
Ni 4.838712564521373 7.3068839763436735 11.906249016251614 0.28955943779623033 -1.1562086365700346 -1.0821300122870654
Ni 1.5672436197683837 3.2343300297656254 13.31549188530029 0.23423983928831918 -0.10074919159562004 1.5846323276660517
Ni 5.635939581435355 3.1487943209298974 12.509396151265422 -1.277501456644961 -0.1295450327813898 0.7136729315526676
Ni 2.3805812098170582 4.642252817230269 2.359809447201848 -0.2870245871895186 -0.6762721223067063 1.8492857462492216
Ni 7.6843808276307515 0.8288429708515341 1.295512262774856 0.8675691394849123 0.9641976240439394 0.09737667557896133
Ni 6.365498472643948 2.986247655459546 2.3069355315867965 0.5439181593216117 0.3316121439919063 -0.6727530534098543
Ni 6.948147157708535 5.999966022755801 9.023569198138683 -0.9355501355105759 2.440323484766455 -0.48893383266593216
Ni 1.5002634239025625 1.071952727979456 12.259329006408702 0.06955399693973828 -0.917231025486414 1.9584424451822464
Ni 2.120292729033279 7.345482418152819 8.073411659349576 -0.3425588728113972 0.39838600708334615 -1.3494149549558114
Ni 0.8137726591904539 8.145433265377513 10.00217821360334 1.0307480582706636 2.0974627644439234 0.9924777019355552
Ni 1.6261266954955333 2.210234907381901 2.164125945067552 0.5206129089367678 0.4768182803493207 0.176700864531586
Ni 7.045368377467696 2.3595621643135716 10.930919752778832 0.18111519154919775 0.48621926194824655 -2.5734986581012644
Ni 5.2815627505671925 5.5457185126112325 0.02117615380468483 0.9729707422508791 -0.7487679754835879 -0.05051986312642266
Ni 8.479729982009703 7.219396034179448 0.7963708231541972 -1.9167437798918796 -0.3001202440312122 -0.27752101857445755
Ni 1.9939460472827761 3.0941968621762586 5.123394665562184 1.0636116417679038 -0.24471348512613336 0.13271443164830693
P 7.303035287781778 7.132010351856239 11.765466033854333 0.24570515961544132 -0.27184068036022857 1.6561007680196833
Ni 2.3516416748093834 0.3070277355727576 1.0194924999030626 1.9208243777191563 -0.263801612105836 -0.898022313768447
P 2.7824623850119856 5.24389394367638 0.3294551779775173 1.2555380649999925 -0.03334823644314257 -0.8081380899117888
Ni 7.148650816894382 8.410239771864385 10.135857855589647 0.9086430267070866 0.062405301710098976 -0.3099711686833629
P 0.19570209483266288 4.856440702413964 3.087860470572908 -0.41709052547138487 0.32524609256456244 2.3566757287378124
P 0.8998001448979797 5.924210073260927 6.547127754082901 -0.8155328397139632 1.8161043744012464 -0.601887536747544
P 5.712718129340394 5.164428750857359 3.9889816266898372 0.9665910639767805 -0.2427381065673174 1.282071849624463
Ni 8.463321925701143 8.623442244034647 2.865998449138382 -0.7238385592317598 0.3500528671955971 -0.23070791487566072
