# total energy = -340858.4470681515 ev
CRYSTAL
PRIMVEC
9.38245756377366 0.00000000000000 0.00000000000000
0.00000000000000 9.38245756377366 0.00000000000000
0.00000000000000 0.00000000000000 13.73217503792620
PRIMCOORD
 96 1
Ni 8.188877488615272 9.15932382529168 9.865276810585776 0.20980536039503866 -1.7007616012621678 0.08966105210225848
Ni 6.664425188197162 3.332217285327295 13.595045705554048 -0.5255869651125916 -0.738493075920141 -0.03056835970516026
Ni 4.703200729598217 2.2267198564345505 6.131429361373622 1.6889784925843105 0.40928491338403705 -1.137508231947054
Ni 3.103820124161372 3.8833897469257903 6.888319708043466 -0.36211931144182796 0.4779120276341318 -0.3475735524171691
Ni 9.02862619332186 4.10307060514125 12.972634121197443 1.2937734543321073 -0.5816938354084884 -0.48182653219718957
Ni 7.890140044112828 1.8367286309889286 2.0565990148444304 0.890014612972622 -1.8511955616774247 -1.462004076609153
Ni 0.49572682942867125 5.105670623422867 3.1306333109986544 1.1897121676441187 -0.13482145068898072 0.08555062947831073
Ni 5.606074607879316 8.542033186199191 2.5096647485944534 3.269147642272686 -0.34957952710360435 -0.943030503048021
Ni 4.2738313303279485 3.3032254918752675 2.2132147472129167 1.3233313704948821 2.1080729358596018 -2.0246468089234613
Ni 9.43631273347639 0.11875751664714941 13.248884629982582 -0.37133285962029594 -0.5701585810753794 -0.7296903900268465
Ni 7.134045329832867 1.5088680386304671 5.48472659473634 -0.8160097793503818 -0.20548307887060097 0.5101922278240761
Ni 3.299547568563554 5.420048624457522 3.0728073493793877 0.8407579328293391 -2.3606835643456248 1.9464168814762801
Ni 5.827547515463493 8.968456493837119 5.0818935998092325 3.8722407692925573 -0.4216362358605384 -0.4839901155074116
Ni 0.9831408015762757 9.000835354420596 10.8041314748569 -0.24086042992863035 0.404817878751619 -0.18053206535221814
Ni 0.6547707417794825 4.729565434970449 8.250249080896522 0.10278653374062299 0.5397573430757027 0.20697071915972098
Ni 0.46417268685310054 6.254280444196539 0.7727532674430924 0.7645743463882252 -0.05876281986150526 1.2593178437573989
Ni 3.7606484388547794 8.11172554118614 13.446531725174502 0.5009090027499373 1.4813894231143003 -1.7864094184399748
Ni 3.1963405368573077 0.008351325356520905 1.7701600955383996 0.5039642446364934 -0.31582222814750127 0.5305193694172025
Ni 1.0994738912240711 5.397915407385246 11.532980471012156 -0.22191268518153393 0.963207235106212 -0.956110990381063
Ni 1.3021162067505718 1.7654031896224844 12.037075514220717 -1.7806406342769976 -0.07103829479474863 1.8637070638808741
Ni 3.8340380208553486 9.296945710843247 5.221220277875438 -3.944503680523026 -0.22595085980664958 -0.570757648111959
Ni 0.4362476788106186 3.7567453365647983 5.258818599526022 0.8794124119767435 0.5474367139978313 0.37025659583698173
Ni 2.5130443097599615 3.1657068133554085 3.741468819380788 -1.207541739626372 0.4123527536760833 0.5748004507227649
Ni 0.7028736627662784 9.270440268609596 5.306291019373668 -0.26263535971187674 -0.43260584749816466 0.5285918133771864
P 7.569100498304407 8.764641371132138 11.917619004495196 0.3715323772256117 -0.5337232210664808 1.6171030466002472
P 5.925856904392407 5.159694813292373 2.632279393490188 -0.7199201980139602 -1.678858373431173 1.9450122878192695
P 2.7656012988025744 5.566452490161546 9.93712391658521 -0.3241957969231771 1.7958021725087847 0.23733159083976546
P 5.430453769744996 5.604085526904615 0.29248966610124516 0.7104084018687831 1.8447503202727136 0.43366231378713704
P 8.84401696097167 2.168135792255114 0.1834823992131077 -0.7895482427247434 -0.13332892530385423 -0.7971098571220853
P 4.047704723859563 7.923963803140194 3.534386724999433 -2.0764895046263656 -1.8834680485578852 1.0518763556088464
P 4.4754509579948145 8.6626165290618 11.057422172070371 0.40936358914077237 -1.9243971826720796 -1.0868821822600703
P 5.077438809022494 0.9518315411395716 1.6771377213700742 0.9392160143979372 2.784337087746508 -0.6767961131309763
Ni 6.127373325027567 0.9455640595777741 10.02329334384824 -2.982482238194799 -0.1560759891923828 -0.6221275179435027
Ni 2.8912511686762157 9.142219605400726 9.135782301359486 0.27779175573734094 0.1662138489573331 1.9946618325255971
Ni 1.2922458615364836 8.790114743048726 7.550306497830699 0.20917081213483335 -0.42292178744118136 -0.3870330439643721
Ni 5.997050991354861 0.4946253289266427 7.378530590750309 -0.3819443165875551 -0.21741608286276104 0.5112324961631325
Ni 8.79991002860339 7.453048882379447 3.1164620472996445 0.5704917960450819 -1.2641463754942937 2.5897742553328365
Ni 7.877708288020939 5.401021000793861 4.071891760862792 -1.512368387994318 -0.9379566880695395 0.23184254270073618
Ni 4.051382647171276 6.164405884495254 5.924732885992551 -0.7479693908416924 0.5055045925404198 1.2018058655838593
Ni 2.738195140655852 3.6010246906349277 9.3039600360163 0.9587880229925939 -0.4080435847777683 0.03273631389075652
Ni 5.9770851219484165 0.8548647818685821 13.510674895379932 0.24635616293587898 0.2588920906193606 -0.5123488691557627
Ni 6.79752472926851 6.992360840215047 10.780361018963466 1.790478446303026 0.4195022202366711 -1.452386351013731
Ni -0.14579212947972928 7.167334288786845 12.548035701529232 -0.865068998770878 1.0185016368031428 -1.3384530566276691
Ni 7.568105957817056 1.5399990323760422 11.722099850647911 1.4884710125514302 0.3559592053777031 1.1104005770969843
Ni 5.120738850051978 6.624362094980283 12.075346558068881 -2.1470241203118183 -0.024378943064996723 0.7046956677547218
Ni 8.55820854280479 0.4621141756934323 7.415566903200967 -0.15676350217771068 1.6477369694360202 1.044703492009491
Ni 6.821074697412389 3.0600603427179234 3.376714527924572 -2.1350301811747356 2.0444126786964794 1.2692243042378335
Ni 5.928962497801023 6.623789765077185 4.654411012727703 -0.12399299261490904 -0.2472300809004 -1.4479902788285641
Ni 4.680542094909982 4.607706077897656 10.532331065629787 0.2567261933162933 0.01976201311827564 0.46553859367044337
Ni 3.3432229078901523 0.8301879805876186 7.159544034384509 -0.4725371364754636 0.005427341663158396 1.2289538867535608
Ni 7.26120577535239 6.410761069178064 1.5426176762441526 -0.009648578833357575 0.6776705453161296 1.0165504266140428
Ni 6.807216807791468 3.421754076561178 10.326732337767774 0.4038544863970851 -1.0177303058547569 0.4507904888269914
Ni 6.532442159559729 7.862611914019544 0.07002315627545985 -0.5431527419104968 1.0807750409210677 -1.6019898451078927
Ni 8.048600367611629 5.722661023877664 6.79841512447841 -0.4599050495337499 -1.9445021809520704 -0.4728901489395081
Ni 4.5667610336825595 5.74644555345724 8.414376408681736 -1.7545969019150687 -0.49579507856213967 0.726932110555419
Ni 0.18794094298281752 3.5722674586185965 10.20175612833745 -0.6712546144874568 -1.187833462564167 0.016679260427893854
P 2.545807851097981 0.5058617599422246 13.42406636910928 -1.0025631111960154 -0.3592916121850458 -0.24921574387186113
P 2.2163897708064977 7.620506982551546 5.6955016243612935 -0.2039733270942939 0.7125976962106179 0.9426265827413831
P 9.367539320530318 7.58151348948144 8.718063099477366 2.3138702035365117 0.3068850735588715 0.13143042272956074
P 1.6419488147869579 1.8542644439215625 10.052130326752707 0.7231304774211417 -1.5581293962795166 0.6805668930273183
P 1.3257693819261582 8.255127020513255 1.6484930788428769 -2.142365024273252 -0.5108632857491717 -0.5109021094069072
P 1.09083264793303 3.683233782617667 1.7666857715528703 0.3069159267968069 -0.9238863260194025 -0.6197338209003456
P 7.795349076719355 0.0373084037160653 3.664980211691803 -0.30064577751737903 -0.07376957768298262 0.31406256514391717
P 1.981678215791638 4.873980219699772 13.453027200451794 -1.075583212307483 0.9529845289369394 1.9152340281155724
Ni 4.440510686533536 1.7198232114380347 3.5938058278899474 0.5633940086580361 -2.1218046836233975 1.8763252668655173
Ni 4.8110708426461 7.930034253096006 8.552329494980505 0.8906411908130274 1.2328609351174509 0.1836922082477546
Ni 4.850205072577623 4.2193380175870505 4.78444061372866 0.3703363000349816 -0.508834171134285 -1.2750748494813395
Ni 2.5742460795617657 2.501625859070279 0.5172755194031927 0.5799308299707948 1.1638664102256084 -0.22916036788288274
Ni 1.1045779480648164 1.127489909103603 1.4567090812976158 -1.992534758880265 -0.20133100437544038 0.8251639350458241
Ni 7.285290543569657 5.6216119573798204 12.834502768207544 -0.5943842863919634 0.6719200159855976 1.0488694504617226
Ni 8.167006980350976 4.41294502661054 1.4528228674310042 0.9528199783346172 -1.7507754712864492 0.6830534068945978
Ni 8.339465930332114 8.801636400770114 1.5663327756387624 -0.5443866143175979 1.2244233458730591 -2.008000201505716
Ni 1.9341466864621972 0.7010525277795345 3.7009994657572833 1.1065531783264362 0.8179247369849074 -0.6095882478259115
Ni 2.572163174012785 7.384097202742247 11.208709606865586 1.0253389714399501 -0.3271710775014172 0.08027524001198433
Ni 6.792683381235743 5.167031895000944 8.929402014793732 0.8612907626753683 -0.1310396150490453 1.1894301176273259
Ni 7.404963788061764 7.254684967440041 8.410105514060584 -1.3507272460093318 1.7512516395919195 0.9412255886287983
Ni 3.735813074043286 6.7682326971787905 1.479449343365473 0.8444950312742683 0.45149008599717727 -0.9096966647825818
Ni 8.330430623829104 8.027771312121821 6.140973197069221 -1.0986552636355982 -0.7460624036269669 -0.8189668050961766
Ni 5.804372845616728 4.538904517579301 7.031573882788963 0.26396462004626153 -1.7615707621297403 -1.931149156683932
Ni 8.984885176793268 1.8172225019964479 4.29909078221518 0.9588654131977487 -0.15988816384962143 -1.0525759527790324
Ni 0.37250701602884084 6.270211856909012 5.381611511112887 1.8064326556394374 0.5625954240161407 -0.44861070756685323
Ni 1.5950083802754718 2.125905351372403 8.065895051388367 -1.7152258563166136 -0.5886975204198313 -2.7068579224224223
Ni 2.580644915527553 3.6487438691129253 11.930513315738276 1.1929067633220165 -1.2444625239121214 -2.6545295453323505
Ni 4.066479021172671 4.173157562127218 13.550553154185483 1.0145303108602206 0.06734567643450982 0.020018866324088107
Ni 2.0983772212791187 6.306916030366724 7.627234204527308 0.9245661256952464 1.0577261295214042 -0.07810111517880097
Ni 1.7861665679102956 7.0282487398765365 3.3476429835844077 0.3266185474320568 2.0826367551746845 0.9613118178557122
Ni 3.575973529302593 1.0900820513388025 11.58869256497293 0.7933208223932983 1.3093286284578871 -0.1860547949426602
Ni 8.7365221462209 3.223690400259463 7.288296682929537 -1.8292031165667337 -1.304077921581909 0.26756210758953275
P 8.193587482244048 5.098192804852879 11.030932680014347 -0.005809664703241608 0.12967898725609278 -0.9369801830888831
P 2.316209735381294 5.092478888279323 5.101475726706878 0.021597780775433773 -0.811433215723293 -0.5497463359676146
P 6.33791566970831 7.276292766896359 6.628987646492209 -1.6084312298578625 0.5107015633603269 -0.2599740108296297
P 7.527095236399965 3.611636249985816 5.360546955941642 -0.046736227714274346 0.9050478531566606 1.2019336494109751
P 5.2280647805690466 2.8661812424290254 11.927025856312348 -0.10087209032672952 -0.3994242185398734 -0.08561130751291707
P 7.958847779856906 1.7146534773952946 9.22804938770487 0.39506876978465505 2.2185059304018893 -0.9478785751689418
P 1.8321687566789981 1.9134208380040976 5.6508720891142845 -0.08629367829192235 -0.20954105099005849 -0.1851579941600037
P 4.693471121245546 2.5945121876059014 8.30624921630033 0.10678099961199675 0.08929646967398815 -0.3260516191849933
