# total energy = -340889.3328178337 ev
CRYSTAL
PRIMVEC
9.07235319348472 0.00000000000000 0.00000000000000
0.00000000000000 9.07235319348472 0.00000000000000
0.00000000000000 0.00000000000000 13.27830594617717
PRIMCOORD
 96 1
Ni 6.4182635121833975 1.855386959807403 11.698838505870487 0.026363063374561044 0.24568536212109945 -0.8574125106668847
Ni 4.8170203835093615 0.2505067247220087 5.880815492153167 0.21453027667453375 0.5571698821251952 0.733536246135498
Ni 2.8527107507791296 1.4962760017610657 4.832573118657755 -0.5675360558508677 0.15569238060071897 1.3466757016477775
Ni 3.438313007302763 4.711590566581476 5.000344518065775 -0.28616506740270076 -1.2351731281903953 0.3825243574607412
Ni 5.115963494910338 4.640844356065716 2.9402680318367858 -0.9235718801027771 0.21548518438863534 0.0824514217276967
Ni 7.089191250869217 5.958231696766284 2.7385179478628916 0.20654982957221849 0.7589027499247446 -0.6490909339062241
Ni 4.91024788533803 4.514938237889552 11.403595100118181 0.5730361597334905 -0.1973599355428343 -1.060195416997503
Ni 5.642704323654252 7.807440384021592 12.26475919928911 -0.016761792839371133 0.033926220433799635 0.6370939094453479
Ni 1.9942121089882396 6.490724397460312 0.3952116660335536 -0.6413436858606374 0.0440468538075693 -0.5597160455858167
Ni 3.046840965272107 1.6182719356935393 0.5463588853762914 -1.195405104263838 -1.217147381036936 0.08933143667698164
Ni 0.7668578945427822 9.188842249138576 4.508157561082746 -0.27751227682370916 -0.21173960130327407 0.6310106793657455
Ni 8.667998449996514 2.4066503593417887 1.319407753765695 0.5486088799290617 -0.20968991786309696 -0.19822562597723925
Ni 6.872942639192677 0.8233469019519103 4.503297501455496 0.447832434639932 -0.7836344483434697 1.7808774328781525
Ni 0.5385122070645344 7.31830445943103 2.3479631207441547 0.14060231903681591 0.09799219767577318 0.10383400116853087
Ni 7.934825295774835 3.5717310339563624 3.4930973195392943 -0.977415151175478 0.5484924089558554 0.6645561194213587
Ni 7.555355977072257 3.71514679387341 12.665538568502134 0.6219418842952579 0.12044358470075388 -0.19061310373730397
Ni 8.041488952742492 8.85547862956925 6.585853464526746 -0.34072979002245835 0.3462085537488425 0.31127420376550263
Ni 6.947508310419791 0.42804360515069706 0.412929064663488 -0.2425388460723178 0.7112131571582654 -0.7606279601459675
Ni 2.0329510572957923 6.258363286440865 9.324955671937882 -0.5840674778469876 0.8366495670879204 0.11936809224838796
Ni -0.4007467087413845 4.782844828878319 1.2514168169269848 1.1023651083870174 1.2872695917753185 -0.2543006145939362
Ni 6.400998823979821 2.1263146444229646 7.102831533955963 0.3158389403180496 -0.8260753911164999 -0.26411245847803544
Ni 3.6434298415616526 4.669331545219279 0.6794412349602471 -0.5297092148110814 -1.2482939818430696 0.048222582451813725
Ni 6.163103577487867 5.538390406174102 4.92731388900579 -0.18711254678321323 0.8447732246363194 0.0947433517211723
Ni 5.257827882424436 2.642277517525339 9.53719611795581 -0.4707034257008345 1.7218495322807186 -0.4934093519387825
P 0.2605099013973969 5.553949491969758 12.356233922473042 -0.14406790898791316 0.15373911352909006 0.29425118684494483
P 4.002368424896551 6.209218348974351 12.37295154777663 -0.3239798242576291 -0.11456501443278978 2.375164531570619
P 2.2057068075703636 8.501974385821288 1.4054953135995047 2.172734123483413 -0.4163194516333152 0.37369878874931123
P 6.412529784939751 7.589440808170964 5.749015066081122 0.6767002109830604 0.7289164879752995 -0.8810406916087858
P 4.752225636714855 0.7928737746755077 12.595017352346566 -0.23282521832897968 -0.13436739387069763 1.728314314069456
P 4.062853803905089 5.995147102073879 8.335257193859013 0.4610126807756318 1.2036655445004174 -0.6079720523787271
P 4.792289148594516 1.3433977774213537 3.9256916170719744 0.37574615819664325 -0.30342873957915484 -0.7829343369526517
P 0.05772012574293022 5.488682982807104 3.405805858431383 0.34051947378386516 -0.06274725843055001 1.3129973355587257
Ni 1.7307328263774793 1.2852258484873893 2.5396882543948998 -0.529712557245191 0.33309361363343926 -0.35032951789575145
Ni 1.735831488894773 6.835818569760708 4.767482613147832 0.749694086842283 -0.3554046184258137 -0.3228202567318892
Ni 6.021919616466288 5.729299935269144 9.345935488790628 -0.6287136558014527 0.5454855038087315 -0.65503712418733
Ni 8.534816304526988 2.310347329766924 10.408279928152377 0.26710753655061736 0.9299088780643984 -0.0375051960343096
Ni 2.3994922726404635 5.703779405622974 6.892489931469831 -0.39274115009274296 -1.5838910786246527 0.973880141439026
Ni 0.3880862398038693 0.3317351321638922 9.231131209266444 -0.9130545255112211 -0.641268866758644 0.0613938297264491
Ni 1.4345114209465883 1.1937130214198752 11.594775892574907 0.1682154527683942 -0.7224684183571106 0.1415212313066595
Ni 4.094861066113296 6.869776387914144 1.6624833274716109 0.2983976049131506 0.6722360045641197 0.026923306753405242
Ni 5.919392952573161 7.956000168222102 7.843972936022729 -0.5534278985842597 -0.20433996640509322 0.9602661502000172
Ni 5.2774604548219886 3.2096352716961647 5.167810179169823 0.17456967712119614 -0.9098265054922267 -0.8618414929725158
Ni 0.9161534465905383 7.494162954511498 6.917784559520485 -0.8372270368579452 0.6460698876917131 0.5809597854559414
Ni 5.424296491908111 4.365507507778616 7.467134599757901 -1.7479703977374863 0.5566422917564994 -0.6704272334901551
Ni 8.184895640306307 7.2176557726572605 9.18113891400791 0.5849735346010247 0.45098409289503616 -0.00412482080165096
Ni 4.595745688141395 0.6561897008578053 10.504441429016797 -0.7314680507525595 -1.7277137043709796 -0.6120508504337911
Ni 8.426601275156383 7.262727223521879 4.674162573316181 -1.4555068989205837 0.07430770957463977 -0.2579688074741428
Ni 7.38356189624045 6.0906154751512505 7.149345488984728 -0.8501270327490649 0.5695438303095159 0.106683554802184
Ni 2.147943134531912 5.299796588483158 2.8099953900492816 0.5825710958071193 0.31386330464891754 -1.64972803172412
Ni 2.443112146987703 4.985185523047721 11.445674488886352 -0.2669514705887273 0.973486248434717 -0.548957521517732
Ni 1.2161761680263157 3.4341034354023643 3.820049507078423 -0.429713356441718 -0.7382598768634124 1.1195418772766204
Ni 3.4714633860184065 3.0027765456164204 3.0924640152133303 0.43757938945335606 -0.1424961936254191 -1.0009677416844376
Ni 0.8246143096986469 3.3173603939921557 8.391571104850733 1.4083752355401036 -0.13349219035459592 -1.4813901944452488
Ni 3.8340944171193883 2.5084058732100583 7.076713136231698 -0.4802023663302053 -0.07306715229931933 -0.0372146613770843
Ni 4.282132581561657 6.951990052917199 5.9589057726115415 -0.22109970236193535 -0.30230593882862133 0.1963759743630102
Ni 0.6965625799827327 7.45282931317913 11.251478953450093 0.9774146369548458 -1.2238445905514534 -0.029367140308207484
P 0.288841046075342 5.712334634722278 8.100205222870475 0.3496044668042689 -0.8178599451852431 -0.5359667656850189
P 8.595356117654928 1.6825858477666635 7.769867233104559 -2.4203231303851283 0.04550878306507646 1.2125888151319761
P 1.7425631749941182 3.021946427999057 10.531436216063431 0.4810785982875714 1.079289971735109 -1.2746501032390951
P 3.788759868010994 6.37479786784113 3.826475454873795 0.4852299014517837 1.0771968366515061 -0.7662134246535449
P 6.8776330458144574 3.9383085387139682 10.53730512137026 -0.13656363019106804 -0.9380410202532297 -0.4969027098040217
P 6.487113600873331 7.912235136223124 10.237932887661332 -0.46053137026383906 -0.023813557479829953 0.06814246130419231
P 2.672960216161438 8.619606517848391 6.053074984705859 -0.4959902252920813 -0.4365293509222869 -1.8284469551269993
P 6.601797218099508 3.8890910224215856 1.6699725550659634 0.9183975349906893 -0.24182433650379648 -0.9763152332430798
Ni 5.171059896098106 2.551082222821002 0.5595373856834462 0.7365434083929379 1.3614634014799134 -0.013950548642821137
Ni 1.310483279889784 0.9345975407144854 6.949201211533183 1.117419688727295 1.2258593069886372 -0.28629490811234565
Ni 6.851450234382233 0.9893582648326092 9.2412496048279 1.1023486533267854 -1.9159868471211972 0.04456904485962647
Ni 2.614951589585679 1.6283150307231553 9.0679413482414 0.6357196548056406 -0.7299225606423106 0.40257767656719057
Ni 6.446678122511092 1.8350921056237977 2.5294773208304617 0.8334292603784097 2.096044543940158 -0.5737231584981861
Ni 4.077832259093793 7.019052888020109 10.474431898990634 0.5660558717609154 0.3766357598904481 -2.3043740911206183
Ni 7.999420450798202 7.1966714196279 0.037785443982699396 0.06285267366016271 -0.9047213230551774 0.4371106773470536
Ni 7.501203100620786 3.9240467994307195 8.417875485816287 1.1029523483490553 -0.5582944826479417 0.30525268016177104
Ni 2.9762217677016176 8.278649338622525 12.183350252017876 0.13679117282084183 0.8924890426550437 0.8836758152387878
Ni 0.18654935613096546 4.779860024664458 10.081513723854538 -0.3662377044855757 0.46829147382523223 1.743882857931674
Ni 8.453981637215444 2.145021836790687 5.6354990607161115 0.9270356702816616 1.1577862654697997 -0.512041622327989
Ni 3.639673887322935 2.6602952110473064 11.776795422736328 -0.5116551855228478 -0.3254350686469169 -0.7655701346425913
Ni 1.2434295171401069 3.4688868377000586 12.673054105920864 -1.4511774183072943 -0.3922271865708019 1.06489230825254
Ni 3.193114516457745 8.091713500243808 8.079305242726187 0.5870903238337114 0.4123069880398124 0.8362389619130631
Ni 5.458798651255563 8.041316578031054 3.6565929188683106 0.06313086702221385 -1.5646342872775698 1.0825817551125034
Ni 2.9862920797909345 8.563131118969114 3.5376062845034286 0.8035949506257967 -0.7469903147578748 -0.4787121549379239
Ni 3.3880975321546822 4.196371626444258 9.126869911435048 -0.2989606765054722 -1.4402312037084357 0.5796413237548339
Ni 7.196988951991077 5.879320368340267 11.323593274833481 1.3547993591961764 1.2698591096083551 1.1177408195121394
Ni 0.5019841912400146 8.92680547069196 0.36994788398389505 -0.7130332410861396 0.915687592258694 -0.6863544462433727
Ni 4.98322589474926 0.3475473366147666 1.8722805887637248 -2.2259130214992373 -0.7627172385748284 -1.3821895782836713
Ni 5.948261180562536 5.333854202522163 0.09528964771866949 0.03480065261895297 1.4468494803559018 1.5420890549872022
Ni 8.15988316244122 8.948660769631749 11.499849138985585 -1.6179983047210071 0.6842944783905506 -0.7253843064523249
Ni -0.06472307520396066 5.2263195996440786 5.833757195930385 1.704665307191948 -1.725279383897874 -0.9399824602503166
Ni 7.630692798324229 8.669595184165631 2.542370949246081 1.1816491881303262 -0.026915593443921387 0.9577269287179312
P 8.729699524338356 1.4473397284189256 3.2188999588183362 -0.8386066908142912 0.18731309282979353 1.4122097787948453
P 1.8633524859465203 3.35520117932958 1.4886969578697005 0.5316856218111619 -0.005026249569997795 0.7082031666873481
P 4.868070515154935 0.7465748344183804 8.26283713417165 -0.7258213939897435 1.641550123899018 -0.8347217539375883
P 8.541076228258186 1.7281381333526642 12.572830005278428 0.060984252992856265 -0.88070901930098 -0.08320964004995991
P 6.279846618898074 7.5496131774753765 1.3918187410998244 -0.9976492188341657 -0.7240948982169401 -0.695712233309189
P 1.9299072692683488 3.1769566553486692 6.001356220626968 -0.031144801033920554 0.43618045222330043 0.3703327004905558
P 7.1339542417238935 4.067462559347767 6.101567619974875 0.14658219076933465 -1.2406912297951471 -0.2478440603353151
P 2.173227782994008 8.72938199197518 10.090609665206566 1.4732454538509272 -1.3314838243986877 0.4410130977252534
