# total energy = -340891.9367471299 ev
CRYSTAL
PRIMVEC
9.10192308638905 0.00000000000000 0.00000000000000

0.00000000000000 9.10192308638905 0.00000000000000

0.00000000000000 0.00000000000000 13.32158447341451

PRIMCOORD
 96 1
Ni 6.409182883229441 1.9202418239935102 11.413987268179346 0.9028541879394515 0.45311193787131643 0.45839889730186856
Ni 4.556486430760243 0.6859254778005647 6.016720700692283 -0.12647436427586606 -0.6082690147938556 -0.00533529616998436
Ni 2.5637295852151625 1.4615777137855626 4.582891109751219 0.6773589276129819 1.4942979036458524 1.1155857208423496
Ni 3.437878282317308 4.0811566993070425 4.658811160744541 -0.39056908214208863 0.9992798124590532 -0.45685212164003897
Ni 5.371663767923564 4.590736967486559 2.897524412045931 -0.8378235327913636 -1.06185660675001 -0.9311540633254092
Ni 7.077673627280535 6.145718616399799 2.625897540556136 1.7309239837781607 -0.642846495658409 -1.1469709200218505
Ni 4.8597989170392095 4.54588269031747 11.312156772620837 0.330189809723083 -0.055475407359485106 -0.022413848918825915
Ni 5.696857277399463 7.806045923583138 12.537981934728748 -0.37547439259249527 -0.2855544304018953 0.8083532912463886
Ni 2.0432088054371795 6.383979658091208 0.2518820696507312 -1.0749268096704068 0.5723730722281949 -0.16574925061608872
Ni 2.7665204324812582 1.6388740743733663 0.5306148125256537 -0.001664017965984231 -1.2879715029383496 -0.5249364760127863
Ni 0.3141410442229729 8.914023025813918 4.778931970826447 0.3093808433975317 0.9684088339118095 0.3707595036153292
Ni 8.690916686128707 2.3091578972804485 1.3611325309269573 0.5047569157411178 0.39837957932544293 0.5207954572612192
Ni 6.8901922147137915 0.9671885553047499 5.147007370729849 0.577397779136296 -0.047193369856350975 -1.0522206263221427
Ni 0.24923249982850676 7.323534774782859 2.188269795078951 0.7232554330347802 0.4932651130514344 0.8966519157834817
Ni 7.754501732915818 3.9853589583970046 3.959361135369799 0.7248065795719839 0.49917710766049517 0.2962905858724768
Ni 7.839295248765501 3.5960059927999772 12.600686903534205 -0.3311166924127265 -0.008669759859856036 0.5214436323681794
Ni 8.053326971093249 8.723510672845936 7.229531022921121 0.46266847121149995 0.06546362892044855 -0.8158184892751821
Ni 6.89484329743161 0.7625481972592797 0.306384385334276 -0.6084443640294553 -0.33796611123439213 0.6135132939119304
Ni 1.7792894424511965 6.474889666282131 9.257182821349897 0.3598508271226254 1.071779779400993 -0.7481809926318663
Ni 0.1168823458333736 4.977987388841284 1.4591001703104354 -0.24395552391418632 -0.855437646328701 -0.27350726942937414
Ni 6.460572341203604 2.0145013398951117 7.243065582610739 0.9230599734633651 0.8493047939580857 0.3161688128536426
Ni 3.2665254775313337 4.195385834548941 0.15976150568393802 0.9397883419616395 0.20036684068995816 0.02334176004973399
Ni 5.940333721042553 5.6185807385086 4.840157877123791 -0.2482693207981918 0.48202656402313754 1.4281966411414049
Ni 5.03026883528188 2.686368897426265 9.52113586145145 -0.023594756600804526 0.6611820607428033 -0.009879463897241049
P 0.1479417483114178 5.455847454923748 12.339890410373043 0.7923476598467516 0.0968107757731623 0.5058997710963093
P 4.0802920166099925 6.139147027902218 12.604830098941544 -0.8124439163759944 0.5013761721943429 0.0187993920946902
P 2.3880351630976833 8.639691062770826 1.1932639423139388 0.05663420355427665 -1.107978340808737 1.3025658558127566
P 6.452935827700182 8.096470086714493 5.792571280616734 -0.6095067438556987 -0.8793645894579435 0.2634493709727398
P 4.710372645065803 1.157172996731375 12.808184355249193 0.7011840550570375 -0.29127333516354353 0.37729704762353083
P 4.101481293649287 6.408609462072449 7.8111375393802955 1.097223159174762 -0.16693607183533832 1.208769698496202
P 4.740245156768107 1.2681709492632438 3.8724914708548823 -0.09488579083630755 -0.13813123178850403 -0.8098561010441602
P 0.29691201393616895 5.579933972912019 3.6723347201416954 0.2639437941106551 0.12573877166142217 -0.7467100645132947
Ni 1.314508839902009 0.7214020435720665 2.7060272309956237 -0.7879973532978558 0.6120778470169846 -0.9271189740240872
Ni 2.034962463084258 6.594070247705032 4.683682165688644 -1.5111085474452879 -0.2993298869194329 -1.0726374994155978
Ni 6.089350406475251 5.962169234623853 9.31903493995837 -0.5192281127740993 -0.9772128053566846 -0.6493922671967268
Ni 8.971938562670031 2.233884993021445 10.437687687824626 -0.29565963715669724 0.7968841142645243 -0.6858733928418962
Ni 2.6024127585042516 5.385416773768225 6.709895860263379 -0.3462203808233844 0.05989744768658072 0.5725296524107173
Ni 0.47191924085757153 9.070630715134405 9.238052399321896 1.5448079965802621 -0.2969930112561401 0.42594334787632454
Ni 1.5661770143592595 0.8945515679832801 11.723793976609315 -0.40574784676505604 0.3802036797473646 -0.6750559905114181
Ni 4.107843537914951 7.022934661595692 1.5550954229523262 0.6024464945748076 0.6191522373652627 -0.23691944300301132
Ni 5.618526126969839 8.20807786809586 7.850915674021544 0.09948703705374479 -1.1632506310184805 0.3425889547183842
Ni 5.352258467817131 2.929235512219857 5.013884463461246 0.85822703614838 0.689849603880825 0.9802953009367505
Ni 1.2500581222408231 7.5318959990025816 7.027855161238064 -1.259529702657889 -0.05025092573575217 -0.3298432250169416
Ni 5.320347125334414 4.376896385544475 7.66364087510978 0.18919411190259028 0.2942370457775577 -0.9960047412522074
Ni 8.20865128925285 7.150270566140247 9.50938709907932 0.10110863181756781 0.1570406670984973 -0.39775685813977946
Ni 4.787757195490236 0.39230744984400073 10.80705556081204 -0.8224028273609192 -0.9633373329261732 -1.6691077218023125
Ni 8.06566917885325 7.092855635056111 4.707901472936865 -0.22529137184577974 -0.22296940858082245 -0.16268963785415852
Ni 7.177075729748803 6.299550219166598 7.092664494670447 -0.36213165273700215 0.28359602112394383 -0.2666802192052117
Ni 2.530061571568965 5.232286019082193 2.407609758974275 -1.079831960281508 -0.557799288179078 0.4715917418430588
Ni 2.4446127172541487 5.172950582218293 11.27516291626409 -1.4085372150392645 0.25889826126694765 1.28794424924484
Ni 1.1517300467015221 3.177763523198346 3.9200490191926445 -0.5009038605436147 1.1324943236722302 -1.014604872851898
Ni 3.8732596731667877 2.8788563677127725 2.397431988533837 -1.5549134604453803 -0.48082457329523637 1.5950213842098595
Ni 1.3732526517626635 3.472165226736131 8.199182558623994 -1.0706032425943885 0.3255993621389231 -0.04069516372651701
Ni 3.573223879213486 2.6798155127749372 7.227079875023061 0.7238005069049729 0.17454293764831877 -0.10336091818685426
Ni 4.005774571970517 7.30792497662032 5.659088847384622 1.9044042844899203 -0.12963270739918964 1.0410406984459233
Ni 0.8960615770300235 7.374787703910119 11.261628356574471 -0.01694639804635146 -0.28601800030187513 1.1175104486688883
P 0.13028947859921555 5.902842899683081 7.983279480901367 -0.0033565751770587354 0.11658821551040566 0.3276513595719454
P 8.597012145229051 1.6529183417580875 8.209426773103258 0.35574143293994215 1.0005823333205606 -1.0991679416059585
P 1.886792256502357 3.2656789986805372 10.282198624856429 0.014901856812496917 0.09990432709682148 0.6836473317248548
P 4.020019081664028 6.1154365181567885 3.692769447753774 -0.10809226222425256 0.8272169609201109 0.47600863996383175
P 6.764166987099503 3.8754441347172306 10.414894651930384 0.7401606934305511 -0.09322820062822654 -0.8620263552898122
P 6.30032388263238 7.791091463885733 10.410885254793007 0.023137357348411765 0.08623711402237406 -0.16307041823234494
P 2.348723957112842 8.722627786302633 5.578120869825152 -0.18143709366499075 -0.20912941737393662 0.6658547836281242
P 7.049484971356697 4.038750839459074 1.5662452787827108 1.3750043733891417 -0.38188081033947135 0.008198476650392333
Ni 5.32223122342167 2.9161560486865814 0.6721387948403333 0.8189282385487574 -0.6137734895518526 -1.115880626374949
Ni 1.3692842132793592 1.1147762388065334 7.090839559083515 0.35654593111910854 -0.4652393172624697 -0.4033127549610022
Ni 7.204399702975591 0.5061288189298165 9.306378715850492 -2.0233867112641155 0.00942746396148699 1.1154314546526725
Ni 2.584081485326787 1.4547239656710484 9.174322553972356 0.6785123244911346 -0.09359483993902591 1.2634827737683658
Ni 6.552620089785383 2.2834904740627473 2.8380306017196246 -0.2491920897227773 -0.7433666019623585 -0.3202620090864097
Ni 4.192109142223277 6.940143568833913 10.413282701344617 -0.8721981536164914 0.8894541124834617 0.22312958830777055
Ni 8.045553928742924 7.04552563479652 0.1016357144035964 -0.07624477869635256 -0.3953230518873062 0.7823951766197299
Ni 7.980375057231591 4.142785820798907 8.15255704721442 -1.1956259620253924 -1.3280267190880226 -0.08532308684853693
Ni 3.1959127579132742 8.332036959160355 12.487174089642389 0.5957438857436514 -0.10281250188255195 0.31065353946236823
Ni 0.07045161557871446 4.908567021152842 10.0653626000133 0.3405153600188071 -0.5975660265540548 1.1856133149843968
Ni 8.863552862075567 2.6266693836372923 6.077786413142596 -0.5488605909285516 0.1787387208972212 -0.15830590696416608
Ni 3.509519519248701 2.5466452755060756 11.540595018873754 -0.0563045881289998 0.004205810551231466 -0.005487505477132485
Ni 1.1562992121111981 3.238764611994458 12.692406072691105 -0.3547086208000536 0.23458693821509277 -0.4617683279947338
Ni 3.121340701735037 8.431957871246855 8.09796462249192 0.7668307465225696 0.10935853053118587 0.04429239415947211
Ni 5.704894275520466 7.717711759637113 3.6309974260688187 -1.1176423462610623 0.7969234521428921 0.6587929916853363
Ni 3.3329331086647906 8.612640147237844 3.5549044385360857 0.20727693754623008 -1.0396422754364996 -0.7513007692077706
Ni 3.393096820533233 4.830736476495195 9.235068788920916 1.3709991088844904 -1.3151843159077155 -1.0957020945445453
Ni 7.16375961621423 5.650637711761346 11.55190506855117 -0.00758064056073533 1.3177263656032792 -0.2530294611909965
Ni 0.402881153940456 9.035497291864786 0.35277597731948973 0.006396904665279306 -0.6479581058533616 0.5632793374570428
Ni 4.766058210755838 0.6233624989958864 1.7733295031877387 0.33612108760585335 -1.0080218203177413 -0.45900927719235785
Ni 5.796650762562186 5.223630090188564 0.3006164966487947 0.0346579563935016 1.3150904706423288 -0.05819614872475784
Ni 7.960168787889996 8.553322914220198 11.622616088939001 -0.05263382414563193 0.9158045774525324 -0.35827294111254426
Ni 9.061319447775643 5.181023988031805 5.912358960312197 0.7514830604219058 -0.4707972709662214 -0.2437621769564576
Ni 7.434851294624166 9.094869136421194 2.756835076081983 1.4676815866099044 0.21726310222466452 0.12050837650041825
P 8.59929672793389 1.7291833556379177 3.901812406015699 -0.26174241558396216 -0.21892352064622295 -0.7439741536393704
P 1.8429118851078394 3.246847119731096 1.5594643460532116 -1.1163704215271741 0.5849375391567668 0.7350267146380954
P 4.841276503476081 1.0322308979691805 8.25873007029675 -1.2722576917475186 0.09927929191831289 0.3769566335649766
P 8.586954520173888 1.4382312809652062 12.460184156994359 -0.1629971417922483 1.0830440394609027 -0.10806552275137517
P 6.329067755866955 7.817159371721016 1.4394236328948231 0.07492785965714192 0.025738028196052448 -0.9905830560160038
P 1.9387278298641315 3.466840601706927 6.07941201661305 -1.1388068961538194 -1.379266491099605 -1.1925604357261914
P 6.961660515105774 4.208874884622925 6.1142478069964215 0.08345903705660465 -0.9451454925084948 0.48026870079176637
P 2.5035931791161006 8.589330122109995 10.353948174673032 0.24551618353308682 -0.3775001647732725 -1.0355513931965779
