# total energy = -340872.7422849866 ev
CRYSTAL
PRIMVEC
9.19902223779052 0.00000000000000 0.00000000000000

0.00000000000000 9.19902223779052 0.00000000000000

0.00000000000000 0.00000000000000 13.46369889642316

PRIMCOORD
 96 1
Ni 6.358907012746839 4.062601050644458 11.205338362515262 -0.7864338654654779 -0.7017417273327206 0.17487358151486013
Ni 1.3976626646288925 7.180204930032618 4.618398623745935 -0.22524740598172174 2.3646260939331403 -0.8771354430171088
Ni 1.857751769063747 8.308768592921377 9.754166824494853 -0.6629964882437227 0.4739728404807257 -0.8038957696956671
Ni 3.0210509404668717 8.495379960962273 0.4184212126534267 0.6379585714384884 1.7568641006826904 -0.5022806862864834
Ni 6.327161186506617 8.853415111091413 11.840622848214972 -0.7337465623740912 -0.9747023802300052 0.5420245418433246
Ni 8.500016268242792 5.4364566453487795 4.469436094607778 1.1174531130683918 -2.0120525171982186 -0.04075558465080723
Ni 1.6659245553322661 5.4682208696337655 5.7377439463057085 -0.5150963499939128 -3.777404857857578 2.557959681925401
Ni 7.981200604921361 7.722984046659112 0.06346405541329724 -0.4917543328338628 0.0401410909952599 1.5904782449238672
Ni 4.552062633544983 1.5343785352699164 6.873002657684074 0.8852503588147592 0.3551315672700852 -0.15347017613841954
Ni 8.397907119802786 0.7290050456295871 12.631225467616552 -1.0179478211822017 -0.3415309457675151 0.718780170872246
Ni 5.44072499173402 7.95794547633971 4.382110695037856 -0.13472297743790346 0.33808592464170806 1.6539531255490614
Ni 6.443105664609124 5.811997535070833 -0.08103694786959842 0.37349104361387936 -0.84206353901464 1.5657357478718648
Ni 2.7193230063378455 1.2857933534416035 9.767980996405875 0.2669591838982112 0.03308058460405271 -0.8843088208370963
Ni 4.074697765076765 3.307517696464189 2.824482550599717 1.3891958343981754 -0.5946249416478598 0.5974796374878355
Ni 8.955377075173308 1.8077642814400543 7.1591198508308755 -0.2685265283853311 0.7860438291159109 -0.4502860383867471
Ni 3.085701669767445 9.027249037043736 5.254006915033492 -0.49970238403634587 1.9405426820836904 0.6790447999558369
Ni 6.195587569377121 3.3632453740542387 6.428607085432882 -0.5506174257186582 0.3034377384402193 1.953426994245526
Ni 2.6278479277714117 2.6552978105592477 12.788171828280033 -0.08723804448306266 -0.009634180655654375 -0.5111689899150487
Ni 7.4849501435029335 4.591747216100855 2.163441722132693 0.03026702641465755 0.13854672205936786 0.2108489711682046
Ni 9.172713177970026 7.584593953944569 11.50583454754734 1.08049196246301 0.0769240641515643 0.22428684184066533
Ni 7.379676531363526 3.0125602428083016 4.5971258844876 -0.5373577324952746 0.001950181747835351 -1.691230264732965
Ni 9.017249699714522 4.549256931718478 10.63785711108643 0.20113997141055678 -0.5559429516966297 1.3545715594560865
Ni 0.16834486929699427 -0.23827859715153982 3.8215360696134155 -1.1887022383223658 0.1855300327874418 0.3399944545183306
Ni 0.9936691986793673 1.3541696868068793 0.6254148545860821 0.912102446010597 0.07292599873576473 0.3453760305452181
P 3.5523956722725627 2.1365281423497264 4.763739497772305 0.11616989702606445 -0.7105845224353311 0.09351719262355507
P 5.151627315335456 5.134231964011127 1.824815589327297 0.7973767376302268 -1.0616478331733135 -0.16622953268661694
P 3.4873125889200365 7.573490733929516 3.807426609083931 -0.6638770910764631 0.11074178403195765 -1.3513872481908338
P 7.437354401698557 7.149084637314371 4.206140756088437 -0.26621047865764474 1.226624724399752 1.0311445223781337
P 2.2848531792368125 4.77264599124254 8.036993595570324 0.20260524310217362 3.244045447888419 1.0374313838281102
P 3.238506630554556 1.5368898683801977 1.3306413472604828 -0.7771010181003261 0.6422852238383002 0.47706150670837844
P 6.6433775808872655 2.442800393535452 2.626512229721548 -0.07476845126114219 0.03763812206774808 -0.9026680400705743
P 8.165254644740068 8.456845256204149 9.834585598060382 0.04338145230942852 1.2938336181460814 0.3951870405300742
Ni 6.550513449941152 0.8199456609956279 0.9768883420501548 0.4793505598528712 -0.636066496622098 0.7514370376753187
Ni 1.1669051881768615 6.69406419421199 0.42226088459566613 -0.09206657621995758 -0.85331648622064 0.22769612463253042
Ni 3.2591676348244887 4.74568365664095 0.34794934198953514 -0.10485858577830327 1.949200357758688 -0.4747565127242856
Ni 2.2038097920515467 6.110910568350972 9.958465152869588 0.9300595447096499 -1.4378138525161948 -1.5130728702605103
Ni 7.201813433607894 6.271488703050859 11.158282603324706 -0.649254713177598 0.6735855766134786 -1.0504450224789588
Ni 1.4614302877807954 0.5270579873756871 11.7424591604746 1.0392129012085651 0.41221674231885136 -0.4336036926350597
Ni 7.935591851951492 2.6324106428728755 0.7241258841581836 -1.5782739895481916 0.5293299770947916 -0.9928736518223933
Ni 8.648267712950823 6.406778725222676 6.741085917019731 0.20235018966857407 -0.5120372514526149 0.6049237524707066
Ni 6.28146964233531 6.340113410020448 6.568898616073782 1.0075556793146003 0.08753757800135246 -0.4586999734820552
Ni 5.082901419119665 3.4236185579471896 0.30222744104436755 0.9899451653216886 0.10355015137952489 0.3862532283755542
Ni 5.5513248378325954 8.518681084655835 6.9399715406249065 -0.719276136672058 0.1404817342985516 -0.5742934291793593
Ni 9.122173749003416 2.29982918767468 2.6488207789000935 -0.84978533313893 0.7790285741403421 -0.36023366438334087
Ni 6.881549469379174 0.8958615131051766 7.9870033482399165 0.4589249450086677 0.9272976656937965 -0.27634293910595636
Ni 0.3214129221242303 1.218686485165041 9.53378032587627 0.06130409822612022 -0.3322245807649246 0.5485762269189133
Ni 3.770872453844647 6.905034573520376 6.127948997606881 0.44034203980015774 -0.74517691569822 -0.8837460063550909
Ni 1.8619097271804033 8.167453211089361 2.3287490742391563 0.13284684346111317 0.02157978305330477 0.5027447704070955
Ni 3.871776530352613 6.769900934729052 1.6421404829636503 0.019200227077534677 -0.13855906335454202 0.8586412408676632
Ni 6.409152072997228 7.219705532140851 2.314194381026384 -0.3526010875387476 -0.6467319467557442 -1.8130496467353228
Ni 1.247258648683479 3.0536430767662357 8.358977776984476 -0.5829865860779831 0.3773525834518146 0.7965475568607121
Ni 4.560838500897394 -0.08564197847401885 2.290888657821631 -0.334974632706236 0.3088514532566229 0.17938303934943947
Ni 3.0457687136072584 3.5526348468544944 6.507328639368935 1.4595890394097573 0.3393038562092092 -0.8340902910011765
Ni 2.3453735474878754 1.418967600465564 7.179544440225591 -1.7504175737263983 -2.082450607305807 0.025138446938840577
Ni 5.7587627925463005 4.811024312620172 8.754366477397895 -2.4399110798193853 -0.5618544320850581 0.09580393177520274
Ni 4.632434492096364 2.135810618603932 10.985705263829763 0.38266293992113454 0.5529717848834477 -0.1308634944824972
P 5.512394575112046 8.232885857292404 0.3877479924229442 -0.49615940388009383 -1.2708762380189598 0.0666170257986014
P 8.984915136041854 0.04553976030200435 1.7724823509961987 -0.9632365456822508 -0.5609751148038984 -1.421996425867964
P 4.822191925791898 5.031294903556743 6.060495326186517 -1.4247210238879788 -1.9485706945944894 -0.5351113596632591
P 7.639990466728867 5.124140636458092 8.479734263694997 3.537003369843237 1.4356029609078051 -1.0248566324868928
P 6.234766205701985 1.0666266451908704 5.529810164285614 0.7009475135661992 0.04292431016735188 0.4195053055604646
P 9.071036383581975 3.560996758199716 5.831653086194415 0.6164422946332674 2.5065802990121604 1.037578965149568
P 4.040716576397721 4.408281913714596 11.683434553262847 -0.31407876309383326 -0.3076625751548443 0.6040619186910436
P 8.591712123346394 5.539402904825545 12.797851959532592 -0.24444480484577902 0.6228445986151854 -0.22723281184286673
Ni 2.935030882172953 5.56257524220576 3.6713758277611244 0.30426794765099857 -1.4836049427083802 -0.4821767164477567
Ni 8.899539009314674 7.033140159211864 2.555625483148229 0.14851000391966682 -0.8047236649136011 -0.8099975117180308
Ni 1.7098130911167047 5.168277545846844 11.955226108854186 0.2003359874520227 1.7182600151572474 1.6262505174274702
Ni 1.9071321212102292 3.3685072148567325 4.3641238465743655 -0.9873218687662286 1.6888846473189234 -0.7577442108402692
Ni 6.762725697271105 7.334408142221791 8.671133722885717 0.33946095061236375 -0.6645962286306748 0.8969514493017713
Ni 7.85660904577979 8.66287576049341 5.874225241875992 -2.0175096836580484 -0.29256891404651547 -1.918779579374986
Ni 7.969821414234849 3.1297741859995227 9.214609205506529 -0.8990543545773871 -0.15021798774970904 -1.5659512063167806
Ni 5.183354743530913 0.1093699368061045 9.50581621773728 -0.5890803576805468 -0.4077399374944204 -0.19113169524493534
Ni 2.1014522700072273 3.5125179102466686 1.6344528599590276 -1.8221369537485714 -0.8787711788483188 1.89413427002248
Ni 9.14698351236762 6.443216052877709 9.346890227457198 -0.18977672387893765 1.05805317384352 -1.460496124605059
Ni 1.7087552035427767 7.332145182715823 7.206161811487858 -0.025310453740330602 0.4975004912890206 1.034369971293967
Ni 3.8380989094121754 3.305282334025367 8.823031660065965 -0.19639577185735207 -0.1814764315433584 -0.8172163980639733
Ni 0.1936716177190685 1.850981288590608 4.813299230855236 0.7735732074527257 -1.9889365000060453 0.5115286872473126
Ni 2.2988908873917175 3.588612223390428 10.499383307268207 -0.3379802523017792 -0.3345362596172367 -0.14263529030644467
Ni 5.686035321594347 5.282382219472955 3.9698528273803575 0.3474588812161758 -0.1114120706261049 0.5550152976760376
Ni 3.742401479572411 8.867820780141598 11.359403589368705 0.08969576199493585 -0.5227011589243643 -0.06723846143268421
Ni 0.48285852463473766 3.8037497598378525 -0.03404282212900262 0.28226521812766225 0.09362209363253554 -0.4199004841163543
Ni 4.346639264732931 6.518795220768077 12.728621956890269 -0.5533674776599696 1.1977496932366147 -1.7994508250049652
Ni 6.971699888722603 0.30005279215326686 3.5314071828058315 0.3808582826122279 1.2427493978757564 -0.29790241044428695
Ni 8.92949102619041 8.821062149373981 7.773293500066176 1.2749203261813462 -1.8501547791177362 2.133731259857654
Ni 4.338958081043976 6.893075844423798 8.526573845859575 -0.33874232727878434 -0.2983518392768797 0.9375864492143143
Ni 7.352548614359059 1.3021768123039141 10.533755454398486 -1.089068905498744 0.3704134331298201 -0.27883356673829396
Ni 4.457929037510156 1.1495742300092067 13.153777773829544 0.957492958330254 -1.0587584274406603 -0.29303685482186953
Ni 1.9412328971802382 1.3015972738938495 3.1104911952824112 1.8679051611226218 -0.4660039633426361 0.28304529082679636
P 2.0263790483478683 7.841485852983812 12.242366233289864 -0.08084319670031238 -3.033641277567117 -1.135640582610696
P 5.064291796840914 7.2165870635533595 10.658066443357406 0.6910060860827713 0.07111748477211623 -0.879421410837808
P 3.481691986244645 8.704657720152374 7.6848504192768425 -0.4854551300887124 0.789263107384157 0.3616230885316998
P 0.3267603138348767 2.217396748109735 11.680202936700056 -0.14083346121101553 3.1725332987810457 -0.5675579102277386
P 5.710697900600442 2.361048681626773 9.04516873264384 1.1021414224119856 0.11673091173585702 -0.013843076530679385
P 0.8488361106884821 5.086939789945355 2.7084516016868188 0.04368792780625379 -0.22463548342933573 0.026661311341270214
P 0.7857032200809363 9.179437663331255 5.870873118119997 1.4552680434369 0.1093166215496569 1.1139502421214558
P 6.365300333302316 2.20108688142648 12.55432072060094 1.3615423343469648 -0.990329802354617 -0.7838920728802306
