# total energy = -381172.7264815667 ev
CRYSTAL
PRIMVEC
9.21061675436856 0.00000000000000 0.00000000000000
0.00000000000000 9.21061675436856 0.00000000000000
0.00000000000000 0.00000000000000 13.48066864342531
PRIMCOORD
 96 1
Ni 2.5351024961669633 1.127858430591225 10.481422013565082 -0.5203516848555813 -1.2615539321767695 0.11802906172199028
Ni 7.555551737332645 7.925883001164852 2.738948179720296 0.3362954084001886 0.2649398394753372 -0.31784260101163975
Ni 6.606729273273876 8.39537576390067 4.87335569319144 -0.9079683692375653 -0.9538409633999638 1.2370163520467212
Ni 4.176756755602717 6.456071216654297 3.6230918515070107 0.5193042174276733 -1.1506013176855863 -0.3333972609167871
Ni 5.0120675800099805 0.5264806901012685 9.768928314815485 -1.089191290009221 -0.8716278829353183 0.041789939452592545
Ni 7.031329490435089 2.465120230825179 2.3919824082175234 2.47516321815346 2.0022668985663645 -2.5384635208740023
Ni 2.6141203764469267 2.035104171071051 1.6715620527749628 1.7860180965388273 1.0278612236411717 -0.3427571048651323
Ni 3.268866271957068 8.068527821294914 12.524174680706126 0.05050546494871947 -1.4807201649614175 -0.7695283479593908
Ni 2.8574464472286127 3.0059768514009746 12.371263707252828 0.1456229121798589 1.9356377885829048 1.4347097596695744
Ni 5.703195411305861 6.176427684403454 12.803709527680445 -0.8210671392686312 0.7395454284440554 -0.3348342504736298
Ni 8.067873867512436 4.501642836861041 3.3283235656476204 1.1743747659561 0.3236242406904233 0.3813200527399949
Ni 4.22724935610333 2.796628745458173 10.380222205195802 0.651030317020782 0.23522122936498197 -0.8455347853926922
Ni 3.8448337632202656 0.1824033679813836 0.8394049435102405 1.6116353386174567 -0.162778598023539 1.3755162800285539
Ni 7.3268244939485285 6.283786632129676 9.163700536563898 -1.9898692962329603 1.5473803852931287 1.0856488240736013
Ni 5.884184028569095 4.42291048569737 2.6430868447640337 -1.1415466636824856 0.5180243222739852 0.8683078174231497
Ni 0.6447643502415322 7.142731898872688 2.058605980526973 0.24561954188017052 -0.4492611966666585 0.17619050055407073
Ni 1.1334584855172323 7.059403449998363 6.963398429422289 0.6704889399660259 1.6422551203858426 -0.4351710371221795
Ni 7.0985762026304515 1.9503757084652242 8.893507097000693 -0.12001755290692878 -0.6840972747780799 0.7013830584417211
Ni 0.42351520651929925 7.304369010544571 9.287290432958887 0.1292123320323194 2.2732382889477623 0.10042368993540124
Ni 5.173833640315029 7.258564613921158 10.429332292136555 0.8559449249824227 -0.3170303895229895 -0.05127499612489234
Ni 8.49690439128452 6.628116325145897 5.151583553662468 -1.1984847716304263 -1.6325792878589755 -0.9351179330691638
Ni 3.819007194120718 5.0902472941743735 10.886947043634581 0.13690892934562873 0.20571730636859412 0.8568715505617501
Ni 8.724710573003176 0.2756774407193643 5.567758819769702 -1.1249787320214755 0.14204882167535535 -1.3099202392952989
Ni 2.8771203244028754 4.366403352521292 4.197624328695419 2.318421313242304 -1.0792876577422637 -0.09460219815761771
P 1.9370111036993742 6.163523610470335 3.702236838296808 -0.9486023407088437 1.4389567078713863 -0.27676177181092987
Ni 3.746234111932585 4.141286670865785 8.330204203637594 -0.43670675704041567 0.7235901906663796 0.0033851144221490087
P 8.709927533272515 3.9676481256929357 1.2085811960139583 -0.8024937471418179 -0.2998343373596772 0.24803766440335992
Ni 7.818929320571433 7.78880139349418 6.895523553171081 -0.5367352684199272 -0.25411780915916876 1.6504520543743382
P 8.292005013185898 2.463259686260946 11.637726512632428 2.751995695301325 0.3219635651585487 -3.265624716721092
P 3.5053028014811 5.691857142204027 13.151187409469212 -0.1472751030713012 -0.40810529125363915 -0.009189636919068045
P 7.618257615517281 7.595608709163577 13.547532217919056 -0.7797700802920571 0.5435204096625608 1.1669633039833773
Ni 6.866892351300202 3.975771889582308 10.989940159066515 -0.6920777218803953 0.9971424544010762 -0.7803488356136625
Ni 3.0072847589659304 7.7321561010682816 5.282561285676126 0.6040403214244887 -1.2644937315313836 -0.7168387308751589
Ni 5.574799415140492 8.752462160983539 12.447550639694697 0.7188547328639233 -1.4535412905537806 -0.1539923671904767
Ni 3.624064492625738 9.163439876112573 7.207587534984512 2.138693488958936 0.3477113635466141 1.3504403108965322
Ni 1.9944669303908784 5.581642903314873 9.252416275119508 -0.22096754765944523 -0.745345065844968 -0.6840227127864026
Ni 3.593365507315898 6.747937237205817 7.984262652706814 1.2251365698899999 1.0720026940450762 0.6614797944888801
Ni 4.062858270051717 1.2115645147483889 12.264631477180655 0.49183069459775297 -0.823414299344569 -0.2317510114281944
Ni 1.5973788251770078 3.5601428130426926 10.619706527770846 -0.46186371592201747 -0.41942920090689056 -0.5139162136428826
Ni 6.146530022742566 0.862237141135372 3.375748109740581 -0.917417173355291 -2.7467143922977275 -0.2695004622628262
Ni 9.032492539133875 5.346624808755653 10.1626444132721 0.37256981735119066 -1.9868788461460682 1.7456571762232775
Ni 8.892666167700126 5.54876100185789 7.718370571121316 1.0752250576371158 -0.8266898847720472 -1.0732399088862872
Ni 1.2455056371206545 4.067657001328772 2.663240595066002 -0.5655586204095228 -0.014860719161916343 -0.1969778696130672
Ni 6.404040443172363 4.283811752979337 0.3712495623126721 -0.48954369833578915 -2.2573858952965384 -1.095889527965003
Ni 7.710796681046224 4.4783860298081315 5.769456587519179 -0.9291655721404707 0.5618850282126775 -0.04167578247223145
Ni 6.260796932959751 1.5455783171114388 11.25451143822374 0.7633440735255499 0.29063827268270587 -0.3095590208466088
Ni 7.926840905296933 0.07421270157124976 12.087912901798502 0.9022003564055365 -0.5907816566423697 0.13258973314498454
Ni 1.2729072216681416 1.1856642607156045 12.625858967511437 -0.416174955635651 -0.044937998163270994 0.3840528782901257
Ni 0.9067557356738003 2.0315304518090596 4.2050784807540005 -0.5471477220025028 -0.1857668313885962 0.06241018680610542
Ni 1.5196227993787266 4.296255296079726 0.4388223303376081 0.9754426008301395 0.5601886143468611 -1.3795251440776306
Ni 0.3972069221687152 6.545303670804231 13.153573880244425 -0.6178178348245553 1.8400775973873922 2.0328560842071313
Ni 7.165288699059847 4.1001612675029175 8.000885052583403 -1.4762906684351542 -1.2209495283918457 0.9483768549615991
Ni 9.126735568743921 0.2414314469358309 7.839790446232477 0.6552487259775037 0.2984017186782087 0.9344998398691906
Ni 4.172344870225155 8.64186107619489 3.0740101502586414 -0.12136558229439097 1.2091923878559174 0.5799984499839367
Ni 1.7491053133285221 0.02664539292014303 2.7803342435344893 0.4175623229014808 0.5753552947849704 -0.5336548297223905
Ni 1.8833776829195363 0.29014916160709936 5.966152990425198 -2.0118563420270124 2.423470674875175 -0.1387323557076127
P 6.0069154954918735 3.113271324810614 6.117473290382245 -0.057661102156894246 -1.000383329935877 1.563636956361307
Ni 8.831830044696378 2.3508901630746126 6.423403922565366 1.6261960100404511 1.1920140763044182 2.713589327608985
P 6.517984981806635 6.191763361133392 3.700012474374718 0.3631163852477747 0.26600016241905156 0.481223608505868
Ni 4.616287382361065 0.7920448737338628 5.058917381623693 -1.396202090512679 -2.103415382482932 1.7885676024335584
P 5.240251397011475 3.086661853295424 12.364590615486557 -0.44622061006812186 0.48027050056397935 0.7859510122917883
P 2.995089902515217 2.042527928094673 3.853098449544454 0.05242376501735487 -0.6969137098164577 -0.05703503853712112
P 1.2401174263777033 3.740689320706505 7.089834406363554 0.5625211191347795 0.4814082137128483 -0.01793832964597556
Ni 3.8781393530433625 4.273109016426671 1.788359119387171 -1.782580274501872 0.30296671234107175 -1.1131241466757344
Ni 5.367219747595378 7.343606237493241 1.6001014834601128 1.1369402752587259 -0.16259116460308126 -0.5353085632757297
Ni 2.8676241786319645 7.658001426381956 10.251818840537108 -0.4542995304215144 0.3589550547812334 -1.236483876582019
Ni 3.112092365878823 6.853011952001694 1.4925656918941224 -1.3064111977007757 0.17961135331016162 -0.2842369971420524
Ni 1.956113922641051 1.8368272263470995 8.353943647003206 0.10438267458314926 2.0867322654002964 -1.2132333906945105
Ni 7.662090940176606 2.383081268282501 4.608150723608376 -1.014288884273376 -0.30029842148028923 -0.5950509734416848
Ni 0.6620434670855947 4.504986290706667 4.918893902993535 0.22573488714110154 0.07405008503787892 1.4099860316706492
Ni 1.7724818583979414 5.75451696730539 11.654941155159907 0.2717805165462545 0.05213837256645214 -0.0057818967890997195
Ni 7.41299902336913 2.008255223522841 13.312995838610872 0.053351161927630696 1.6956659319068152 2.934290251870604
Ni 0.0056893979075572435 1.293870585174051 10.02928021048323 0.7210075175408679 -0.25556148358423086 1.5977148718816225
Ni 8.679993029145006 4.59786614905183 12.554654453339586 -0.4709451093979954 -1.5292528224544824 -0.5182120128047591
Ni 0.909773133689853 8.27874172520325 11.56273367183053 -0.04482486962417441 -0.08042102156122924 -0.23041275223274513
Ni 3.42679150511714 3.0608629160458403 6.072448111927812 -0.4046898378141869 -1.025772202322627 0.750571861461546
Ni 7.620422110431116 8.815564095684323 9.69714353179439 -0.7887298605885061 -0.7671642186025885 0.076535570463894
Ni 2.7538177992475106 5.415363640849064 6.4176878138695095 -0.7179365919250281 -1.1870279359437363 -0.8387948955656974
Ni 0.41464446161923707 1.8941080513221658 1.5202288579546004 -2.0027983455898024 -0.09363314937612907 0.3243202383161834
Ni 7.409931888023142 5.884524821385316 1.4770771189277174 1.4403286485182485 1.3533438576965726 -0.19925303880048909
Ni 7.665655448821943 6.826697220219452 11.58830602791041 0.21287114380455596 0.2168033889794266 -1.4116886161840527
Ni 6.605485840025503 0.3204198532424999 0.9863115159663938 0.3712960928450896 -2.3091044067167523 1.0206472223912357
Ni 0.7856259949872598 8.057760610425666 4.5349235580191705 1.1916528363102574 -1.142031316628388 -1.6946624303429656
Ni 6.742502973379593 1.0466668447807714 6.817457129591539 -0.6377228012785985 -0.3147012271691806 -0.7226095719206652
Ni 4.641874475427593 2.0905244514818846 8.02199486489412 0.9348582516498739 -0.5690591773636136 -0.8452550493687443
Ni 9.161146432565571 3.2723478850525134 8.913485845586223 0.4005624459093747 0.9073651884359276 -0.9663231550273745
Ni 5.131372697537241 4.834017149459569 5.135406947631964 0.4725394504683088 1.4242980774179472 0.710588379090073
Ni 5.248992272216706 2.1454289373600597 0.9744519259619082 -1.8526826877459124 1.1451973730611955 -0.3695904230078925
P 1.9055292159738917 8.736140948271556 0.5488145933653851 -2.374177485067001 -0.31776649635806564 0.4782552699061634
Ni 5.0315664554678055 2.7210740570403456 4.197165639986019 0.49955608826646875 1.6222174850086772 -2.0738453821352993
P 8.39180204463868 0.6784208645591701 3.2090322640453417 0.886059742089932 0.5306152715651185 -0.05955497674549743
Ni 5.807680646635842 8.2363544673587 8.214499516160624 0.14439623886160938 -0.0517665910493302 -0.43897909801436014
P 5.32224430647088 5.097348679615084 9.454707206581542 1.5729170961116523 0.666344321670033 -1.3185776578599808
P 4.9029309832694175 7.617529976801567 6.2634016953496765 0.9095416272619561 -0.06088140886640482 -0.006025380258473494
P 2.014094754481868 8.985555236661943 8.537590448232962 -0.961839408224408 -1.9066257176212713 1.16417314283275
Ni 6.118437641945983 5.986827140568153 7.278657574153206 -1.6064075145596142 0.36314081072780685 -1.3468356242644095
