# total energy = -340867.8959307173 ev
CRYSTAL
PRIMVEC
9.28378065531664 0.00000000000000 0.00000000000000
0.00000000000000 9.28378065531664 0.00000000000000
0.00000000000000 0.00000000000000 13.58775140798196
PRIMCOORD
 96 1
Ni 2.0369728899488653 8.178964373783113 3.582750227082458 0.1892553041578289 -1.3687532502731072 1.3067135594325432
Ni 0.23100367315439738 0.11518943735679699 2.9207145419096165 -0.18917251463603552 -0.2509039302075614 -1.0279139312559782
Ni 6.5472285111904 0.4706886096371049 10.474294668327433 -0.5609859134371759 0.10034321440645298 0.8149854518509254
Ni 4.456641787725343 5.602028231025806 13.493968742182071 -0.19830044507923267 -1.3546502352128218 0.3113981309378766
Ni 9.04759203077168 4.828819272025017 12.816265748707597 1.5743330026225724 0.6982378279445202 1.0850155613649766
Ni 4.229829741554939 6.478110763912816 11.132132227869796 -0.9004190961353976 -0.5498862039795884 0.14002510637710724
Ni 6.356056899109808 7.275773201265405 11.970646085416549 -0.07427814188828498 -0.03860254286354642 0.3756039761918241
Ni 0.5648493553406505 -0.248216730941821 7.386967827788953 -0.14028041692102292 -0.19540564002994087 1.0811069703391896
Ni 1.439756561591617 6.938539867503385 1.6752201629921057 0.2965880625082376 -0.702810534916867 1.9512670104797298
Ni 4.556340308613722 4.248239478674005 11.51790209548567 0.6942593029127463 -1.393984256925754 -0.06570608394855781
Ni -0.19048554068719947 6.449228922169288 8.547402351218663 1.9811568560606267 0.9949729575535833 -0.8480814630739458
Ni 5.510025964333951 1.565514654892108 12.333833156490755 0.18269333466959503 0.22031911544216895 0.24053569959935994
Ni 1.3589876695412502 8.434797518407477 10.423598727083819 -0.5367848907109402 -0.8038692873331059 0.46371619574972395
Ni 7.208363669635784 7.059516813745723 7.472393464236155 -1.3897313951866712 0.22461337194214867 -1.3014942200151327
Ni 6.96758881729943 4.630090662458332 12.49212997275071 -2.0168815631557457 -0.8131828514245479 1.3623229212667312
Ni 8.243598054984798 1.6403140759553043 4.758049940161714 -1.894782188019124 -1.626566763116308 0.5294464480679978
Ni 1.041890856107648 8.652260797417568 0.14350311172176358 -1.3764986985464809 1.5526820000117 -0.7779692796378924
Ni 2.0734024453977895 3.6433825988044064 5.143725113214494 3.331498950816398 0.2137751436760641 1.157073041452859
Ni 2.6359902717610297 3.0038600818180177 8.054968342058618 -0.8277319528833164 1.851308175995889 -0.37151617927569563
Ni 8.961540667505606 0.9182958837091958 11.288677194712518 0.2637062241785523 0.7188686168209942 1.2455210470836227
Ni 3.0374302328127447 7.347100488348506 13.306702816640051 -0.40975285415939106 0.27142750408220995 -0.725160363366977
Ni 5.355302475263674 2.3374795872797076 5.912017381958976 1.515763786829112 0.4750269927768529 1.9865422887422561
Ni 7.1907801889986125 3.7292482864565724 5.1362785927186785 1.1438573140935333 -0.2360907764541289 1.9815366079975485
Ni 5.4835207704484565 0.8329389472391401 1.6607086853870567 0.10295545521831946 0.21848514755722373 -0.23404623522027435
P 7.467492556407031 8.91274511617035 5.726490308541213 -0.24123118300448776 -0.7502481595735402 0.4253720487538868
P 4.502726475097529 0.3129748148048244 8.765363240874029 0.09217687654557673 0.1403891745847453 2.085436943627641
P 8.726298948463738 9.185289066046513 9.4539366131648 2.0594929700683693 -0.15001307082775456 -0.25379025061642096
P 0.9072491130596863 6.568163436658628 13.354069594126278 -0.1526826472401177 -1.702287808098707 -3.2260657234815473
P 8.30621715577557 2.886949431520285 2.9327398230444257 -0.07915681013682496 0.21371369431050938 1.0689237980094364
P 7.639799526114479 2.090558872122971 7.04772177037216 -3.763441967919583 -0.16537335533390873 0.6865637340407015
P 6.342224065873594 5.3006302907482015 10.668572633428724 -1.6753174501574504 1.4650955710502833 -2.1008105978702334
P 4.001420885104918 8.873344750898884 3.8253734801552737 1.1877673852129222 -0.1013577717138964 -0.9993181218961563
Ni 8.230749302502304 6.7671612758654796 0.7249611507265644 -0.9162084977591705 0.173091807024089 1.025668586865227
Ni 0.8172614267787429 3.955169089680214 2.1626260765274976 -1.7841820717713532 -0.15254123656624696 0.19070360656858124
Ni 3.303716914500179 8.481652759577386 5.831414669583057 -0.850363060019271 -0.2811897256752963 -0.9842146905958146
Ni 5.933022864160488 4.809564710862665 8.553367180315485 -0.7893924338731696 0.06412074173930893 0.18370172132945137
Ni 9.066577362293865 2.022285948888672 8.965334020297764 -0.42498715461064235 0.6397303186269304 -0.5978154235606994
Ni 0.1416509974730224 2.7004197097874143 6.562258952136325 3.990054115459315 0.6130116716851636 -0.7313335820572244
Ni 2.7904816663139216 4.4076048580920055 9.990679322449992 -1.5403396763962633 -0.24134276888168754 0.005034477100113911
Ni 3.948846835026616 2.369657171170118 10.027176649497992 -0.29870690862345334 -1.2480435563951604 0.7124046063632054
Ni 4.54682443340089 4.604495279080992 4.813596656818697 0.9298952512176436 -1.7838786815983214 -2.2020570408172464
Ni 8.608719865955935 1.3022452019306934 1.2308120797476652 0.43555850236858534 2.6823717643555995 -1.7243537867598109
Ni 5.008748225683426 3.4091899469811233 1.6647443448553663 0.4906621282109485 0.10877771832705137 -1.1632038369409452
Ni 1.1636569237090981 5.021829072683308 6.867127169637887 0.10997970905495252 0.17830034780822196 0.8671554489862613
Ni 2.9108551668110545 8.128999066080231 8.310405069247286 -0.09471429825544979 0.05099937386600249 0.8944996453271692
Ni 7.231591688935786 3.3240298266618113 1.1095102011809876 0.9448274470474437 -0.13078816115987155 -0.6400810170981299
Ni 7.862211060235243 7.6800911343327085 3.5734831571922654 -1.9540232330686285 1.5415501517645966 -0.17674920127101817
Ni 2.0970296672676954 4.60404965760761 12.39913526990251 1.1766453071578318 1.6193329643720302 -0.6626586452883297
Ni 6.945549121928446 5.170304577345552 3.302448750057181 0.3668899933575939 0.4461146806178769 -1.2037334216238755
Ni 0.17841662578312162 4.697648734579081 4.631263203960167 -0.8419946334499177 -0.4476174904156484 -1.4710918978430343
Ni 8.025002154729863 4.446828831530258 7.402036332235729 -0.06366617070039358 0.07407245363538212 0.14316236645450828
Ni 7.032371038992243 0.15997903732196891 8.214257594474915 1.1941861442550725 0.38342758600130095 -1.5274116554806856
Ni 5.50874480259798 7.531921994433414 0.8962450478013759 0.916443496588112 0.0825241839471611 0.551396727086844
Ni 6.053795567227525 0.2693243347309836 4.109887008482074 -0.02731077199981103 -0.2184941464182882 0.11657227467080569
Ni 5.296907494689328 8.764111787236283 6.956452922355246 0.18810859214789538 -0.19631041123239737 -1.1612153457560066
Ni 3.332171702331716 1.1044264028721622 7.070332418255915 1.1685219067197488 0.6566409783393401 -0.23592082653516785
P 1.6520302071929551 1.0678668744935018 5.737346761686466 0.004644697860862968 0.3842022593837963 0.4825001612254465
P 6.785933080431668 5.584435466607939 5.8655604149809015 0.5985111640761435 1.1145030293011322 -0.043459613845531604
P 6.263701848751525 5.265918234727934 0.9200282371869657 1.3241613225953452 1.1009273474992265 1.0109572487969816
P 1.7979990910674288 1.7651530749669462 11.237844781892683 0.6015756619340801 0.056451912340141484 -1.1545752147316697
P 1.8441116297817015 7.137658395859279 6.7996637920802305 -1.9089160563173446 -0.48348926461159314 -0.2422146299636796
P 7.357823255051744 9.058908959439428 1.7972656723924885 -0.5777541340344502 -2.2497744014978673 1.8879574517878066
P 0.37816180933595744 4.34672182429128 8.948254648952355 1.0687445921190948 -0.805471341712903 -0.5951304205293686
P 3.6145843110871376 6.455634730849145 1.9895596935591606 0.6390772584239639 0.6874317384679516 -1.7030825360858606
Ni 6.9753964768643 2.978431806493195 10.428925760446866 0.3013443462463004 0.5584479775066704 1.22994350436034
Ni 2.8048065399269926 3.8647264981451936 0.9320581602121226 -0.22888474562399294 0.47230059498462534 1.2414977848568425
Ni 2.732030983055403 0.9968459521733515 13.074949942383531 0.7310618164530763 0.5577200982017105 -0.07136199668275452
Ni 0.3164738717489375 8.773701932694678 5.088803194998314 0.1686728520207869 0.8376530686517702 -0.0028716651208402157
Ni 3.3323295266035386 5.8127329176896145 8.078162939748117 -0.13773759589451118 -1.1603167452011371 -0.9948228051289641
Ni 2.4517814952020203 5.2272234367893216 3.207347557369187 -0.4685341859636576 -0.2800304152598726 -0.039826387968318507
Ni 2.0532380737272837 0.8804746895340244 9.016926774756557 -0.2798944039026406 1.3082749903823918 1.7009300085192318
Ni 4.916894499482699 6.545260349682966 5.855831941190146 1.6471268466558473 1.4638910092192208 1.7087248219733024
Ni 0.3241849799945737 3.487851420813625 11.000521639218897 0.6646371091709393 -1.8016825425489618 -0.16313932379706744
Ni 7.447810941332688 7.6489997527836655 9.771346290007838 -0.9570347877469131 -2.307686957543935 1.1725418265124192
Ni 3.7700690701744417 1.5522666998397086 4.64538012088566 -1.5334033542877463 0.5606215881192216 -1.410282222754829
Ni 0.9960846821563251 2.1117723110120616 4.037423386641851 0.8242830751027675 -0.24918283375139663 -2.335829224306106
Ni 5.227167734105149 7.025389635909268 3.369830430344717 -0.424924676803823 0.23369399408717817 0.6089501000212802
Ni 3.7662627200893093 8.76004549129168 11.131982759000598 0.7059832762178938 0.8670716310232034 -0.5073336753293585
Ni 5.796347044762155 2.0903824802897573 8.643671443518143 0.022061350675413618 0.751749426709415 -1.7988604997191344
Ni 7.464113260233888 -0.10263498072234742 13.297190654939499 -1.1149257186608474 -6.9419785354719155e-06 -1.567647877292913
Ni 6.133032635463144 2.672159881350481 3.60143383573204 -0.8888447610342369 -0.925831365560915 -1.7763633470578828
Ni 3.3010524694405863 8.768614420873575 1.6692144852602226 0.15602559557042162 0.5713759984222483 -0.514282852953682
Ni 8.447052108925464 5.395074191762958 10.429781725026986 -0.633147266092774 0.45093909858971376 1.1905171800439174
Ni 2.89248256481477 6.187760522662789 5.193903947873371 -2.3101798991691185 0.0757873794439598 0.30285409802260743
Ni 8.843478828401638 7.728589604685711 11.987264052861395 0.032876439013046606 -0.6983668973232167 -0.5639110575037708
Ni 8.911649630048288 6.724130952342095 5.549428186361557 -0.792706585848067 -0.9439854107621226 1.3221309224288778
Ni 0.9631272606874972 2.8510119164482193 13.469551470574983 -0.6843394726958729 -1.6878621195916803 -0.16660645641006144
Ni 4.944105260701047 7.154907660391414 9.008746835585802 1.7109634814958339 0.9570157615835198 0.08287128287393469
P 4.128506559044858 4.055331799603365 6.775192674545109 -0.44648646213499876 -0.46848559211390933 1.2484153379122822
P 4.613565532820441 9.050544273032832 13.24728290667693 0.33256987991948533 -0.12127970744880402 -0.6133937376149307
P 7.960479878896523 2.5282705643517875 12.641432662272917 -0.062477035488298846 -0.2159613526941055 -0.059815172385419564
P 1.5145281313127268 1.0988932695776772 1.3424439723419679 0.5929771216317916 0.5393557367619098 0.9301986413906754
P -0.05081663039265447 6.282222991238937 3.1024231963273428 0.9809581313317298 -1.7185358945264533 0.06495840714925587
P 2.2153514522311357 6.4259823353078955 10.073714385368117 0.637973998057456 1.353309147803895 -0.11157919233158847
P 4.1116193619598445 2.9630950007843206 13.183733571060474 0.04621609354474621 0.2073291309404042 -0.06341960190722626
P 3.5060569147573912 3.3419939423074965 3.08109092504535 -0.8562130910421447 -0.7612362831539277 1.7381680669350839
