# total energy = -381163.5440798106 ev
CRYSTAL
PRIMVEC
9.30410503338244 0.00000000000000 0.00000000000000
0.00000000000000 9.30410503338244 0.00000000000000
0.00000000000000 0.00000000000000 13.61749818970440
PRIMCOORD
 96 1
Ni 5.138452393211764 8.650463529656182 6.317361556830942 -0.6019276459568602 0.7448917803576333 -0.35720336219744936
Ni 4.7490011743056 1.6437282834940783 1.5133535845107418 -0.4511702407639133 0.8657382569237605 -0.1841822605102957
Ni 0.9362069377417664 5.918285241504538 5.371803063350187 -0.22255134720679734 0.9385642397465515 2.304099754413309
Ni 2.2427916795405003 7.463241148394196 4.0124640473100195 -1.3515268590924916 -0.5815164292903598 -1.2008103344398091
Ni 8.495717658547976 2.0429115960257334 5.076113030200748 0.07720122907235091 0.4482530671171184 -0.648363054601264
Ni 7.494605285690118 5.710636230478026 5.131059351534119 1.3666184633182916 -1.007068969486169 -0.20955673471934233
Ni 0.5548623853517516 1.7413655593123514 7.242384960597716 0.43104570209989634 -1.0571489168616957 0.3881496740673186
Ni 0.4628494408877901 3.824740707132793 8.45465492240386 0.5171115806517287 -1.6225159900857025 -0.1868988881105104
Ni 5.3176215394317445 7.7359351561088685 9.69757818789886 0.4058872005563977 -0.9419442119623778 0.7736449412309256
Ni 4.184139667520468 6.903980712701364 7.960816299643768 -1.09118903716554 -0.5079075455549577 -1.0878643436676811
Ni 3.5210547263143797 -0.06906436996369748 8.844796505886515 -2.383593121953947 -0.06102641908470134 -0.578089662996998
Ni 0.2553325481495015 8.23168577240628 12.62594003872645 -0.8969470784263971 0.2324992024481286 -0.7755244176418257
Ni 3.085529580416403 7.5293654212396754 1.3284810220456105 1.334243903642328 0.5276842139612525 -0.08773992382014567
Ni 2.6996325295455534 7.819337151576278 6.220785879370861 1.018514492318949 -0.6289350277836394 1.105398495896703
Ni 8.669183388522807 5.869717814425123 7.8312733876299525 -1.00781536073389 -0.4118339050581359 0.7828294359436712
Ni 4.000132386802154 1.3084362586548266 12.894599786597896 0.7070163454680984 -1.9276010343213577 -1.307108995098749
Ni 6.665097821846193 6.156060943887975 11.38019762947569 -0.3268041810803017 -0.323183810718895 -1.0649843537457142
Ni 2.8343187506952887 2.4985429124062035 0.5719223919212566 -1.930800772205578 2.0311092767193535 2.5986692438296215
Ni 6.03547974562184 4.978263620792933 7.200429030392368 2.141858516950479 -0.33443547237331434 2.493667961825867
Ni 5.158446914436603 0.8346945022724249 3.552995718108179 -0.6119901723991847 -0.9870591020231453 1.6997262180191177
Ni 6.409672232648647 2.0494430775984824 10.016187022413188 1.3092280983242806 0.001907501435358005 0.062322512188305576
Ni 8.49188436736853 1.1399203124359811 12.435744597902671 0.4949561276006121 -0.2518269562424631 -1.0693863394681518
Ni 8.395838093471822 3.622488076892883 6.660781647627392 -1.0587867095754346 1.313045672298158 -0.0321632149961059
Ni 4.28432626805517 2.2622093462674617 10.660566991320339 -0.6046681848164748 -0.017092950926544757 -0.6143075076784517
P 9.54452287263363 4.15740897441718 4.646072654085016 -2.1020802086112766 -1.0605905955533927 -1.391094851193101
Ni 7.776138192969051 0.48429168082020785 3.1883604075365404 -1.3754851696803023 0.14360202509508818 0.29190505521027144
P 0.5290909454538066 0.18401193277071629 10.804504283877174 -2.3433209046974612 0.6813893889286137 0.9768366529641888
Ni 9.443666376553002 7.422479865245744 10.251579013145717 -0.9445541387813992 -0.19454663446375528 -0.41460452582473756
P 7.132405789756293 2.282855154828616 7.890359105190839 0.7284943128362164 -0.3909760877725202 0.22423567688775578
P 2.8607331042352238 2.094586594109847 8.049684456683813 0.688922206970549 0.014813667974064812 -1.5577817831321106
P 5.4328528774353 5.169956092079753 12.942287975773286 0.26433228779832546 0.10548156407428284 0.011317481895348251
Ni 2.5637367747712347 0.3201328468813032 2.588945316328509 0.5266771128529768 -2.566818160757296 -3.726321666028518
Ni 7.169417518668538 7.508896390669808 13.322719795481984 1.1225079018834796 0.6539883712078415 -0.041855502583205334
Ni 1.7533771586149425 1.6398856882098256 9.772406450788937 2.1981862450079306 1.4935944498209244 0.844216837912217
Ni 3.5331872789794287 4.579657162759156 11.873273315641812 1.135693033115186 0.12513276264630707 -1.0868464439261283
Ni 5.225482989552923 6.363635522076051 5.770115511672142 -2.112889640521954 0.3029129762850009 -2.436142613915888
Ni 0.6563524909695622 4.137916874851783 0.4603159331495286 -0.060359474924663786 0.06831292544378557 -1.1866607824123048
Ni 5.495199683730158 0.3494686893298467 8.568878625857089 3.521909194514276 1.4618582950599082 -1.1012165966048713
Ni 3.7795134536781885 4.458238595060617 6.794504893929863 -0.35498501438989183 -0.3316491678774288 0.9705037687676252
Ni 1.063849951554506 0.049027049856757036 5.606092517663384 1.2892873935362956 1.5061545458741221 1.428483062033572
Ni 2.783313648157098 3.9440007225166913 9.303106474040197 0.4331167256963121 -0.7783963398729821 -0.15435643539811483
Ni 2.9967684205816094 5.281679782572016 4.885222572748075 0.9238680711869572 0.3004310904034116 -0.8694329321665284
Ni 1.3428428382218147 3.7845562784822198 2.509908806835363 0.1536645515374128 -0.19274043449295192 1.6240727930498609
Ni 4.090456636244101 4.102756662795631 3.1722782623819867 -0.5893960891487526 -0.2957869067631809 -0.1627911964290293
Ni 8.098041610994647 4.312117629106169 2.2568957720136202 -0.6723229078509712 -0.5890057956888695 0.5926760454516051
Ni 5.788167335813806 8.87673005439647 1.6101190657088347 -0.2100437016580899 -0.6483275733776384 -0.8297394702316484
Ni 0.256980305110376 7.610711209545295 6.725491696542591 0.27129303538687466 0.09143228507006834 1.059772984748104
Ni 1.6469475037564303 6.499084679819754 13.244501116801151 1.3739347944740468 -0.5893387535482559 0.5519515711490494
Ni 8.933838649686404 5.858376110668455 12.191037337439893 -1.4795143175787746 -0.6762389550759257 -1.5819403826561853
Ni 1.5841913168501742 2.8993637473834486 5.508917655853893 1.129312583510139 -0.023362843095656536 0.865507114749561
Ni 6.368036363648573 1.6200400326618576 5.7955799161115396 -0.17674354484406335 0.38605268232897383 0.5568508082228797
Ni 7.003088037078746 1.8418219788863837 0.8993282575282263 -0.2124939629707953 0.16546154417234082 0.6002505153647534
Ni 7.630770859503766 4.30484181914906 9.594712005180465 0.10896489463719299 -0.3083387752862625 0.4021979246302686
Ni 7.073901578745686 8.73145576197923 10.56704212982565 1.4672085036282279 0.43330775866119575 0.5022449479525415
Ni 8.941449407416474 8.005158732731466 4.458859178851076 -0.3721018765758366 -1.7591346418844223 -2.1851201558525917
Ni 5.499572612988268 3.9022625083637683 5.216073748364146 -0.5571421142110533 0.15332002371380046 0.03858814468584322
P 7.929990870016027 2.9389620174313396 11.521792148442753 -0.29782116358439037 1.1286456393501014 -1.1779642830795711
Ni 6.105548958904422 5.485216379274946 3.2501703669841797 0.7125593867735148 -0.6163222241156353 0.12453626671288877
P 1.3450106946412599 4.683639838054088 12.0963420195608 1.7855565835213765 -1.707482464925769 -0.7046645574064702
Ni 5.449544441454547 6.315942680848258 1.2115730843562866 0.782609349513065 1.4898483525149309 -0.505734963383671
P 2.2242485986651603 7.06071766223773 9.097101498332638 -0.1818358717653062 0.10655962762981003 -0.3913620103570292
P 0.3915102172993959 1.8235021965263514 1.4674350360691635 0.7212116631318741 0.3266702266055987 -0.0031686275359687362
P 6.950975746068821 6.399754056927065 9.140745193149518 -0.01145606435574156 -0.0424748813347591 -0.3655913291508284
Ni 1.1450003536592304 8.995589993273775 8.715321513837772 -0.4865568477933233 -1.0538010834353853 -1.8294579128900172
Ni 9.491954680488284 5.877868210233853 3.3060015086844574 -1.195528774325896 0.17829751959474457 -1.2702823131887024
Ni 7.678956818286197 3.891488355000174 13.673057488200568 0.23879814808296293 0.9803490369928213 -1.147717568379888
Ni 0.9401704863884773 5.240202083353619 10.050612210189787 0.3454763035685082 0.8610215681743818 0.46924509598775316
Ni 2.3710301560607268 2.6432775667447834 11.882669531083861 -1.851098373977928 -0.12605630290184094 0.3065397744043108
Ni 2.548403610053443 2.137608774725789 3.547766811208058 3.174994872947661 3.0912884957669404 1.265378191018866
Ni 5.142508982906519 7.597266778102813 12.562496278475141 -0.9457887825194484 0.268860257575666 -0.6664404809282651
Ni 7.032526224680138 7.399377773016206 6.589329844370864 0.08153199523722088 -1.4631505315087705 1.9823475339346182
Ni 7.94277471001739 -0.11561931917390267 5.98611588717116 0.03543211555536478 3.121824716682585 -0.29391745765460997
Ni 4.789743849244443 5.129297154084149 9.437647551154981 1.1510954837131855 -0.4579597528819209 0.44618512884449607
Ni 8.086290526626582 8.781651407399432 8.239444465402741 -0.4879015347466758 0.15624311089786638 1.1941005265198015
Ni 1.828796232160104 5.5000657305429055 7.532818174532621 0.11084977036473168 1.147829925588036 0.5887165465832248
Ni 6.07598981794057 0.6661804168745405 12.288647631354234 0.6524433953182247 -0.35302763355320493 0.37702682468127974
Ni 6.000905692168372 3.0766441603281196 12.366227118034995 -2.140566280501617 -0.140126664951978 -0.2792032913728869
Ni 3.5566429271915374 6.783129695395899 10.807935637729068 -0.05646219675278663 -1.5803380711660717 0.5729569697561229
Ni 8.902604769857746 1.6546699107441536 9.406967265562189 -3.0792377352499933 0.2969073935208693 0.6338535481311794
Ni 7.764321979867354 7.685497603963751 1.9546826309857563 -0.9109876156798634 -2.4764767947585606 2.480996794116101
Ni 0.8091640386889162 7.769811401702 2.0142326233763868 0.008704983973165653 0.7582082949608813 -0.8598380893892418
Ni 5.383587642495548 3.9357945020791347 1.2772051700576093 2.178266880376184 -1.2351517880341567 -0.2908421611633959
Ni 1.7284421577389206 0.47256106548271226 13.445535839722156 0.1919235950186114 0.4278127969848955 0.6370046921656514
Ni 2.4568977393013256 8.744239601980595 10.90264584217585 0.20350975719431405 1.064337978410967 0.7195931536918445
Ni 8.503895966671118 0.08517721866410584 0.8299484784116568 0.9009945090228935 0.7124925380913214 0.12879992708524912
Ni 0.6704528618007604 1.0758522467522924 3.770181436559289 -1.103261652059358 -0.45485051782897795 -2.936181812466363
Ni 5.082274208402278 2.811058488684074 7.732655459165287 -0.5154269938604542 -0.35142737894562054 0.8876178306056713
Ni 6.466706395100145 2.80760666580161 3.524630293790743 0.5179705862179144 -0.1985956077221483 -1.2448070517357337
P 3.060482930282727 9.339925607982988 4.547426813305936 1.5035060525076815 0.6734822182663949 1.8956941583104319
Ni 4.376641595925277 7.0358663983049485 3.294862634412527 0.9734574520793106 0.6230723983552753 0.5879855819544713
P 8.911080809334631 6.521563397027392 0.4993131580270501 -0.23638362510419936 -0.05042370386819058 2.145941171660285
Ni 4.06135339641567 1.496648994744768 5.946979100721572 -1.6238753323270743 0.2793992094337769 -0.06506510793044923
P 3.146899455706791 8.091770644356425 12.850751401475316 -0.5589323733422568 0.8799268897193168 -0.006524431382079086
P 6.689121020451376 7.606487145964058 4.001528932933307 -0.38763622476600984 -0.07935169975645044 0.13289466597991306
P 2.007388523882207 5.850839785776821 2.1753136594459677 1.387912082589745 -0.20237692914145147 0.08192537402089761
Ni 3.5855693890286835 5.09853778360052 0.5695433323227497 -2.6258964549766906 -0.10827558187965224 0.7593925450769696
