# total energy = -381168.77512263815 ev
CRYSTAL
PRIMVEC
9.21545660615724 0.00000000000000 0.00000000000000

0.00000000000000 9.21545660615724 0.00000000000000

0.00000000000000 0.00000000000000 13.48775225573365

PRIMCOORD
 96 1
Ni 2.6486696480956864 3.544412020805977 2.555376052577478 -1.7121616155689934 0.5697526038862123 -0.2962196234252253
Ni 5.116937519564041 2.6560143669336505 10.99499986624087 0.510953788580449 -1.260603652448358 -1.3848028475368022
Ni 4.045262866633462 8.484753747281054 8.752890356060146 -2.369215770186352 1.0478273823504534 0.9308113352740098
Ni 0.7126220364126956 2.368980543036455 0.20975761333791426 -2.7685741684852965 -1.8794347590287763 -0.6412758087371795
Ni 9.120177904514797 4.3917548159290805 7.375561127809547 -0.8445824487817519 -1.5637045763744488 0.2173088678609354
Ni 0.5293865069087342 7.305838826950992 13.382426067026469 1.503556446129643 1.2760055888257251 -2.2225070811414818
Ni 3.6342811526853054 8.374887074776403 2.1438110002322786 -0.8874946747642457 0.858581077053689 -0.14172511978734945
Ni 7.933125736086967 8.993585178445649 8.668403050782285 0.7422522858522571 0.38512837074249157 -0.22986330748717831
Ni 4.170906400682146 4.517932846455309 0.9778880304891198 0.35009631883902287 0.2481194254838888 0.19523569011097988
Ni 8.07981737280304 5.703022122646645 3.291349134239254 -2.4351154582029544 -0.8261892909865449 -1.018544060005304
Ni 4.738937924462903 6.780410358613031 0.8274493891563379 -0.08160295768447237 0.7856226824180921 -1.0711629717526006
Ni 6.09339807583986 8.177381410867689 2.1287446503851175 0.7673907327910977 -1.005693943515513 0.7758139238577865
Ni 4.337816748979767 3.4413094933791992 6.355739084020212 -0.770698457008092 -1.3982808274185787 1.4102104889766294
Ni 2.4973979294944577 6.313417100000953 12.47294713484332 0.3595523220456001 -1.0443985591745626 -2.0211519083963254
Ni 8.59861071245426 2.4434690780016535 5.57236998798512 0.40199686436305604 0.7920203584143198 0.8739539599653334
Ni 8.10667121307133 8.542553090507793 11.050002318417015 0.7900030708739749 -0.1623901043358687 0.39460494277435915
Ni 7.313625887701407 2.192052993513154 8.28432586211322 -0.6526624533075663 1.33000132631589 -0.953399762097487
Ni 6.284471351105037 1.6714810707556276 6.307182843672368 -0.03917487042724867 -0.48784342781523077 -0.3335885509919868
Ni 5.364704283274833 4.418534932545296 9.142012085622437 0.6954849477897312 0.23736424384991378 0.6706442345969675
Ni 4.5469707499163174 5.283064554058366 4.978194214087295 0.11441614755975135 0.5742340366963337 0.38679855935606283
Ni 8.26824581205003 3.831565645637794 0.5812464884151864 -1.233427349143882 1.2596027219876693 -0.2686322007252599
Ni 8.542829554203074 4.979249383857617 5.275208377384132 0.8762029039005103 0.9628076856749483 1.0352510883473398
Ni 0.4774703111175749 0.5955295244590515 4.430011862082059 0.815564464282847 0.26554919092456203 -0.9204806427719632
Ni 3.7983439249215327 1.791834932767936 12.693120978673768 0.04506141111501272 -0.4420888472879354 -0.9499449707796672
P 7.743969275775738 4.396491560574894 9.134242534239391 -0.5399607173357603 -0.6003911547076758 0.02569200544946543
Ni 3.6005157200349913 6.74238738505539 10.434300159658964 0.24973047872475054 0.08614892518394196 -0.9559256138431342
P 5.608102920600184 6.992135471915694 8.92515580613536 -0.39089535513325585 -0.7831400252055546 -0.10553375746845695
Ni 7.475182055767086 1.4895863901737787 3.8017388990995826 0.10483313185700656 -1.0014639645945655 -0.22877341685710925
P 4.44387743794605 1.5130120806205847 5.2536414445152655 -0.5244189129464194 -2.116101462591033 0.05616651988923876
P 0.5480643941619154 8.008581893985648 9.410053775199481 -0.7291702558573184 -0.2978910975903773 -1.364671881114882
P 8.040190909812772 2.1899242230594904 12.555640190738805 -0.8261643512858804 0.8319436769718187 -0.19426381311601382
Ni 1.1554892298832553 5.371671168395912 9.101076106262186 2.0179159179575312 -1.272324283319396 -1.0469190116035711
Ni 6.521373091591285 6.90785090668104 5.008231994579571 0.5041367656586156 -1.5350460320974917 0.320720436780067
Ni 6.228957441092621 0.7848702939004674 12.330516725217175 0.8097141761496571 0.41465749054986006 -0.7908497351449864
Ni 7.860765971575432 2.032644026814156 10.413934000773265 -0.5001307298230161 -0.8972242433471839 1.91706053980135
Ni 4.377424781057019 3.0974715955582774 3.9520061329412903 1.2616776022388272 2.2622092848271103 -0.5298956197902744
Ni 5.835577249077352 3.1243530821960954 13.327072505957316 1.1279583834750897 -0.8630182868894363 -0.5663332937920181
Ni 1.8775386783050316 2.272393343361799 11.090101534326216 1.0959190956513578 -1.0250031853670862 -0.3028049899522269
Ni 0.7959021168878283 6.676441578274373 2.7233526291932324 1.0216558661614084 -0.9950966276156409 1.4154977055174978
Ni 5.841069661156934 8.802170931289627 7.574614066866183 1.3160680040642496 0.21938323389146086 -1.660486812902521
Ni 2.5360659850077543 2.729599787160931 8.37644725156344 0.008438874795972563 1.7419591585464 0.47096310712012435
Ni 1.9301220731474689 6.345523750479581 5.350146626626987 -0.7146787471093627 -0.4308438705017354 -0.5622352124632446
Ni 6.072405265911526 9.046647777026575 4.555123664290153 -0.9713609745615982 -0.05984628273367113 1.6798875860266358
Ni 0.1558379773016189 3.678377112082617 2.9587411917206436 0.5040462628273384 0.021703196005046492 0.46717510083260194
Ni 8.294592802210305 6.554069531286513 1.180043813752459 -1.3644242838804501 -1.414382618076448 1.355514640095646
Ni 2.802567771802084 6.798592454306008 7.5500797570013 -1.213266043704659 1.0860625145722522 0.9306712101517198
Ni 2.420347497619656 8.369717203674648 4.074367121381338 -0.7930174322202664 -0.9622790668649879 0.5295582910555138
Ni 4.845063121624752 2.071938733370089 8.58560125249999 0.846150307489504 -0.5357075984863613 0.616593732609467
Ni 2.5249244980879317 1.7981659513898698 1.1278603697225278 1.5453093616967128 -3.0527481735998974 1.9048426575789195
Ni 4.244067909909996 8.15749445572048 12.484910640483777 -0.8013264663065941 0.5780022454895143 -0.8272097618312593
Ni 5.384517514769967 1.1471123799162426 2.910158226548922 -0.6678697571756239 -0.2576757017137562 0.21321952828291021
Ni 2.260726575420943 4.6069449408792655 6.988840946213596 0.018800677646270848 -0.23434551162824802 -0.7577025589690564
Ni 3.3718894594941524 1.0770656949885582 7.138905440012098 0.8566239533273182 -1.5996529694445998 -1.236884197344231
Ni 6.579117142078967 4.076890313373602 6.28019445773904 0.19236351076950742 0.20826578382206065 -0.2790549387204807
Ni 7.339613475057815 1.2347145094942673 1.3450576211004526 0.03894424247368132 0.10053013360627848 -0.461011138113735
Ni 2.347407159348031 3.7126401793844366 13.365229103634341 0.5761435950142206 2.6576521501217325 -1.408718220701819
P 0.16354209894344815 7.680852614143096 5.2220121546838225 0.40572264995407537 -1.0396641298133709 -0.7748276486851172
Ni 0.20598572698863113 1.5865514235653186 7.567114528358862 0.93556247680575 -0.5464663796647621 -0.3455943172036112
P 3.616965309904208 1.057270894406442 10.39671031255726 0.9054697711854276 -0.0630413926322011 -0.6519032065440385
Ni 5.001587650436318 0.32591107027325417 0.7114138900643179 -0.03243652326215059 0.6793456190257074 -0.3784298756763934
P 4.625348207528468 2.406284710986365 1.5027515913430578 -1.402586139662152 0.505467054434265 -0.8041382247237764
P 7.339945231492153 3.5223041406400095 4.119942161548404 -0.8606775545714016 2.5477701429869093 0.7219544548351695
P -0.0603925726884734 1.5967897957472232 2.5130651271060294 1.3337271119069096 -1.5572745044783889 -1.358615390508157
Ni 8.04469726804585 8.055193673010017 3.3561706553261277 1.1894414304812353 0.7376749508942199 0.7025809354045642
Ni 6.2800018546979945 3.619536422270321 2.124644693784101 1.6411785994922121 -2.1943887256387113 0.9390630337598408
Ni 7.725667379148139 6.657872433408002 9.577747437300399 -0.058424205575163896 -0.9207143560493242 0.8113159734191382
Ni 8.217966281334933 -0.05947010549188596 6.174301490081228 -1.5806167787487553 0.13010784726339528 0.5901429946171062
Ni 0.5222887623052211 3.9179974122391292 11.614707983943543 -1.3616924867715838 1.3314876810534295 0.6152755280186759
Ni 1.4288104544945155 8.545935163046728 11.221890856320996 1.2249442513735356 0.418776140703924 1.5910325747654404
Ni 1.8554492290520834 0.684356388207171 9.076825632457792 -0.5639938470255641 -1.5226707983615906 0.40090311707824505
Ni 7.163248068381586 7.869612809824423 13.249221250911852 -2.606179179053421 0.06358235273733566 0.09091240801085633
Ni 7.776011418058801 5.9528531486155325 12.159073293862598 3.4459467229450333 1.37138631702058 0.8368094897045524
Ni 0.575649941677049 6.292203119116394 10.884076180874594 -0.3070475672786648 1.39746321661329 2.4787625054689437
Ni 5.593164665598502 5.513718215031266 2.7526881918994945 0.13508961674870282 1.9691919703892669 0.7677098066934134
Ni 5.736022672406681 6.445963010975151 11.520779443471838 0.0936082096754646 1.8058449014567675 -0.7106979080847438
Ni 9.377095616539387 6.702687198413044 7.484501646935007 0.6916712304705959 1.814112026561566 -0.7088567411109469
Ni 5.97641707090998 8.75711656441534 10.25279529288746 -1.0189649495928064 0.2955449659557039 -0.06887111194010073
Ni 2.4844317821857813 6.564049870686156 1.1050742319574716 -0.9297497267787149 -0.23786509474573228 0.7829201958852645
Ni 4.1138535094326665 7.702794616091896 5.630017276179454 0.11714948733051436 0.49780156746920723 1.2287325147713741
Ni 6.861515591351952 4.238593928743433 11.384134497442274 0.21452590579915956 -2.1636892396723253 -1.5511671060290704
Ni -0.5712781291090062 0.24423263613944918 13.143774311349091 2.0299193701763105 0.5198492912978661 0.1732509583097726
Ni 0.35637644794756435 3.0564812450046213 9.295407966949075 0.31642952271419694 0.27708315970609054 0.5975058627400807
Ni 4.627744226220902 5.625123868772981 7.29220732368234 1.1067483250563779 0.40676626072724137 -0.0018833330656419177
Ni 3.131273890034629 5.711730729047995 3.1511027878058293 -0.4076707748193818 0.5956261292188645 0.4219583950866475
Ni 1.0113594900767848 8.74391081523742 1.9585029145593609 0.36742503992545755 2.239560179969027 -0.8316225461869743
Ni 1.904401734029831 2.2706147602554916 5.696754690674625 -0.312116754271456 -0.07241872008204302 0.358836269815182
Ni 4.5395891692523165 4.630002013065697 11.93662046763738 -1.3136483388791633 -0.08217939901323268 0.9772919953340523
Ni 7.091422800347594 6.26046508689814 7.340803190493174 -0.7308612704064961 -0.11066053717206102 -0.42583381888165367
P 2.262247125744988 4.114074680388891 4.720955804176178 0.6332151432162321 1.1835985985472133 -0.25077023284317457
Ni 6.403387601901885 5.384932210312888 13.957530453678164 0.2022090361050195 -0.1821724291691185 -0.8438579119109015
P 2.251114854281675 9.427043390820147 13.14730751737478 -0.5013409480810334 -0.7316362008993078 0.04915280757556696
Ni 2.9373806850775863 1.3244361940694465 3.5145438047134734 -0.7142843398844214 -0.7255149184929183 0.3193564665530048
P 4.661454366132161 7.216365959701566 3.630417111770928 0.4083917121458064 0.8263828950545896 0.6168642126620344
P 2.879922313741695 4.733952362491336 10.614955361340302 -1.7308414513666834 -0.560436468691609 -0.020850103976131833
P 0.8735156131553523 4.859135123714552 1.1566153586686998 0.8145781891101779 0.6912179449832612 0.3363110921294724
Ni 1.5527491290889672 8.873470918302585 6.518023273150132 -0.017388370679776506 -0.3911720058334102 0.2576525617853046
