# total energy = -340858.89184271067 ev
CRYSTAL
PRIMVEC
9.37152925921571 0.00000000000000 0.00000000000000
0.00000000000000 9.37152925921571 0.00000000000000
0.00000000000000 0.00000000000000 13.71618035955758
PRIMCOORD
 96 1
Ni 8.763832566061012 9.039496103047592 10.940341214987356 0.7044889510605545 0.09530668042381005 0.7816091903833249
Ni 8.555269179501899 5.274971490420191 4.645780127363004 -2.1732681416100124 0.3578777625566546 1.1468521350557992
Ni 0.11564373551115727 0.24808031453502072 8.760894591597463 0.8969475926470295 -0.6557207805179158 -1.4572231102807418
Ni 8.816285016052985 6.458052103585575 7.6657535987625565 -0.1132861477203662 0.29589309332374203 0.8542356556007998
Ni 7.175620737395719 8.992957088100274 8.33517225172336 -0.1915227600357669 -1.9529618816836496 -1.4957379785264886
Ni 5.183955196991204 0.08599221652337767 4.991660785451934 -0.6600757150525018 -2.7686047646129155 -0.9016665953892536
Ni 3.0650805166561828 6.399433187255435 2.5731145841407974 -2.934141384997566 -1.88367759346553 -1.8433984342305092
Ni 5.661912567375447 1.3058570196947452 2.677234149961919 -0.10725536814525401 0.5331282677949593 1.1698714787691078
Ni 7.585775092648299 7.231924885966699 11.932816166209424 -1.2314352584145178 -1.2248172388773682 -2.01986121460936
Ni 3.987941873268572 0.29090070662066 10.747079661615109 4.7094433806704705 -1.0821040441451362 -1.051978942624982
Ni 3.8898313320918763 7.048383482877046 0.12295633989363655 0.2121995716588281 -0.6297652369944186 0.6879989238253312
Ni 2.100881343907544 2.5007363883612714 0.010870036938661684 -0.5468790417221485 -0.4333728075711762 0.8120199414646984
Ni 1.228560645291709 5.789862058127709 5.046868465084365 2.4676867072707567 -0.06414053923365083 0.033845744904851385
Ni 1.9950299194552776 7.169922847527018 7.812420845164088 -0.5727834202927361 0.34096324618950313 -0.5089637547336138
Ni 7.002378645104918 0.9735800736673389 10.06646952825759 -0.4424773409756057 1.6484075131404836 2.2477296031536964
Ni 0.7594490614980358 8.514015707130152 3.5590060359668736 1.3739463644382726 0.6492549702879141 0.7039855290615747
Ni 1.9306568840801015 0.12768052785878817 10.751099110570184 -5.028488229520327 0.6651731841800673 0.093798985530032
Ni 3.2057003151427925 5.635887830261332 11.639921198134719 -1.425263783765326 -2.575870243657235 1.3995892618173575
Ni 6.712798386975212 6.818527981545418 0.6196417746094793 -0.06637714187365343 1.292628799204703 -1.1835289216515423
Ni 4.843271989101586 6.575683540480205 3.855110752857418 1.3705661351121299 -0.6322880034162723 2.0715385883789934
Ni 8.809265740540392 4.124841174587624 2.798333989883533 -0.564285410124054 -1.478958959295937 -1.3626129417033244
Ni 5.769404009470844 8.748660059979718 12.231527105423137 0.6955052595047054 2.9827105521555213 1.9609559556327196
Ni 1.4699150131840215 3.9489281964208702 11.753230485674997 -0.5617274195888906 -0.5466599837328069 -0.30396378614701847
Ni 6.790910084435119 5.588280460963632 2.418285672794114 -0.6493123058884107 -1.4146171026847572 1.8093611421401419
P 2.8512128444627196 7.654740177424237 11.178906615733409 -0.9281978089105627 0.2211606375068578 0.25997555349152646
P 0.14670660682496708 7.421838929041084 9.56608983665648 0.399459442653183 0.009253400277467936 -0.15548180725180966
P 1.1236557453077634 9.242445943502508 6.219506383051239 0.3167920482599383 0.835380984788142 2.7175861074732035
P 2.2246417610227835 4.755919963663819 0.12518114097065897 0.9503933711709953 1.042092022528573 -2.1348718012200005
P 6.219068732628759 3.420439539569462 2.568148610717401 -0.5527678964027577 1.299270730001253 -0.4536104747742898
P 7.317946154231183 2.97359564675773 9.241180787034951 -0.10904202773203155 1.1505401254303476 -0.531180400039969
P 8.752736675264067 7.262119953659059 13.564383501288486 0.22436397493550395 1.4058283007485337 1.4725175745459673
P 7.8417115602703795 2.2522221720155255 3.818433398286472 -0.05779968461728756 0.1255582802194999 1.176427791830387
Ni 6.548862223367997 6.2963932216199625 8.905738138379835 -1.0604887798682057 0.993547023740334 0.6165124857495704
Ni 6.303843587484464 4.836524487941282 11.081329314578966 -0.49333144751299557 0.06859086169552057 -0.167325336853957
Ni 4.916979067748516 9.26187312392655 0.6829755073753813 -0.6355201372003249 0.03217864161507361 0.4828544592410716
Ni 2.2970180824964315 0.638644424752185 4.7021395679573805 1.4079977975960267 1.4675417185979307 -0.6228106600534564
Ni 0.735377351108652 3.090580448124498 5.1369972746801835 -0.4452145374011106 0.09001637855914821 0.04036760518376919
Ni 9.2862016142212 2.7320444767482424 0.82900548977844 -1.113762808700998 -1.5426626681024853 -1.137828334290634
Ni 0.8091762707435971 3.785563696106403 8.674469410416298 -0.505233341156904 0.947603210020368 -0.41981358082950276
Ni 5.009410462115289 1.2777705461149806 8.739017693391055 1.2342619292300356 -2.7562102476033052 -4.113690238955439
Ni 3.739896233392291 4.328475136687961 3.6653063566768878 0.0938015566331933 -0.7989705644799079 0.35844777612751166
Ni 4.358979464850168 4.368941400591005 0.9874386913282518 -0.6400715040164332 1.8674421054432744 0.16171801796950858
Ni 5.471811093713276 2.1887581749911122 5.264887724797292 0.7714065388187101 2.9175657400270723 -0.00314060251151072
Ni 7.077135335043452 4.867975340571809 7.034960641332735 0.5546345172978512 -0.35569026798703257 0.19861283411332892
Ni 4.9743140845523195 3.8041005812384596 7.441453540052912 -0.09115871969370752 -1.7529333981697166 -0.0557317463446653
Ni 7.8744088263096845 3.092876472824879 11.671344873330018 -0.8973494560711385 -1.1676724142352601 -0.5456677950228668
Ni 2.412700241278085 4.346093611939865 6.845388659081061 -0.07697574332510614 0.6846428628689047 -0.23919486930074932
Ni 5.941409059882256 8.215017061964188 2.591096674733007 0.3625656549506272 -0.6059149127393824 0.22418245505231713
Ni 3.056299393618399 9.054940383481176 12.890233163139019 -0.436033642232791 -0.32092946746707957 0.8986730599785685
Ni 3.022130797464971 1.8331367492549324 11.974335790015825 -0.9139132739670905 -0.40869407387757356 -2.0250029067112996
Ni -0.043512948107509324 5.221450686077837 0.4249191998054391 0.9570419868357646 0.11967431063489711 2.384028409719152
Ni 4.3904115744219165 2.6612706868001665 10.068211695571064 -0.3813030834591304 3.427434780183775 1.5208327167115872
Ni 7.47099260068802 1.2173148100245363 12.992569326917353 1.0698213701230415 -1.275537905160687 1.6392284177443768
Ni 5.275027719596527 2.3713343105536664 0.591293835359753 2.20779420041134 -1.2835450917358797 -1.9009029562048811
Ni 6.225685032377611 7.123477547873594 6.35589962178327 0.49650367459339 -0.5970176102497525 0.413755547560881
Ni 6.026315116149412 4.837611585350442 4.887088574761308 0.8663838609275596 -1.2774083827105227 -0.6016689929788347
P 2.3052837714178036 2.4510579110685344 3.6657449442523076 0.7657513974154618 1.7093352018637917 -0.44902362673455565
P 2.4120817203383904 2.4683390112624233 9.398505336658006 -1.2483063231382436 -0.829612714845797 0.15576077194480917
P 5.384168550864442 5.59511230588844 13.097060005302293 0.34133348504472827 -1.2437346446071613 -0.14068896521335122
P 3.66593612345185 1.6422293240652805 6.345626551266707 0.7103477238341767 -0.4800915517839538 0.5088899640728848
P 6.203839997371128 8.314439617255388 10.234067148397209 0.08881798737567284 -1.2694194509677752 -1.5543491033014778
P 4.152580901579985 5.3307695764041485 5.703530592240439 -1.4666330907407323 -1.255561204928444 -2.163636532057519
P 9.322703721192566 4.594157994874925 6.667147793014001 0.804571455606453 -0.7686886256669149 -0.12202044226957051
P 0.3460427855473651 1.4107619196786914 12.6095183718116 0.19245401360078468 0.5893675499036624 -0.7895518422691692
Ni 8.580994027675557 0.7580892525836468 5.695369864448226 -0.07784143375951111 0.814764594089371 0.840937652940313
Ni 4.302084909927661 3.512149326173258 12.187635547528298 1.6411426040479542 2.302539866125357 2.0919482623835974
Ni 3.5019624737270774 2.2075855775342377 1.8673072197142377 -0.29260696637330247 -0.05346943267304984 1.0777979605706147
Ni 1.6964342500530547 3.747721460432366 1.8825593837953412 0.14505187016773727 1.0394072766075584 2.1462337632000392
Ni 9.173799490725806 2.1983452495563776 10.028530765830844 1.613579349717705 -0.9883017161809946 0.3605684220149403
Ni 2.7708800945375467 0.0006372639984731396 8.62093454877986 -0.07388656287682113 0.9857879486202055 -1.0638253004406066
Ni 8.550349126572511 5.474931812999917 10.031616810458743 0.5040418919519642 -0.4574666152955863 0.49629592945795825
Ni 9.271591399903265 7.731596089945977 5.7318551026666915 -1.7579617046222433 -1.532037584288471 -0.7259754030691046
Ni 7.663493185873854 0.07454489337433444 3.712942777715694 -0.12395725428096716 -0.05691316824727618 -0.8383634644552336
Ni 2.399083409075416 0.20239036015037445 2.153920451639288 0.2776043223168832 -0.6969216802362578 -0.7322923464260678
Ni 8.980417981777375 9.093747886682312 1.457193162038032 0.6583211942552405 0.4865187954665363 -1.0692241028586746
Ni 1.333971607862678 7.34097200194072 0.5354629490229333 1.3673795098540322 0.07135248360105777 1.2681464977926225
Ni 2.496238054254402 7.831487221706641 5.323894622444151 1.42439217979365 -1.4922950142832108 0.09127261956375249
Ni 8.488665720132065 7.306391058494164 2.8864329262136277 -0.881194700688147 -1.991523286896615 -0.7424718580622309
Ni 0.3678428372127801 1.6894243460698501 3.0203305266692846 0.36850978834920406 -0.7960855296226289 -0.1532241215658845
Ni 4.88251058265463 6.931707941980125 11.46659007631472 2.2293840107669736 0.13838551389115522 -0.8940399320819312
Ni 8.338102728963397 2.6295293167585703 7.214162089162199 -0.11248653463720627 0.06358158140638727 0.6095437677412212
Ni 1.761885011308002 2.0208578544522187 7.300258329661798 -0.5036161172684551 -1.152752559700634 -0.3699730031582919
Ni 0.7954010596942491 6.443151371856571 11.919086875654083 -0.06283956103404016 0.7623958506796676 -0.7511202777658483
Ni 7.290206427238823 3.9627886883876613 0.40815259657502295 -1.203033053122741 0.3719992895597013 -0.04501667392000634
Ni 4.731750789368786 8.524586792281296 7.286213218566038 -0.7987376225334953 1.1429656555171994 0.09953897333760277
Ni 4.3142866411925445 5.991068794116214 7.570521991414257 -0.34141576034588944 2.1594376634848227 -1.2888230523053674
Ni 2.014457099879319 5.52887433616479 9.674598089690617 0.09223344081512502 0.442635720930341 -0.5902059866445578
Ni 4.032484752455966 7.332144021255989 9.266240256621968 -0.07111568499990333 1.6990980975168157 1.5991878568827234
P 8.705719712317896 4.800087981675641 12.261757784927173 -0.2407159339309661 1.0320035279443194 -1.6363310415919237
P 6.409320150761158 0.8126484223823369 6.719214135995134 0.31005318687420796 -0.01839727156026509 -0.024247302583138883
P 6.996090348884691 0.37012761607789413 1.2781144812435683 -0.8733698053270894 -0.3472922737313245 -0.10700648535924151
P 7.152416830627785 6.917510074955319 4.52574957894471 -0.5661512596881991 0.5909541776644919 -1.4306337898279877
P 5.827947953565869 1.9407312781736106 11.950620197743238 -1.4704043848577064 0.30246560433493713 -0.34636513393136475
P 0.8012891916095531 5.802813511743737 2.6793736701214983 0.5266164348183704 0.9580496021646726 0.7391983295172817
P 4.4546908945032 5.112516028456488 9.390494553336024 0.4756525421759937 -1.694217886606379 2.4095936597827663
P 3.7686105994411396 8.194156037543582 3.1364653303204415 -0.10822853069180072 3.38181698234466 0.43124059171952184
