# total energy = -340863.2925819972 ev
CRYSTAL
PRIMVEC
9.27291677569559 0.00000000000000 0.00000000000000
0.00000000000000 9.27291677569559 0.00000000000000
0.00000000000000 0.00000000000000 13.57185102202132
PRIMCOORD
 96 1
Ni 5.299240063907332 0.7299185643369737 3.7732592205024678 -0.2447831620218042 -1.1588167636168432 -0.5851614822421148
Ni 3.9294448108509585 1.5161867887996785 1.6649679551733152 -2.3542475789122936 0.7010038207254314 -1.9681180205987976
Ni 7.058201084498704 3.5482908433338376 9.540563663579176 -1.8147229206726876 -0.2918718879794909 -1.1179503644197843
Ni 1.9037297959143888 5.007347192422709 5.236427180850514 0.473753525381068 -0.9440617725260129 0.18539299298894524
Ni 6.956291730104651 3.814720285594978 7.014420862942686 -0.5211921784790057 -1.3858174048442455 0.3222597562427289
Ni 3.9469613504733765 2.9602302857717198 3.546595754163388 -0.8447793952839063 -1.0669898142115173 1.2264612022386943
Ni 6.287000422361286 3.980260394297675 12.250875862543262 -0.2279002702235365 -0.9526965653828753 -0.35228407051896105
Ni 7.545177577251944 1.5453408388647287 6.560279768179377 -3.3011267662824433 0.817935535618185 -0.9160092372641708
Ni 6.191155555480765 4.92475332348842 5.042159576250385 -0.9661560333218908 0.8507209575793219 -0.9234579802327322
Ni 3.969605813023902 5.125688155186759 3.5424971249875767 1.2999659562960644 2.08310392461909 0.09005545932719973
Ni 9.103481953645598 -0.048775541775497734 9.965253974943437 -0.07413158900809168 1.9288459624720522 -1.1651334498634902
Ni 4.52121453508802 -0.0129774469039561 12.622960917540148 0.5075635319519775 0.5819254918033203 -0.5275667145467816
Ni 1.4720569782845465 -0.3277836955230383 6.054090719341603 0.18622011687593087 0.7081406888805288 -0.9899965873849144
Ni 1.7107511267338025 0.2787652033303319 1.5180524996371747 0.5273350581519498 0.07521967986594787 -0.8448621848056997
Ni 4.116535177935074 4.449924351595619 8.480343806838546 -0.4293598297570412 -0.6611152120606099 -2.2290266274275545
Ni 0.23581398052616304 1.5969631660632453 13.299613066549936 0.4056714850011659 1.3292922160640075 -0.11790076367424211
Ni 9.628533042317125 5.756320673260532 12.342404186705819 -0.7031478636516277 1.527852085452214 1.3935541113668708
Ni 2.7157405643928656 0.6933081619636197 4.11266466250977 1.0256876130286208 -1.5374027052551265 -1.970594764274064
Ni 4.772649671065704 5.1124093384904645 10.469800790235881 1.130148706258189 -0.6207990289400663 1.0901914491389613
Ni 5.293323943060799 4.700942206322373 1.088840714096157 3.024921381195616 1.1153070132596663 0.7457842102649156
Ni 8.220839378759523 8.975024238775642 5.4945091435096955 -0.22357001827929884 -2.08924243341666 -0.36571319944067343
Ni 5.8374679671915946 7.261593239119192 9.661705974474476 0.2212943348712447 -0.6139784064738071 -1.348909733184619
Ni 7.126978307568831 2.27986711550365 0.3478150501510669 -0.8414295049750671 -0.9563801848820497 -0.3879501564620028
Ni 1.1286345087682805 7.07354776161628 10.27842448105887 0.5908017112470277 -1.2284172975238006 -0.5630312260019787
P 6.29803519321924 5.2916362722237 8.221284478760516 -0.7614350294282951 2.120680340210967 1.8090104436689425
P 3.1440751320152587 2.8389219896677154 5.821835684240047 0.6434051963753564 -0.044804043688567996 -1.3110756930559808
P 8.399880854159012 3.6386646893688184 12.577943688898037 1.500063602485036 1.4869468625974198 1.039319087769126
P 3.8988070941159316 8.902343117780138 2.3430583335613133 0.17316868300861146 -2.9441892561518714 0.5362292753177862
P 6.209043011770675 6.048436094745653 12.516653418761281 -0.7147180849877304 0.5602816882812997 0.7357707918929716
P 2.479540830532508 5.23805735960415 10.492859752162332 0.359376201479052 -0.0025330508344988635 0.5700410816609086
P 7.713332648460475 3.3400674991192365 4.899763740307662 -1.0592063136113565 1.8094696426935482 -1.303931625812032
P 0.21615354256562877 0.17600737705938543 3.7730422342519834 0.6452175669937469 -0.7489644077651101 -0.9101121550534456
Ni 7.0153694823198025 7.939665998965484 11.671886999376385 0.4734012842479718 -0.4768756159498174 0.9661174667744715
Ni 9.40607577098743 0.7709688392202343 7.254547677020138 -0.408842940750612 0.5057035959251033 2.6077377817897927
Ni 3.6899439186499023 4.902220135938143 12.89385526918625 0.7713833988902586 3.133214189466449 -1.9559798425743669
Ni 0.2640648485058648 8.551335402413613 12.251228233377383 -0.7514686622442026 -1.1672628375016671 1.194466651609969
Ni 3.190078071701237 3.208725907159512 11.123882660028643 0.10927239857528279 0.34914218245586964 -0.9842601991217694
Ni 5.2320577825074315 7.351725989320302 4.441374722409876 0.20103507040157634 0.21594438341324101 -1.7199410024040962
Ni 6.486136308222276 9.100996811973385 8.138156489825036 0.07553952509921184 -0.854104015118942 -0.5376097006050806
Ni 6.168696551263985 0.22261954737172282 1.1405325881698283 -3.6002471082942322 0.47341491109472666 -0.3753260399400891
Ni 6.580478962599447 0.6751304633813937 10.66125870107974 -1.6712034279890766 -0.5156699631091958 -0.6922656695214852
Ni 7.499295185482901 5.316524780612566 10.702775403672376 0.40471220641169003 3.056461875006059 0.7882966297058295
Ni 3.923269048337179 0.7104621305435613 6.050656958292275 0.3576553621332034 0.49098531587832217 0.4673687049006467
Ni 0.737923873313169 7.028676117766159 4.9671750627497415 -0.9833132618274679 -0.01497204792880002 -1.0037185649566973
Ni 8.755487936202465 5.137705855213573 3.480094104848339 -0.15579316784464137 -0.43216207509252663 -0.6579627824745572
Ni 1.593244726471615 4.462637520373986 7.650642167903929 0.2947708067938407 -0.2624875212801028 -0.038222276705992236
Ni 5.177616488635959 2.179951438197379 7.810057515134628 0.8535676829994977 0.21090167878301097 -0.7198268669692054
Ni 7.081244282466786 8.384645452041685 3.0429178111645503 -0.12257040123576955 -1.0277889756423395 0.7891368662189376
Ni 4.557657097669332 7.28296731208355 0.5838933088028196 0.03389151054112228 0.2802299328651883 0.6512092658008075
Ni 8.711302488187208 5.209172224123034 8.350515554882197 -0.4159145028854127 -0.5869221736869634 1.393784225099806
Ni 4.446688103671732 7.006059473965696 11.726595353248454 -0.8532792052248014 1.1845951581325276 -0.09417153837810234
Ni -0.07394316495665332 2.662217289273441 8.700194461287424 1.0082377929832893 0.6255756243931032 0.7229263318301357
Ni 1.0573257794425055 1.9121588771831963 4.811804561778069 -1.6497298314963331 0.9990869797219568 1.9806722031147241
Ni 1.6832476558391016 3.9031653649589892 12.82887345091626 -0.533579753510081 -2.111932675925324 -0.8941705441225246
Ni 2.581060722425692 1.4661315845213254 12.662102826169152 -0.24371512576860607 -0.15391909075038007 0.7499475976139859
Ni 2.186711394462462 6.639482531481099 0.6004473196730893 0.8450565602046931 0.2288178969417995 -0.737781137454781
P 6.584920689692691 5.936252348662008 2.8073504902222712 -0.2699925714078963 0.2405236154145019 0.2915268459352463
P 4.298043249173399 8.782620490429672 10.101949748998443 0.2930525385511534 0.0903277391519799 1.6834210531011913
P 9.346636375021472 6.929326088377817 0.7490671372963659 -0.9522047133481212 -0.5216925151541919 -0.047515271972143974
P 1.5133121846265978 8.701547379832109 8.20917868602517 0.9107798705444315 -0.25342206864372485 1.4236293334856966
P 7.786987425708151 0.43898265785448587 12.962013061421663 -1.7507063086114105 -1.4286766661016168 -0.9646447388836871
P 3.3262508532550745 5.772418456629785 6.666045728623702 0.4103501214237579 0.7249454191426934 1.136158659897695
P 8.37220119784725 7.32120882050221 10.044133113452771 -2.2111764866200114 -1.8668350679868946 -0.9226966765866754
P 5.010555621596535 1.996254958620837 11.452185638886174 0.006489721489401727 -0.030114817107509427 -0.3030209626177749
Ni 2.10219803177389 2.0887523025772228 7.540954690992521 0.24942374611760912 -0.32249244107882524 -0.4116449289757814
Ni 7.718460571388584 1.5355486388428796 3.9668480476010823 -1.887292564510298 -2.018615515127717 0.6082659294700621
Ni 8.160843607792323 2.1705672465097736 11.076652913464928 1.7999557896658418 -0.0009759907600241256 0.4464579228899085
Ni 5.424118432935969 7.112744380453738 6.697912106819805 -0.3227647209036054 -2.5738480710208833 2.0747231567545623
Ni 7.629384933689833 6.77100958177457 4.738707086823303 -1.0411494561096455 1.4706941481839833 -0.2293349457875341
Ni 0.44423205599119864 4.298265799173896 10.631414746013151 0.8378268752254733 -1.5520739341140561 -1.0858467990170204
Ni 7.1253277283984815 7.3999358831778705 0.5259514888818695 0.842745138462697 -0.7337301073138589 0.28948564713550146
Ni 3.284392907328345 6.715112439983184 9.135008943090941 -0.12246164357204714 -0.19144151317587033 -0.3806988742162282
Ni 4.528660687187967 2.878888260590224 13.300101749259362 0.14719179932887555 -1.8377926580079575 0.8634227214167066
Ni 8.565161321194463 5.149417548989706 5.915806494658054 1.861057542073169 -0.08959266075816828 0.6117271485457851
Ni 8.957720976237033 2.286144880100991 2.458676767985955 1.376752723538816 1.0683627832996438 -2.5518347999745856
Ni 8.273064445542717 9.578922938039764 1.5316373225841526 3.077953726331247 -1.1209559840153274 0.3228140860843021
Ni 2.0654680087752695 -0.18587561499807076 10.924919250418037 1.565362423692846 1.4393038067981598 -2.3368118999343497
Ni 3.567921607960972 1.5694596951685444 9.24579618792147 -0.37060935119071015 -0.7460819440109925 2.0145791402748143
Ni 4.060684400727123 8.66425170891556 8.07686621968828 -0.8520103658147069 0.6337766721466569 -1.6431192681583509
Ni 3.2407731072310177 4.158634219695674 1.3515702625990424 -2.8510821544825418 -1.1902706112507502 1.880604610967161
Ni 1.0845417899198981 7.663333081682246 2.6083064062364847 -0.8180612625627719 -0.6422492283940424 0.7561490984390075
Ni 3.0342930713536393 7.64981316915208 5.4948893330938775 2.264955737223996 -2.227399633347093 -0.41977912804714157
Ni 1.0674425315484117 6.787125910977197 7.359146177253526 1.062770376813531 -0.1374185219921956 -0.25518661674331533
Ni 5.655783710536209 2.5368196369103124 5.155077737335668 -0.3938305265021798 0.4205867115501014 1.203588668515895
Ni 7.70457901510761 4.114689867514289 1.3011914335283004 0.5614101454587881 2.3825916772726257 0.9245234453827692
Ni 0.870483926525612 4.642810291609332 1.132271346693062 -1.7800374534753602 1.0847085716475189 1.6980912535188564
Ni 8.040481149190429 7.1793517410190235 7.454922424550561 -1.177769907680578 0.8286380096373537 -0.06208288537367373
Ni 1.2701670361674102 3.5932830351008933 3.2551136728880157 2.2805227384243176 0.7183034883461435 -0.11079089210233822
P 2.4378034325227143 8.436731425074568 12.824083062155571 0.848379711040655 -0.5624848665802055 2.1028667090683135
P -0.16043258619130066 3.1036544881750703 6.560836143180619 2.8321678340765417 0.19274429114769387 1.091280568438082
P 5.868940246428484 8.9809959971223 6.004810730898313 0.7605138031656064 1.488168650819663 -1.2895794708554178
P 2.0029778232191706 5.717606246090818 3.1712392141592027 -1.291215463796944 0.18453887251876608 -0.949872722780835
P 5.597559066656294 2.506209738925347 2.207312106175094 2.6502293752951007 1.2510178085321357 -0.16933902484987612
P 1.4352064073689899 2.094659150507069 10.355865390189994 0.00015683729283843956 -0.46284844843279 -0.1662210480461847
P 7.291081114184988 1.630234391137482 8.715639431321884 -0.3441035915906977 0.08655567370405738 0.8712946679656156
P 1.753953645580199 2.379736428226485 1.1739187974109884 0.12486433947626883 1.606603175510188 0.25969838857073985
