# total energy = -381174.33692432643 ev
CRYSTAL
PRIMVEC
9.18391142014406 0.00000000000000 0.00000000000000
0.00000000000000 9.18391142014406 0.00000000000000
0.00000000000000 0.00000000000000 13.44158268736816
PRIMCOORD
 96 1
Ni 6.648600672405569 6.576920245508138 5.0407007861396425 -1.280744646172607 -2.3871903523869014 -2.0048557423394633
Ni 5.718582721067305 6.113316408252243 8.484474623112273 -0.8866025019672796 -0.5308189029354922 0.19443864813098127
Ni 8.886857589933712 5.474446809700953 0.7397346584525193 0.2967662399573147 1.5727764567687301 0.3828452311352697
Ni 3.600185028579312 8.006377655595413 12.177992986019646 0.6318550296439117 -1.155985207705319 -2.1435940115843466
Ni 1.6863038545511346 2.6435521025903435 4.951838179782583 0.1940460406782529 1.593044977209779 0.9176097489820713
Ni 2.323603004287632 6.764152643094032 10.244031190157871 -0.2748313875574363 0.22350085560426025 -0.6347400645011908
Ni 0.09489276244941644 7.44163140432012 9.011989298392413 -1.1034038340641772 -1.1203306917265026 0.3017598365171642
Ni 1.5899829939104884 7.332967367029871 4.573430731533656 0.5093951858440776 0.321490225066556 -1.1386194627333617
Ni 3.3551950134715804 5.619919963071266 12.238990687412004 -0.3727173986726484 -1.3317301360815388 0.4182778609112667
Ni 3.003414478957915 5.670771279372492 3.0406607492109856 0.7048041683081281 1.1966590312755971 -0.16420273206457528
Ni 0.6301292702645145 8.060581099483771 6.536507362674128 -0.5005637035953766 -0.5346822425456405 0.9661997420756326
Ni 7.677354853029452 5.394776380061593 12.172616724404559 0.17315454194122437 -0.7185441436020399 -1.6510765753322145
Ni 5.664976231406793 2.0557083146530344 0.16462711856407058 0.41321458745574646 -0.8521977992351646 0.03137800009064918
Ni 3.8078240768463196 8.78638560143174 10.070554454763775 0.30256844846138864 -0.2700007989380124 -0.7771825220705388
Ni 8.390301879300752 0.24555390725526516 3.1036072765594787 -0.13604426735248829 0.3341737340714955 1.5965056820648698
Ni 4.386741103099541 1.4231939826504976 3.2013543986091153 -0.5012599583314529 2.2610422611022027 2.7891206251780805
Ni 3.905733754124154 6.6486098563167655 5.070151752568172 0.9967678446704769 -0.43887291145379903 -0.7027573130814284
Ni 1.5801470250178362 7.034830057821509 1.8653827757757813 -1.199416025195444 0.6704506305289227 0.014404091240471968
Ni 1.103483666038924 0.6056752699186096 1.8172746937492845 0.44248428295414116 1.077382213189435 -0.28257657872049396
Ni 1.3640404106266224 5.020385056179385 5.383367207180789 1.111357541693615 -0.5571086898699567 -1.6732189157572088
Ni 4.027944060430894 6.890119169080599 1.1489100459957156 -0.6456250868448107 -1.0040294113288968 -0.16661468394017756
Ni 8.101881148139473 2.485790876037614 13.03957151272212 0.925992830839444 -0.8566360375121763 -1.0744624684394786
Ni 5.294019690312496 8.44844522109289 0.026331191794698464 1.494423373480123 3.343486205085261 1.287146435933893
Ni 6.278039039492768 0.722501049090184 6.86212936292361 0.5987147954465172 0.4975197745627302 -0.20433765241224808
P 3.213248482001154 0.5295727897795253 5.761424748413087 0.09613123320763443 0.1954892008826827 0.16603104352256567
Ni 3.526640267708765 8.10277198752564 3.016694414549675 0.23857317655635046 0.6809798121950208 1.1135398940569143
P 3.587924507130488 5.97309645208697 8.138797715980548 -1.0845357935150806 0.2689818707551948 -1.3291559475964592
Ni 6.622380605936361 6.9225934790753865 1.3422157640565964 0.848299749732339 -2.605643875375242 -1.3694934708732414
P 6.60937618768053 2.1307500530487933 11.529611610640982 -0.47286238102536626 -0.5924191922457925 -1.5784465105703138
P 0.44964061867103305 5.570519704739263 10.463815042592614 -1.3212523764786666 0.9756547168409454 0.6845168788140018
P 1.8502825889846533 9.090446533362567 11.130274947163795 0.20632151561149628 -0.13927948646033433 -0.023184408536263298
Ni 7.089005949976274 1.880773174160754 8.835380849279927 -2.410184242178914 1.2597173931886625 0.6667027334507163
Ni 8.137046344115161 0.22687475027042428 10.440883734723274 -0.5915344756479942 -0.2024185810126643 -1.5252524430458378
Ni 0.281460244864603 3.661588658846604 6.957147944956434 -0.3710852623858641 -0.7163185967056309 0.5894092017748752
Ni 7.396373089938246 4.705670787259317 2.7433325425791337 0.14426536971069995 0.8953537657973484 -0.22488745153914172
Ni 7.206238576413903 2.308853642904253 2.116605911413338 -0.9813880197802971 0.3011489424060427 0.4298357409521952
Ni 1.3336875841184856 4.08161483746979 9.250523942319337 1.6492811739946887 -0.016554819034887615 -0.5152711850088803
Ni 3.1059252957457577 7.800097826185654 6.932523123862253 -0.9890213679558385 0.5134922387315867 0.6806658804990278
Ni 1.6986470312007371 8.986659152918255 8.960440923231287 0.48451924853800427 1.0970166995909107 -0.6713281480378696
Ni 1.1928614898141692 5.915595984078665 7.443585740622974 0.8266911703236279 0.2014474753486466 1.2347375833148735
Ni 4.960019207877424 6.393903263161953 10.69078897910397 0.4196647139564644 1.5852383366811666 0.9516519261684449
Ni 3.797473808926601 4.711098478777111 9.779772540033585 -0.5377976482461706 -2.33444159992996 0.3566117513600375
Ni 6.076488924349784 8.894856776586838 8.89071942459231 -0.5089017911474268 -1.5805725557743813 0.8624223051766502
Ni 7.5661468723374625 8.50232722808933 5.43531875604349 0.5521924835152618 0.5449617700947776 -0.7302146379614327
Ni 5.1829678361108655 9.145641839660268 4.9557633834284465 -0.44407322470781585 -0.02577916584663302 -0.9003522474532043
Ni 7.550212786409591 6.450659834363248 7.2729045877974325 2.0383294486168766 0.20327964346137894 -0.5956708664138709
Ni 3.693576221547917 3.374563882187363 0.24777549537396962 -1.0037633021517036 -0.6270784341908748 -0.3931209020296649
Ni 1.0651408367888573 4.044998583524875 12.509569834289668 -1.4160849454795352 3.461257899380807 -1.2688396672049052
Ni 0.9033441996558935 6.709030808085912 12.410034604729852 -0.31229801704432664 -0.420391821930476 -0.23891050529111113
Ni 2.1020044110002405 0.7685877522620844 3.9292840576082133 -0.16810412400151048 -1.36391623389578 -0.5158946775254921
Ni 4.804140683120207 2.3600539478309885 5.7628234580884845 -1.6754562897281595 -0.8003990693963183 0.666494216984336
Ni 5.249036893266549 3.77327420292087 12.02477228516302 -0.08972301568844547 0.9455650965444167 -0.6483224311713156
Ni 5.2132931108854095 4.884104997917891 6.213116134454547 0.07488775044782588 -0.30161482629886766 0.6557490626526901
Ni 4.739917592115245 1.664813502348702 10.067664277909882 2.7829564053488975 1.3073241964333484 0.8288215864030694
Ni 2.1021421696682046 8.546823277841801 0.06671284933063691 -1.423118455287549 0.8981927779080403 1.1629734660976938
Ni 0.7989966006285265 4.88348967586765 2.7906875438874255 0.0026636628750921864 -0.38530731952251707 0.7745106316653307
P 9.122470831708672 3.447190251938147 1.1803897384078004 1.1008532997281817 -0.6201498253918417 1.5266117852872096
Ni 8.138304539949235 4.26037048502028 4.913960056439117 1.0813090590476668 0.9996405382325815 0.05733971426173351
P 7.337577690451077 4.368042659901185 8.0314396308626 -0.21780894742580553 -0.31958503762404317 -0.25348968865686666
Ni 2.6720773307701533 2.095814454853044 9.398071741229192 -1.0456324315816636 0.3905055758940049 0.6989402533281833
P 2.714001885387292 3.311204078834977 11.344023133159462 0.7095841061952748 -0.12512659199872 -0.36180460841488654
P 9.127347488554607 8.200259204888384 1.0368727581225807 0.2870199592038282 -2.028592938055403 -0.4505243796497983
P 5.367270566024718 5.769819761638831 3.2837919406923186 -0.1514973686827649 0.030369356320476732 -0.20408157053738402
Ni 0.06772491634461472 0.03382985528755581 12.316615860027653 0.9492104066064878 -0.01044999168873039 1.9348502596846036
Ni 0.5733644335431403 1.9622803860396383 11.017164060071659 1.110889858028577 -0.0311532856743528 -0.3277470046095452
Ni 6.336944645914308 4.359152633861888 10.015739362389654 -0.34509500896968953 -0.09460065549572094 0.014515420007355645
Ni 8.938048710949248 0.9374385515859408 6.221086850982963 0.20995705548155452 2.48076308083874 -0.23937484652203936
Ni 6.37125573814862 8.210940093611217 3.011170291964306 -0.8873864313211555 0.5203876802998393 1.9726871280267189
Ni 5.9377383939761295 3.4757797674963413 4.135880731954291 0.8087407564927942 -0.04711392276866725 -0.0764232132557458
Ni 3.7611698079624056 1.516080060503234 12.19666295909329 -0.5855553752464238 -1.0829820758747155 -0.1658361539029402
Ni 7.4701750003223255 7.6830396940607795 12.458343814411576 0.38616812486091556 -0.03134149042575893 1.0385097044939533
Ni 1.5859512568947327 2.1375094116902424 13.17293935274285 0.3623365696589566 -3.019904130486683 1.7636219882318143
Ni 8.46558239938765 3.515876723785153 9.870705199974589 -0.9631378153208575 0.9810375784194137 0.7539495196845274
Ni 9.125226005067956 2.683107208118496 3.361954372113029 0.434004270507588 -0.6060468103315563 0.01778869144198872
Ni 8.504861987579874 6.886583363269515 3.2113823112457975 -0.06718292560440042 0.6986448335749517 -1.401596264945057
Ni 5.49884846175303 7.710343462051306 6.723277809526782 -0.4109437891436988 -0.5642149618974348 0.8817554582876233
Ni 4.121326069488301 0.9070104170059837 7.953209238499028 0.22784936238094308 -1.1360977247527724 -0.9972460698584761
Ni 7.080979211589554 2.8689069155575613 6.3698983560736115 -0.12576602535493178 0.5344698694245181 1.3186061971050709
Ni 2.9215215428087307 3.9527094598999843 7.105166878510727 0.3739618126027108 1.3977465521816637 -0.06857749195908189
Ni 6.865175666267861 4.25187536716248 0.5536759647176809 -0.8463084303339231 0.40758104331905287 -0.7581764132816814
Ni 7.188669754292855 6.842270991740995 10.292690306856224 1.0330052297359564 0.2946131981700539 -0.7496313519251477
Ni 5.042995845547928 3.1329351785779607 8.179754286357458 0.4185815081946146 0.6261083569681217 -0.5622208142855415
Ni 5.058929931475799 3.9056970184793633 1.9170790119071883 -0.5918550922122064 0.30057172974633395 1.5290882718521601
Ni 3.7040734320467976 4.045154710015234 4.242647373191112 -0.37734821257644047 -1.2837127276619955 1.3737311631036728
Ni 2.123035567642792 1.837351642018403 7.158704488837258 -1.2604936092330548 -0.9317567299064147 -0.6151521150669341
Ni 2.1962221559766317 2.7922579927022184 2.1195631308189715 0.01931412694757964 0.3976750970592506 0.4001569829408399
Ni 3.5508123219809025 0.7070711598870613 1.3191916986841614 -0.9753832083471138 0.24341482091936786 -2.064316873819574
Ni 7.60738263361478 0.3651210839193293 0.8010069587896858 -1.1434839899145144 -0.09235042600896354 -0.8596799665448226
P 5.649942168776287 0.6584910248250069 1.8349234158977523 1.0980502830617476 -0.8051008457473618 -0.6819694298017996
Ni 0.034307418669832085 1.6838425663501724 8.534315709181763 3.20376551732245 0.5818802403876817 0.16022343570185307
P 8.090869638613524 9.145210195833979 8.152897774842256 0.48399371505183736 -1.1632688858509257 -0.9924697315157553
Ni 6.011099476622724 9.054445601467894 11.304491905800422 -1.0422666004332244 0.7627563193428798 -0.18499755732273948
P 8.89021890143204 6.357847227800093 5.170237098408723 -0.23058038815886095 0.405665828574211 1.7218880988281378
P 5.351042594938523 6.459696802981707 12.8871038925837 1.0663308404712795 -1.666803499149168 -0.8263803239514285
P 7.151989212969557 1.6595786729660584 4.554559630804785 0.6468432755226279 -1.1472647971131855 -0.2720183435886735
Ni 2.4103266777267645 5.0535389756027955 0.8792015338995881 -1.2019722159583943 0.19741881380522774 0.3716730165685341
