# total energy = -340874.5861959776 ev
CRYSTAL
PRIMVEC
9.21636757967812 0.00000000000000 0.00000000000000

0.00000000000000 9.21636757967812 0.00000000000000

0.00000000000000 0.00000000000000 13.48908555757376

PRIMCOORD
 96 1
Ni 6.782242081768157 8.582972878726116 4.179067028791395 -0.02825076731557715 0.3933502444316516 1.9421012848200618
Ni 6.547584142421298 3.6655982971056904 5.146585647625545 0.11479127151098294 3.4667261215842293 0.25606799090700416
Ni 0.42898321013514806 3.635175067154629 0.5397750101617164 -1.1764766427904512 1.6114237368272828 0.52236871528561
Ni 3.928605783659294 2.308819934786519 0.11060839430829318 0.09025523404283166 0.4627198932747257 -0.13387785582878878
Ni 4.2255479362776684 9.213132807436775 5.488156217811938 -0.5310636719564467 -0.8544367158680123 -1.136333237802346
Ni 0.5412625319169728 7.286598590656946 7.261107039090257 -0.530938459232492 -0.7818850697525308 0.07490034885331617
Ni 7.333731095343324 2.1811271595753836 10.345912881351651 1.020551577353636 -0.012188314536075783 1.0245429579012162
Ni 0.7837921709612568 5.787298317412838 11.91362809569625 -1.9314816003226862 0.037977764795353953 0.1230367993492268
Ni 2.7539612808653815 4.973898565046618 6.515390448224978 1.9857385618940384 -0.9946456561211514 0.32629741664721224
Ni 6.402619894041944 5.534502566329025 12.47999417009753 2.072499409630366 1.5754920559276802 0.5546491725858704
Ni 2.389794941860141 1.8648398510444737 6.557300958942777 -0.18890254880410048 -0.4572452433133996 0.1128295197989218
Ni 3.4579811807447194 2.241614181135158 4.517751032597698 -1.2887793435516257 0.2263763773798424 -1.5046393947811765
Ni 4.896287532202664 7.89766220538439 8.504126852603324 -1.107998395413395 0.20763252111343597 0.14764894147095217
Ni 1.0700387288028343 1.194883646378442 2.298094847632914 0.49359935646240155 -0.5699374662035088 -0.027747602426913504
Ni 8.69598398010749 5.383861035414119 4.21385513051005 0.07606428725443029 -1.0575716062214109 -0.06613340129396353
Ni 1.8722590270852506 4.670928907918097 10.406951041703026 2.629068682057085 1.200271431217204 -2.555682970076082
Ni 0.9819947676630307 8.38920796309718 12.118446201170782 -1.5882740381836968 0.8341388848509247 -0.4393817327694175
Ni 2.0218038102376066 8.790285854951254 0.6541639585220924 -0.3592959830604199 1.0698190561301963 0.7255174895960795
Ni 2.1499297547331104 8.740545118190914 8.39286870436848 0.10662699053263572 0.4524534783517111 0.0787001822153806
Ni 4.46270351128546 6.5559249552373275 5.046226775894828 -0.2095382227765811 0.2731953946159102 1.200415670104552
Ni 0.09388345174779894 3.1776745719196398 3.0156600431981277 0.13290932126793237 0.511137622456481 -0.1341989866136334
Ni 6.089705776108456 6.625628344549621 10.15258758646451 0.30757181521325094 -0.6072110058429865 -0.5447403981125908
Ni 7.094658515843008 4.35750788975822 9.264492860011233 -1.1332286307350936 0.11834119364577039 0.41607185439888345
Ni 0.43432593852128276 3.1838495383138268 11.064044883533645 -1.179611588875007 -1.494689225547 1.3744266465088006
P 4.903319620797836 8.002535254040291 3.2918902525662688 0.8272028198527237 0.7016306556761529 0.4174882751304358
P 1.5207375446364653 1.6520062705355776 8.519099763654065 -0.16513475696054142 0.1784571851010604 0.24216140812824097
P 8.5697381746335 8.91546256176595 2.7393634759821683 1.2956609011628073 -0.34770956377440115 -0.2549968693300125
P 0.16332325294236988 5.257218926126771 2.1426202534685883 2.434452370697659 1.161694085164638 -0.23886525387547253
P 8.890449339685619 1.3068256491005246 12.043164144457888 -1.250242620929008 -1.2695024975998848 -0.8782646715255454
P 3.392673998850378 7.271898484091682 0.5590418269483551 1.1934479805374671 -1.4577884958659086 -0.048189415221033136
P 1.1784324299401974 4.794483534008351 7.8461694371142965 0.1816651505153968 0.6772445135223046 2.9215378373009426
P 5.898069841430351 4.234745871294681 0.6742196963883467 -1.9908350025803392 -1.2782285646189728 -0.4096168428021591
Ni 8.934457495703892 0.6177611491731971 9.402068346363393 -0.5594851605219332 -0.3179665281840137 -0.46927929165979826
Ni 3.0920637318665007 3.3991346726448928 8.393448413900114 -0.558646980891354 0.07177183052666349 0.5735015294056833
Ni 2.6752166347878688 7.0115545278185545 11.894878317140527 1.4863490811124207 -0.7249742154980999 -0.270049907008393
Ni 1.9568929321566226 5.576354092293208 0.5565626240229278 0.2886747211984319 0.1504506725858054 0.9464315583097701
Ni 1.334935570745704 1.8264168138842267 13.183153261228783 1.223047805681771 -2.945031806657825 0.2697632290059096
Ni 5.996850871001838 2.12917449455444 1.4881696659093926 0.3490449947563731 1.4525120779583178 -0.7477922418338799
Ni 9.05450990204819 4.653915493046949 6.317289231568481 -0.49689705337706686 -0.3767211205154028 0.4311462322335026
Ni 5.906760876220975 5.378773600414729 3.4412949469287857 -0.24762911611103158 -0.8321982161847861 2.3064212034576346
Ni 4.171042337389277 5.001612182878438 13.037659993340437 -1.3365774368715109 -0.029961322248780654 0.2537149172937953
Ni 7.535735443743011 4.263261313120972 1.9566053814827442 -0.9429878227355438 -0.044511195038497535 -0.4638635199608656
Ni 6.627683594558431 1.5988093958680443 5.760918307994806 -1.3543260191041837 -1.9265209138833013 0.32193733990630363
Ni 5.334654847983426 2.5812373328154434 9.09221037597664 0.541881588507557 1.2273153227088733 -0.5894595953968365
Ni 1.8509139193704194 6.255102711795143 5.017332541353909 -1.5843466781048328 1.5576429435614012 -2.0309192721957343
Ni 5.185211444876349 5.446735096221796 7.19962464981321 -0.025906692563432802 -0.027016380687843792 0.4447422257503824
Ni 5.604003195550762 6.1711231688342 1.4347396171377205 -0.49758250947986554 2.38385588869703 -1.4331838099433512
Ni 6.190090453668882 9.263555555410802 10.572165493308212 -0.29118386077353076 -0.9939668848865719 -0.9289264595464712
Ni 1.0225652185096146 7.472022693469854 2.363989112153091 -0.26006065700616504 -0.7004685170472517 0.6406325187262257
Ni 2.015499814694884 4.493025361191243 3.374254166260195 0.13913216224919264 -0.18683281075926533 0.5264400571415062
Ni 6.1829293359251745 7.921486516024648 6.482503683173668 0.7322298686192487 -1.1496705783412007 -0.6002109203760695
Ni 4.472749352135704 0.07765434977239015 0.8549084294500108 -1.4818398803881578 -0.5940405298992995 1.0654682353606681
Ni 7.794070231846088 6.842047092114246 2.7614587960320547 -0.337703858711941 0.4228302561686395 -1.6505554127214221
Ni 7.175393897355066 3.119436344091479 12.846695010234713 0.13060766971794924 0.7195157634866899 -1.4812819510021586
Ni 8.27946867226795 1.5958785909227438 0.7085239387999936 0.6516406969112712 -0.2791402993454354 0.6144314348508257
Ni 3.800387675486265 1.053126693976964 9.439756839013764 -0.6071670399789285 -1.7848209909069326 -0.4683380107924515
P 3.3455138450607436 1.78821496955004 2.260595290521469 0.27634833842259504 -0.04055863814865273 -0.5622745503416122
P 4.099680001881532 4.967760464123441 9.619377395052911 -0.2698395907697998 0.22936939856989527 -0.5435816019177994
P 7.2587467273088375 5.946971888725211 5.836416949349882 -0.9348340832801576 0.12510833716627487 -0.43369213858380795
P 6.82914417726072 7.499570416682131 -0.026706268836471148 -0.0266440849500896 0.7197571900735347 0.1477903521448229
P 1.106120808553942 2.542943324803731 4.784241384524979 0.7962778481390932 0.017493271688756966 0.47302358919357895
P 8.084505628831185 4.71266983746925 11.234601141888191 -0.20278162077903786 0.20289372087686994 -0.177578639150849
P 4.673408110843524 0.8969313798543914 7.284700018899929 -0.8706968864806166 0.25629733330899085 1.294336525924429
P 7.8347789282089595 7.931311164048832 9.17500653731816 -0.16550679558797946 -0.3662361618236789 0.37525199216904404
Ni 6.228163268854533 0.6623315036243739 13.017952634175225 0.943320523484614 -0.362769286321001 -0.7967635295262601
Ni 8.68642660674813 8.454754770553087 0.5203469069394087 0.1490926158960142 0.5674218988705066 0.1944777288990328
Ni 1.614587817460355 9.036768394124593 5.291418101946039 -0.11362321934481076 0.29457617428453137 0.3984160889903332
Ni 6.5950207872435085 8.9491299531659 1.965346184659232 -0.7688953423610823 -0.6148890912135346 -2.530480759778842
Ni 3.3203715938318745 6.662447733720929 2.9958715799966966 -0.45359736214816715 -1.5749811777295328 -1.9347597568533261
Ni 4.7060893508939525 2.9370444262691495 6.465534506867733 -0.41093710427547936 0.7119294664989997 0.8797505120424526
Ni 7.3906974644216366 6.145197526346366 7.9924589991764625 0.5599217338387196 1.4743872807648544 -0.4494959383852839
Ni 8.512135876180263 1.2905771927528353 4.195334839511364 1.2896033821148178 -1.6993438949790345 1.1006388697245302
Ni 5.062919461168189 7.652506823167412 12.112591964374381 -0.3581855236050605 -0.11719808118026266 1.2713634620680234
Ni 5.4241457788603755 4.214147289367804 11.045902463612812 -0.29507599673908536 -1.9598110433949991 -0.6614000902908803
Ni 8.004618153152359 7.792604829373437 11.42091185927889 -0.2580333421634911 -0.30319862584621976 0.5237365421674142
Ni 3.1157774460937295 0.3664501549343141 12.110689706070263 2.5153637016317454 -0.6495853570441392 1.3357261446148094
Ni 3.2407329600823673 2.708736564303776 11.107264118472301 0.7354188078701914 0.6611504361739194 0.13978265134899798
Ni 1.676125504943917 0.874960480769164 10.607493674177165 -1.5618119873374263 0.8437316707456823 -1.091548734497804
Ni 2.888170028077547 8.945001020412771 3.2582882973773635 0.46474386568328996 1.2197904750867379 -0.5323147707547284
Ni 0.6612117149424428 6.971509409933864 9.760904859897352 -0.5550739188281151 0.4752424512217686 0.32090864153147314
Ni 2.707685898379989 6.442093597125979 8.544000546047819 0.6940770116986111 -0.908881625080454 0.3513520456229949
Ni 5.345926465744755 1.29549873313268 3.4492265530166026 -0.41307857609851434 -0.6829816731163979 1.0608664749225987
Ni 9.02779165193364 3.276584630639662 8.714057277270177 1.1286443537985207 -0.4311074085757672 -0.2056085487048717
Ni 4.010391831095138 4.081403944628288 2.0939375557262383 0.6335807540857669 -0.6642133913699593 0.21624237426963402
Ni 8.83328021051675 7.6307838443747285 5.051595310110669 -0.36258596666560133 -0.09785798609075404 -0.3597461832239611
Ni 6.5896015630050275 0.39954889644393166 8.060551367405616 1.7934647826248598 0.7586770070671838 0.8984473171210076
Ni 8.962539768245813 2.1224926279338643 6.591454974560059 0.6073526736271734 -0.3112976008042703 -0.0757315865053599
Ni 8.670592886949304 6.078480240185889 0.2398458327547508 -1.0491769543998124 -0.05420682505970664 0.4851036602865646
P 7.217420534306548 2.715022127110993 3.4260252688364146 -1.877326711546838 -0.2602835716502485 -0.920996148955801
P 3.7187675226699666 8.213230637230602 10.419159042428012 0.14103812102265387 0.1676904335028596 -1.3373261421120775
P 5.365179457979766 1.8505083991893083 11.332342565177193 -0.9776205823180646 0.983139969474397 0.5093864440933292
P 2.6225082276112186 7.4861882507054744 6.523497165300093 1.1365414971584105 0.8149170605068352 0.4763295136383603
P 8.105509730939172 0.1468969206970572 6.130411707561001 0.5032389364346946 -1.8861021437466228 0.3747154029392837
P 6.967656968213312 2.7027551416323923 7.6774748850457595 0.9202243037867829 0.7140603967990734 0.0904552658687797
P 3.932052705198736 4.3864012026623636 4.732888705044724 1.133063823022455 0.47331386674048803 -1.1281499306606055
P 2.3057324515894257 3.6379399774803844 12.862706605931162 0.24168729670529987 2.225459736011903 -0.5255149742240756
