# total energy = -381161.2544769647 ev
CRYSTAL
PRIMVEC
9.37181577192063 0.00000000000000 0.00000000000000
0.00000000000000 9.37181577192063 0.00000000000000
0.00000000000000 0.00000000000000 13.71659969986644
PRIMCOORD
 96 1
Ni 6.146224155441118 2.531346157227527 11.308924989318488 0.19273966316200355 -0.5087349265522594 -0.87936150413415
Ni 3.34674097995961 0.5759290001701224 7.718509304377643 -2.312920695139049 -0.20988069371766435 -0.5677268317054351
Ni 8.454464868729103 1.2417280895662322 4.5519217999412405 -0.32943853337935525 -0.8852171915839786 -0.9839858624144602
Ni 6.726039647571323 2.136342870192163 5.826167278352177 0.2587195695972383 0.13613939816945586 0.291758245219762
Ni 5.102794313724874 7.5201135896446445 3.7305308895408165 0.43810697982205193 -0.41382496734623564 -0.48864021268491337
Ni 8.123621031799178 2.6448482168575285 8.318746920043456 0.8617211653445677 -0.9039836735582044 -0.3905382289041532
Ni 3.029223864918371 4.0985292897110295 13.223584120008882 0.06535384281546164 0.37416724374529753 0.6739437312838458
Ni 1.2443334543236544 2.2436689032928796 8.782588067568811 0.16485810626038705 -0.9823904929028822 0.18682201212598792
Ni 6.049713197628407 3.5863127040386886 9.127546796085618 -0.761436829200508 -0.215640479019577 -1.0764792417591913
Ni 6.822663067172125 2.7863532617219815 2.876974033383471 -0.27320387925634243 -1.4019747313303985 -0.10922226206363769
Ni 5.084584875869941 6.232716642298131 0.8664965220586873 0.13546936868562476 0.11001878982300409 2.2329046223257225
Ni 5.001194460001081 3.8098961105776152 6.760843759440528 -0.2068593903928373 -0.4104231407535383 0.7610532206088441
Ni 3.711660738680854 4.38462270679674 8.951082067211768 -0.7585790480367388 -2.6740501318637815 -1.8826548086279706
Ni 0.32907162658593586 2.5440355956503673 12.82300460264738 1.905250948760932 1.5433586657282452 -0.13918975496000544
Ni 7.965509129560078 2.8291356002746157 0.9895306554108975 1.2678706184234165 0.43937041991550785 0.488269716719372
Ni 2.464403277866855 3.2221801778340757 6.991351063399539 0.31302178258422864 -0.7049988008174375 -0.22774497559259488
Ni 7.48952398328412 8.493498481012065 3.627052923955919 -1.2810462365734259 -0.22625450708999742 0.22927375353229545
Ni 5.392777034315369 1.1550669100270843 7.415783726014964 1.3073648198632968 -0.027342653679010974 0.04433661713384622
Ni 0.8755272036423276 3.825453324596755 1.3627154183752015 -2.2267229189950424 1.8813116643365146 -1.4125885022905027
Ni 0.6621412697384772 0.39520103234608894 13.067982927188893 -0.4074149500548338 -0.7061617107772872 -1.0606813554949863
Ni 7.1051202197762535 4.23982815463065 4.4724759812896435 1.2714511366858232 0.9333281881585924 0.5284599157850125
Ni 3.9861331043305808 0.5150974818105836 1.1566976059543916 0.41402937004755797 2.2963075120624 0.5607593992486666
Ni 4.5227913852811845 8.705189053460455 9.623854724651038 0.04024239245981456 -0.4593360644041573 -1.8002872048633318
Ni 6.5294189547270145 1.084693946129662 9.358876945460823 -0.10411656540595618 0.0037147298474258608 2.6536180892616748
P 8.84237369129911 0.9820631926817104 2.2814129537390744 -0.27730710279143855 -0.10534272450357342 0.445031217745711
Ni 9.231988184321821 2.8638956646101517 5.98936713932079 0.7857180703453759 1.458184959973379 -0.11631644990625775
P 5.834283270726017 8.33400892186886 0.9962746139700378 -0.41428082393673166 -0.023994048921752227 0.019497446602979324
Ni 7.604319353477158 4.596519459189963 6.746276209156581 -0.3296226243657033 -0.4691995874617984 0.9384613956200999
P 7.712573196329617 -0.032357130796675924 11.603502711134036 -0.10796344995587213 -0.7215366505714605 0.2380242460314159
P 1.6056263203789907 6.24192913710585 8.249711314242738 1.2088170067943698 1.1208317997326376 1.054806641881764
P 3.8121922054177895 2.040947158444679 3.0604198277530164 0.023590642835746467 -1.52561291170905 0.47462847178685347
Ni 5.477254580802433 -0.09921472663471288 11.487432774009308 0.8007096586582017 1.6923934318031304 1.3510643176337764
Ni 4.976640302934729 2.256995625181564 13.220634809616218 -0.9054453457053955 -1.3185434621879355 -0.7237948504780181
Ni 6.635629741762504 7.979182608628707 8.361295900385803 -1.8277974944684585 0.5641550551937767 1.7529457394648909
Ni 7.281235379925456 6.656154018088958 5.79583914564896 -0.663254884111432 1.67463739337129 -1.6691200630974867
Ni 3.245918986936775 7.558022584046706 7.897757462506724 -0.19216013650944969 -0.11311696913235358 -0.2599382724956878
Ni 9.21672149658858 6.353003896476239 9.85400496243286 2.5696381467045937 -0.8896734275831194 -2.8093873458469165
Ni 2.865760655929313 3.4153707861416343 1.807202829351806 1.9174397775176395 0.9679267520690683 2.014667586223563
Ni 0.7564179866944643 4.833888806585609 12.956507991289218 -0.42572094745287326 1.5497409151055053 -0.17208239192296815
Ni 2.442651293687082 0.40220177865470186 9.916525281976888 -0.8481488259767717 -0.6359006604681952 1.49728861084306
Ni 1.8849251711009207 6.557881158929501 4.192780702764696 -0.17267297431911552 0.19453275050668434 -0.34445891804758744
Ni 5.38589812161052 6.504986631264425 7.230019344447626 -1.223399789704551 -1.0385814382721534 -0.3770178258202152
Ni 3.0775074592717497 5.329639112118414 6.096561967002067 -0.5621830190690704 0.4892989293148347 0.3267923540057598
Ni 8.088729762044204 6.919323974035623 11.397342447114978 -2.6622803929223635 2.0679315877540256 3.2343590738385912
Ni 3.9331073712460674 6.249895180428903 9.810207656242714 0.7653009401416044 2.5563067197030103 0.9176053781066971
Ni 3.0165531701268793 9.254574260096597 12.49600039859917 -0.13290932126793237 -1.222995612287597 0.740004627468661
Ni 7.834697326379865 5.893419427630096 13.628099799953539 0.04146649467490278 0.22592334900282382 -0.6522371928446896
Ni 2.5085257860608974 3.2746248583467903 4.5060945584760645 0.6842255728258281 0.1890989810856227 0.05407209925405526
Ni 8.182073046159044 8.745993938905839 0.486453464384018 -0.6562177747589925 -0.21689980534797484 0.3659877932582987
Ni 4.3112788773306026 4.1367850412930345 11.287060543350625 -0.014819581511335767 0.024364801997609653 -1.1378977540759887
Ni 0.43343241720734127 6.574731683511678 1.7374812066437397 1.3571907422464884 0.8467596589387287 0.05105593813555078
Ni 3.991540641974583 5.254242855019632 3.1097999245402734 -1.0294491369535816 -0.001563744942694081 -0.8373761608412998
Ni 5.152258756853199 3.1006371003556277 4.390340451539558 -1.8282147845115353 -0.2846946535047613 0.026972671934101935
Ni 1.8678872102052602 5.402289427224662 10.658415080013237 1.25909595755458 0.8255421443208493 0.3423210457689782
Ni 6.815905988071041 4.755268644894908 10.994801408732872 0.48241582904175634 1.2629983779327796 0.10812311546218799
Ni 4.208188904914616 1.1249271508189194 5.491234518243608 -0.7639025171321812 -0.11369752422617192 -0.6967373321395937
P 3.459249627128148 1.6467311039259467 11.49514109240132 2.4662057518498557 -0.24821892717623056 0.6161180785246293
Ni 5.815633357534398 7.286877212961312 12.632151325168962 1.7708503876594535 0.27957712977253785 0.16312235451620294
P 7.959211269427029 4.630782817294768 8.905324177182582 -0.2034123123845013 1.6548249866310534 1.2570401034668157
Ni 0.989410696170268 7.250552055408188 6.52489049339325 0.13898406670710256 -0.3022527169931827 -1.604369915304295
P 0.36369298804949374 1.128479068959434 7.116816245737631 0.8695481175881541 -0.557141599990421 0.31842264188482583
P 5.932190629074182 7.018515271131151 10.322660411670043 0.2362311586867351 0.15132176233684907 0.3070671076626905
P 8.001075170043594 3.8467648334398414 12.707743453215336 -0.7927520943740218 1.2357850507427814 -0.6200356684114805
Ni 3.4792865690395463 7.772702765695161 5.509930353332032 0.4673810461958209 0.2386189421926213 0.017900277319188525
Ni 1.6408830909452579 0.04233155421870633 5.582752172665116 0.4004567735694458 0.4638568350926463 1.048026128624821
Ni 1.3481075692838562 1.4111049142456982 3.6760215980350797 0.7098581857922677 0.018318081582897487 -1.4004937759094978
Ni 2.0935417880081806 3.03621523941131 11.029449011280315 -1.0626914439464794 0.2713637407238101 -0.30817988111089506
Ni 0.7922286315670757 8.630823696085834 8.500341780817351 2.3407379744616335 0.009174210300100329 -2.3255203861809304
Ni 5.662957108386321 4.680800197547869 13.147895462261065 0.869038010720955 -0.7411850209300074 -1.4045152383640649
Ni 9.389247251334572 4.022252081938873 10.79319397276833 -1.8895019134567907 -0.04627728579998481 -0.5238753817381235
Ni 7.6406070237675845 1.6146513788732264 12.912998399840268 -1.384876381087215 -1.5992256520991943 -0.8008258725210917
Ni 5.3879505492431665 0.49965928985050584 3.3775480124437762 -0.11452387678220921 0.5531455914571506 0.5338510048935967
Ni 1.3007799001292442 9.076912750361155 1.5469446965351088 -1.8141655055073207 0.3426054097786164 -1.1781054366431258
Ni 6.435250950832848 1.0098974852340268 1.2812480990826842 0.1752060251536144 -0.025177013486259864 -0.26604798493785153
Ni 3.3761216220981662 7.848858139863553 1.018174672837463 -0.8109159097672421 -2.917760629646698 -1.6401069636945882
Ni 1.8028280657950988 1.8771746795383732 0.7832991655927164 0.12434960462337939 -2.2663266494295935 -0.8530097536134987
Ni 3.8282648692990087 6.469073833600966 12.294147421063967 -1.9877764182596735 -0.5029687134924434 -0.1724235773124708
Ni 2.692372694141298 8.40570331177634 3.0446601825153143 1.4911573011343418 0.5356307225018389 2.5917424348028013
Ni 5.197056035775781 5.368579006244635 5.025391550890248 0.30172589795543525 1.4814066495054807 0.880647055714793
Ni 9.009810550134022 1.6225518194865607 10.703172060128422 0.0030295308549431695 -0.11354942868408187 -0.1963628617368876
Ni 9.204987983364507 3.393946815510458 3.286017237480324 0.17484118561502793 -1.114140760865707 1.9585002950033756
Ni 8.265688385604083 4.996714732108823 1.9267984435331595 -2.6885146440285443 -0.3897453006892127 -0.08165412263738196
Ni 4.995674460568989 3.551168395260511 1.279765477843029 1.541457334940474 0.16409731683496254 1.8174704015108376
Ni 0.34211625682282776 8.638836598487257 3.779595156139854 0.8701235304756498 -1.4038770905594338 -0.3382502181337142
Ni 4.294887571716461 1.9456264212225884 9.46677184777296 -0.5072953658922553 0.5485965386338875 0.43061247121721974
Ni 7.7433408671879524 0.4249340547539943 7.679471006186845 1.5810140141871738 -0.5402427673525534 -2.923692164639784
Ni 0.668433506782122 4.4461674203290835 8.262220813804635 -0.40348013377680186 -0.6290964930621682 -0.45321066823270983
Ni 0.5895603060682181 7.4666567530391195 13.199812509551323 0.7484900392318528 -0.9240051109854538 -0.7553001201751508
P 2.444235130536019 5.613436434363951 1.4986620393632977 0.059853996043154986 0.5134647279277609 -0.45295381502689736
Ni 8.790350742491734 5.758446538290547 3.9481172712298345 0.3466520690441643 1.9738538946413104 0.9422226624347451
P 6.170928261558259 5.598207233893408 2.880774304639351 0.26174421535617504 0.15776134731460573 0.1872873817981807
Ni 8.353389836683064 6.84388085785847 7.771071132586286 1.2364491666893416 -1.2841287321534918 -0.19762835871287251
P 1.0035433942069323 4.73895231380616 4.852398142542117 0.04630453949349445 -0.9391476230538471 0.8618821164024639
P 6.512718379195625 8.908079490990792 5.732962697109317 -0.04341667642273813 0.3208245664580991 -0.6777746749941618
P 1.9333212272423892 7.555182923897429 11.343792829534278 0.2349083261102535 0.035990302051679954 0.4031453761452025
Ni 8.574349134833222 8.812964933713532 9.764435708490014 -2.595593690228091 -0.4225278944368723 1.0498346425884695
