# total energy = -340857.6649803255 ev
CRYSTAL
PRIMVEC
9.44023605504545 0.00000000000000 0.00000000000000

0.00000000000000 9.44023605504545 0.00000000000000

0.00000000000000 0.00000000000000 13.81673970024513

PRIMCOORD
 96 1
Ni 5.3581647675484945 4.8006999412074265 1.412692637948803 -1.5362212833525155 -0.2937248820278296 -1.4170961603528693
Ni 5.066319866337119 2.445851908945581 12.78981038427311 -0.1904945758815687 0.8632165189431714 0.3711860496297865
Ni 3.5785480861006187 8.751948551319854 9.625735867238818 1.4374500414188727 0.48929327288787994 0.5179063086388822
Ni 8.726648718382883 5.2062430468564465 6.375043407245608 0.44883722175536245 0.2882466325220778 -0.13201894824317906
Ni 8.827715886824382 3.4422216355622566 4.2618286040278 0.4449381438112724 1.4643484084716136 1.6182330464396324
Ni 0.2761863814753466 8.118971275850862 1.3355168192076343 -0.18292601950569143 0.11067930622513841 0.24658370556565273
Ni 2.2320777608643394 6.388878073353492 3.413356225423682 -1.8047853498440014 0.6860279161418894 -0.9942972716427972
Ni 3.1716550266792156 1.8944949154068347 5.101927493148674 -0.5919473948156966 0.29156952624772364 0.5951795285997492
Ni 7.337385802585673 1.102194774088114 9.293705768696807 -0.5631731508964816 0.9579346738533632 0.038830085493320225
Ni 4.413423692548347 4.143867188935552 10.961414114484967 0.4182498358868087 -0.806376884246308 -1.329957103341516
Ni 7.572919695039944 4.9947345554561275 1.7703388173394967 0.6120876172089974 1.0025854797935185 -0.15618166153231167
Ni -0.07491582620194814 6.850684986578762 4.293800795890089 -0.691059565028526 -0.7762078168620955 -1.4625586635610426
Ni 0.1747368834689407 3.990302867149835 11.698385031608316 2.561600364001782 0.38942802655910996 -2.519667728323738
Ni 0.11266827467144218 3.1861835501456337 6.807797993656127 1.4183323467528155 -1.5395575468146 0.19879666798936085
Ni 2.2151136564659293 9.082668345081396 5.6463761218578385 0.5569785920499957 -0.4569295118451937 -0.4721589272004385
Ni 1.7916152216205963 7.09535702764609 13.240485371006114 0.4496224366608192 -0.13930416905068266 -1.0822102307056976
Ni 7.711474041314546 3.9166501445475017 12.695704445983747 -1.2312583665170214 1.2651077109662987 1.3424508649331526
Ni 5.763613470835809 -0.07832091938865178 13.324158904303447 -1.616900700781454 0.9346358512264227 -0.39546266278896414
Ni 2.3300862927865937 5.333960002007301 1.1513283712847773 -0.061663538448067996 -0.2900595173611004 0.4332745914304151
Ni 9.43000295450304 5.599957536583815 13.572238870628327 -0.7973623394525234 -0.05569317979724602 -1.2510738585810517
Ni 3.1522459011126434 4.818249340248409 12.828276514597096 -0.45213517578034385 -0.1318212304100762 -0.13880228971359967
Ni 8.903039531228897 8.451579116846506 7.257878245510388 -0.583446299323221 0.10275105251699723 0.5683079010198858
Ni 3.3935666583394384 2.117586576588371 9.39717925333817 -0.9163753623543379 -1.0966642013474985 2.120340954593677
Ni 9.295876078992409 4.658775430619952 9.447472111536571 -0.35124071685611125 0.6833719665762811 -2.4754059302918856
P 7.029190412326972 2.4269431158960457 0.1039030153871219 -2.380528366985694 1.8174135801309732 1.8641958305918347
P 3.0873537176765447 7.0330514689207115 7.150245392812296 -0.6749150940581796 0.15979868945960865 2.307540147553426
P 3.121612334739332 8.675671443062118 13.652334554417036 1.1540769349390125 -0.07378063342657615 -0.8533889913297884
P 4.262700881849955 6.002772413979557 2.7446127271754723 -0.25662823428584836 0.05290558974977985 0.03283195892835636
P 7.826956450388419 3.0683882832099867 8.036769475372513 -0.5670691435167782 0.4724124379721412 1.2110816344588304
P 5.314305430300297 2.0688655177123594 10.122944610127124 1.3946113489867915 0.004365733167863449 1.3014196580234554
P 1.2490376477204264 4.740348511369345 4.560353416353429 -0.05264539410985771 0.19615974458714602 0.5003443884957189
P 7.950019369107212 9.042094210020537 10.707337710144577 0.9523142423427924 0.169780740372985 0.637001863952174
Ni 4.7160021422855944 7.752963879283947 5.957501761423867 1.5906335395548088 3.488555815864811 1.4093193446209278
Ni 7.578130705406067 7.333109375600431 9.393656157199336 -0.8644820159191563 -1.3327367229691822 -1.1613097052420258
Ni 9.002435777868216 9.166525962984055 4.824749886875423 -0.3695063479345185 -1.2699809798981998 1.9567151780784948
Ni 4.156696469891277 0.7373541907118734 7.298181445793154 -0.3165490790111968 -0.5496378354142082 -0.24785794429238603
Ni 0.9954917846528183 3.2662745138162563 13.47297950741348 1.7143737927289637 -0.5031931707984237 3.2835643319186487
Ni 6.641885842959381 7.797974925344947 12.106351445882307 1.2351065366185179 -1.8717990968603893 -0.9240490768495118
Ni 3.6181781975444274 1.904218358662462 2.643957153031007 0.06132312438951375 -1.3334242359545099 1.0666817960527952
Ni 1.8226924790939214 5.130711717256181 7.957598934728516 -0.1973015715010731 1.1258498217725192 -1.8969378009095461
Ni 8.767619343362904 3.1297120573736317 2.0694715808745063 -1.4021611363095916 -1.485191827579526 -2.508276455767661
Ni 2.1080708185284953 4.325893822775361 9.954449610814125 0.7224601908269945 -1.9699337336512974 1.960099521169695
Ni 5.889904950324917 8.757074599560443 10.093322093047675 -1.5271267772504151 0.6339494502790952 0.9238842691368734
Ni 3.2217826807446337 6.488340401646005 9.858133713237244 -0.7523639203649624 -0.6265379883063725 0.30292943134523315
Ni 5.26642455244346 7.88340906268808 2.9440981337890273 -1.5859556744631655 -1.0013001853231918 -0.2875542344407435
Ni 5.298983926995556 1.8480583936840866 4.364708297814039 -0.7804750767788817 -0.9697267813922846 0.28600771588923
Ni 6.273471186168984 4.511819274153593 8.981585128238407 1.0143840150903434 1.579426615095396 1.133475713748893
Ni 5.349932881607808 0.24515821323010814 1.6773657073905932 -0.550713070756258 0.7129123992375593 0.13335155101167356
Ni 1.4187730940662298 3.438832590777043 2.7567708073394748 -0.8581077369616964 -0.47704042366245586 -0.43669698684840275
Ni 6.518973968019317 7.034014373010104 4.637782233423967 0.8898693456440094 -2.0993923773664687 -0.8077891912128023
Ni 5.623567567246265 5.144466141356617 12.737431233881026 -0.4490295402718267 0.07138359394930932 -0.6356525490131311
Ni 3.324105400596812 4.050937504073032 3.6664933262651074 0.022554231151432125 0.8922213908159538 1.3709844535964713
Ni 7.0491281911190935 9.130926832385054 3.5365050502916273 -1.322913052010541 -0.14231081708749038 0.9065599189258129
Ni 9.156726997839064 7.978821529663443 12.138420872177154 0.2918289505566974 0.9257763439532637 1.1513939887902107
Ni 0.6361841236961147 1.0971725684454017 12.643684968589758 -0.7058148689608296 -0.45365855440340574 0.2532492905112864
Ni 7.905319850839838 10.114835447256654 0.04514415339100484 2.7169775273549273 -3.492213981442689 1.8296142359622232
P 7.19458335003434 6.305275341827439 13.61002719199527 0.6612669071471257 -0.40102910113314805 0.6399470626234268
P 7.239160145231497 2.0618703027100103 3.811927716660779 1.3461712512075332 -0.5966381154231466 -1.1649555295247291
P 6.905438356367731 8.328657801670273 6.120208007917108 2.328517264025725 1.2352998835762468 -0.5726623213338397
P 1.4867144737854037 2.2470971766116237 11.012646276182334 0.5157931189506214 -0.14408384982751316 -0.9702068063524968
P 1.2507085695226068 5.956250930131274 11.138157992163759 0.070063332475989 0.7928577667139506 0.6597455854065928
P 0.7001936450502705 0.8021019385345631 6.70827619187574 0.4149120297628274 0.9807493577550335 0.7110753460288205
P 1.2558440579993655 8.58531894267415 3.431511687626811 -0.845200541981725 -0.6006441512587463 0.3419814030413723
P 5.4295518334699056 6.0635392142091415 10.4261668839712 -0.04140401686808353 0.34241309126215225 0.7403450415272153
Ni 4.938772835437334 7.101342137378194 0.1699601239666617 -0.13373078872796323 -0.14515291452197582 2.3851848919210985
Ni 0.4339818171126867 7.809803541266599 9.740856715267357 0.24915686560946768 -0.5954384386880907 0.46128213238693455
Ni 5.511549724846971 4.380845437523911 3.829337400206437 1.8292177718547526 0.7429567681184495 0.6564941683488307
Ni 5.675885356103242 5.164356718967886 6.398780881096359 0.9312553647899638 1.0632285473968721 -0.0013763115222363393
Ni 7.861488834300151 3.2422679932346443 10.502864082738522 -1.2642489625104292 -0.7167749675167592 -1.6401545291030721
Ni 8.42525029816695 6.005906572388167 11.217506953271378 -0.7447467701393367 -0.7403769232064153 0.4832126139114387
Ni 1.7604624422579072 9.055329421131596 11.379453260752893 0.6995218368632662 -0.8423155071244462 -0.4393570501790691
Ni 8.751401017621964 0.8228053204801127 2.8373781519286245 2.0757513409087602 0.8149880229540868 -2.4196477015846583
Ni 6.89600756043339 2.9760438929900395 5.767853080899986 0.8297016750151776 1.2428818096885628 -0.027781540988642474
Ni 0.5409585733969272 1.5446020019829825 9.002172395279059 -0.01858650475293573 0.5408881142460362 0.11477687333327975
Ni 5.545921624743805 2.9471473300721027 7.621990986677882 -1.5752197761029 -1.8872984780475692 0.034195414934786277
Ni 5.140265236260739 6.830869930856858 8.440950354942128 -0.4883867019132105 0.08401490956007467 -0.7627540053500348
Ni 0.7226009896245974 1.6230126036152541 4.652358902094854 1.7799240678259474 0.6444413509493546 0.2268278630949642
Ni 7.077061849947637 1.5435163748233738 11.938160422174 -0.01738194292187329 -0.7525500682338394 -2.201414007916609
Ni 5.877764806609639 2.457123550933172 2.054770301086168 0.996060019970175 0.9204878418608147 -0.4558974710362535
Ni 3.5726951396749014 6.217471705205509 5.21015413670189 -1.124695910673734 -4.03746371509153 -0.7246219743650036
Ni 3.168794635119551 1.2978814296666545 0.3358448979785134 -0.12429612567762464 -0.2752859585963517 -0.6276610461672223
Ni 6.03270740287625 8.928830256446735 7.786257704210109 -0.011202039363406514 0.9496359241796807 0.9949107368570801
Ni 1.0467711475310388 6.990881933947035 6.25189552640128 1.0430829256869325 -0.8322028441704765 0.4867255121607037
Ni 4.291946733506201 7.593084039500158 11.941559851219 -1.3916424961664549 0.3187031492397221 -1.9574242883303774
Ni 1.899130071366556 9.054385397514544 8.382837205100074 -0.8952097840203164 0.35535139659037507 -2.621622767302001
Ni 3.778652772206959 0.6967130299742026 11.614448115721828 0.6620102130710533 0.5994521878331741 0.10280890233812619
Ni 2.721714490320279 2.5469662785679335 7.43558880337304 -1.4491367337281817 1.6057462268265315 -1.9858290647253158
Ni 7.9524455098030336 1.1484424910874518 6.9457170120364555 -0.3590177896983688 -0.21909784144055813 -0.5780001886069852
P 0.4699151320721231 1.387884641316315 0.9907707225439453 0.14522670518270472 0.4043903042958971 0.024725013550505805
P 9.165336493226569 6.452071014278899 8.031864328658315 0.6235110285545907 -0.11949047675886519 1.1403804112885263
P 3.0385948978558512 3.2373401899536374 1.2039907287619775 -0.26342700237523664 1.8146964383101263 -1.3665125338680466
P 7.403694021447349 5.07739326336513 4.788910030254074 -0.9313119290595122 -0.16521883203391546 -1.0549100002288476
P 4.122739940385946 9.291052118309276 4.409556971812906 0.20424097893338372 1.1509378750893986 -0.30866581960837813
P 4.02727083199356 3.94871862681873 6.144290050388083 -1.2539522085701114 -1.4333087655569896 -0.6635132799791412
P 7.206053236981512 8.258044835114843 1.4479113270301318 -0.22079348397542617 0.725962547553298 -0.010963183879723054
P 0.22017746027569965 5.832338390157135 1.7617859633690127 0.8248710863957536 0.5803774305899101 2.0643803800676577
