# total energy = -381174.1188312073 ev
CRYSTAL
PRIMVEC
9.19328385079269 0.00000000000000 0.00000000000000
0.00000000000000 9.19328385079269 0.00000000000000
0.00000000000000 0.00000000000000 13.45530018700772
PRIMCOORD
 96 1
Ni 3.7914390211155804 7.077468061908354 9.162171153346925 -0.9012271938589899 0.9209030750213623 -1.1788040053720474
Ni 7.494365104029982 3.6122619162608887 2.4624680009524798 -0.6026925491473427 -1.6241607247779768 0.4612762188496637
Ni 4.851112092853952 8.264210704878204 4.571411024272548 -1.2674903522658623 -2.649791259316417 -0.15590243972899603
Ni 3.7149876715018495 2.580591587538803 6.859794999697657 -0.29327828140871426 -1.6656565300289186 0.23186105464349746
Ni 6.009999085351267 7.68630248705493 8.432396319401224 0.3573154622952814 -0.2485804242807074 0.04733555186117009
Ni 3.6861759194949433 8.730530841699618 2.3833377283857136 0.16635448830025543 0.823030433642589 0.553244321818544
Ni 0.25771808791806144 0.6939633155131216 7.446338469167417 -0.3707217083988583 -0.7285434209065969 1.632684188867956
Ni 0.17128191256894432 5.12862056320509 12.109823909856674 -1.0995060416716678 -0.5858022011499073 -0.03200972013737713
Ni 6.157542100015861 2.1478177439762276 12.067574334649866 -0.7234572646329412 -0.8443124829498169 -0.11912383744806582
Ni 2.4625038547600187 3.789407305355042 12.545937673490759 -0.2948762220234535 1.321701548200943 0.5697870566685735
Ni 6.2615733015825965 5.580966908370315 1.6778221322178763 -0.9148380997742052 -0.286213661252449 -0.240523872524818
Ni 2.6195343384964467 0.331462934726804 0.3967122678056224 -0.8213540743814306 0.4660402158972103 -0.25262579799467466
Ni 4.727931280747844 0.3637616993489685 7.339839790179286 -0.2291539401249795 -0.3966353429408266 0.8304128421495892
Ni 2.8088056691659378 1.0339226832982482 11.289777462483592 1.9847839112902526 0.2719471240311058 1.5807736160415935
Ni 6.865333033969821 5.131746279759764 12.02209515877936 0.13710279052398966 -0.9115257475715205 0.9122199454250676
Ni 3.4978147239399013 6.825360635205932 0.6829819377938333 -0.9387226197012866 1.999575210666814 0.022948124155741125
Ni 1.9325937726189582 0.9357659901975023 3.756679214370809 2.2199488334960025 -0.3595011570926905 1.432571887390965
Ni 0.56306841881576 7.759903918633517 12.805248038194907 0.8280042327080966 0.547650115560218 0.3678168760472375
Ni 2.121267539829468 6.736728184312957 2.620514342569176 -0.20250959806457383 -0.22047106763900093 0.7053975789177529
Ni 1.129551223303302 2.4950572733485488 6.135832159886854 0.94159274216023 0.14411701705829374 0.9923915699796523
Ni 3.9061620119560985 5.751070241932468 4.636683340561326 -0.8939478865887572 0.010087723253305208 0.09486727889354629
Ni 8.085787449310228 6.424220881833454 5.704038320397008 -0.020602249631383872 -0.6566039544538177 0.0874452753978623
Ni 5.839813012233255 3.185105169212742 7.73040634764138 -1.7106629195362797 0.2252702887998572 0.4941470014357554
Ni 5.773547821274167 8.744651725899557 10.809086384137865 -0.942230889964861 0.0763404237339524 -0.4699423791650939
P 4.836936048950106 5.526781692566645 8.024660384769986 0.22028414843917546 -0.33867753547911994 -0.3433353459661055
Ni 1.516579285759826 2.7403065101986566 2.0525256781650003 -0.18063388103740505 -0.6502430452327962 -1.3516451298379109
P 0.47771521231999753 0.895857025093105 0.6346179094090433 0.0260838415712454 -0.6454050004142047 -0.0012066187135914704
Ni 8.422142130445097 5.313065419782807 3.440130544251792 1.1421524155872846 1.6288069653007369 1.1669992994276353
P 7.605180949177158 7.162377232787673 2.7856376741970146 -1.3946802545515142 0.6608046227987264 0.18262262933265966
P 1.236652981720806 4.715051489885791 2.98929649430199 1.4725705392710897 0.30520074387791307 -0.4420423103207161
P 4.23272584564765 4.082636291319395 11.087504070275056 -0.6862089218044439 -0.4792513152708456 0.5639010302014417
Ni 9.27059950264337 0.7764610880033497 2.7971016993254807 -2.7936552798236405 2.309714015276293 -1.0685005944290888
Ni 3.272137988692443 7.73989013939962 11.578097234800309 -0.5137313513255862 0.7360942366706613 0.7332817069225307
Ni 2.437498122322627 0.4554637877643128 6.490998138710469 0.058296421748047986 0.3242096808802481 -0.20329789829382408
Ni 1.260160208868751 3.576876966205183 10.629525919341027 0.1025168250190041 -0.319386805570308 -0.3976406442768894
Ni 4.797303801693638 0.20088888364049554 12.967572934177912 -0.0721199578947016 -0.2608954942026346 0.19064498541650393
Ni 8.239379644836514 4.302190299433287 9.795633466959137 2.591306375706647 1.0210596273383061 -0.3700264821040466
Ni 8.898391013969594 0.8387235231156577 5.290718385073684 -0.7864600907177229 0.1994160467409146 -1.1402384863940234
Ni 7.0962131679524125 5.083996362745127 7.83833182430388 -1.093100138145324 0.5493573280593119 -0.10921814829857963
Ni 7.781940220343969 7.606210596983403 11.591296951945019 0.4933957250920276 0.9712373044995403 0.04389772982421472
Ni 9.37981571637727 8.012847934178513 3.9667439147560697 -0.014892857951432416 -1.0187847152612002 1.1328565921076554
Ni 7.101388986835593 8.302050261757728 4.993733023273332 0.3514960274000269 0.2938367250153455 0.012594805945875082
Ni 7.257941419804836 6.354259990712664 9.998674498380367 -1.5756499216617832 -0.7579311300400947 -1.4355754501039792
Ni 4.89337361932994 6.166716997432227 10.852520973650256 1.0477790456110214 -1.6317673334806413 -0.4860359422928468
Ni 3.199529431784164 7.343273481747434 6.787539464894378 0.8227051890926864 -0.5396714682301157 -0.9015442108787762
Ni 0.1215278596457227 4.786713138543684 0.9963892627754033 0.04929807490417961 0.23484224875900844 0.661017510140481
Ni 5.8259587332688625 8.092259521235201 1.5108013067756711 0.2364782417005347 -0.2715943686773774 0.5311294921973756
Ni 5.553966233308324 6.990757007368105 12.784311253248982 0.23092748708563457 2.295608686223163 0.3861146459151608
Ni 1.7734488335661331 5.896802179652148 8.073839857444186 0.1243730016621471 -1.4406109556453577 0.14906381954060777
Ni 4.172675314661973 1.090047682022614 4.811117630208499 -0.1853703672811259 2.096198810129835 -0.08336544890153384
Ni 6.62033201578729 1.4771584840349967 9.307986749950862 0.47670977979591456 -0.3262678489608574 0.0007129669066245786
Ni 2.4196907312449696 1.5597049809303418 8.9471558695361 -1.703763621313285 -0.1582046054996114 -1.5746423063328752
Ni 2.807858760915551 3.2273850822566996 4.203476493323089 0.1865366196750852 0.347289445517847 0.03282553117045314
Ni 6.1639038525330205 3.8756862755480275 9.981128196567862 -1.9057553992011758 0.07936635504446976 0.5232241213073698
Ni 0.12233135266595357 4.657860070219242 6.488240153515168 0.9849675096014391 -0.5784102795612103 1.2729470045050593
Ni 4.28589060692906 2.6885299347988814 13.287391655410158 -0.43557572875976597 -0.6577977176516027 0.6442906843041033
P 3.611995311025343 9.200730544362422 9.708052727753971 1.4099346096074235 -1.3787126754786643 -0.9365590363910645
Ni 8.108145515960132 2.4349607759429506 0.571958324428612 1.3804494556641127 -0.5601510762407061 -0.8977207233676281
P 6.3621478283712225 3.6646084752676926 0.5021877342862976 -1.0232237248691602 0.6408955425796253 -0.7726967183850434
Ni 1.3022930293689587 6.024726726294172 4.920913020833414 0.5453111830143964 -0.7424705725106503 -0.4329902274207769
P 7.681770198050653 0.7338529747211517 11.167684215872832 0.25438314700541353 -0.2838767855891563 -0.15486859914784296
P 0.7142041688614322 3.625187673542864 8.621173970720758 0.9518948954171863 0.16321311445779632 -2.5278042413879436
P 1.9119640433581102 6.111171175598874 12.656136649282583 1.6399529546152272 0.30195704012963476 0.6873214381423324
Ni 4.468046335794676 2.2072890980708912 9.885474834696051 0.35430881425847366 -0.6412920066870955 0.19445741718405865
Ni 0.777148745645378 9.163093239730554 10.782136272137786 0.4684254282999353 -1.357737615888894 1.057461820116424
Ni 7.325567216793605 -0.11385514483239662 13.272294444451083 0.10222423347924976 2.2357791156600397 0.39752160220052185
Ni 8.161595269045055 2.909527288498313 11.536937983074044 1.0751065297813809 0.16211859584203692 0.5506115121813873
Ni 7.226730220678018 4.046286046445334 5.725862257247421 0.9185078353163085 -0.8219372005784102 -0.6521271496293867
Ni 5.8910747637299075 1.6230650941503795 1.2409434873562954 -0.0015766004585005106 -1.109430242763915 -0.29239870701723836
Ni 0.7730669275563331 7.738042289318768 6.555005459123003 -0.4410827746209242 0.4443431905397509 -0.7294067973481567
Ni 2.567978401912295 4.40445639047503 6.357440866971244 0.4170864117063268 1.2953654814095756 -0.08043207730482277
Ni 3.3676010495857787 4.438489927785038 1.9206360681405337 -0.27908064975209357 0.6140545111273812 0.3728354123077514
Ni 9.211578619463937 1.7126076801578034 9.62191257614915 -0.44245137283367675 0.8351243886926455 -0.17699936960861132
Ni 0.22907457300806855 3.1410141792238715 4.093586411873137 -0.614703971785922 -0.8237405723357363 0.4425791566607926
Ni 6.292674181301603 0.6050320828906559 3.403585401757263 -0.2632866201426304 0.41473308098280187 -0.3455526653323984
Ni 6.215956226452326 1.6832351378278527 6.070721645396198 0.7017281004859657 -1.331494880142281 0.2092410032511364
Ni 5.058411453416723 3.7014183843409705 5.358196170190306 -1.4810348679883591 0.17085366172218963 -0.32926112726122647
Ni 1.0593053403789974 1.8507919317263444 12.182711942598077 -2.0855801540737247 0.24183924890213185 2.1433736680434246
Ni 7.617545916136088 6.882561248156464 0.26868659503977166 1.2401798373763673 -1.9190153495348756 0.9273136065333966
Ni 8.125879360765914 2.6378933266131637 7.699432335241358 0.24428642489104377 0.7945307835409994 -0.5799406001628077
Ni 0.40337739869426537 6.5909778600253075 10.289766045818359 -0.6761759630484742 0.8379649434652342 0.004434895842902039
Ni 2.404503426102848 5.7112081625763915 10.535540219183973 1.350292215354442 -0.9621217153515174 0.42159278421711266
Ni -0.06806615529161872 8.045254260223295 1.6552572166783257 1.0734661659644802 -0.2789089000609197 -1.4949381083330124
Ni 8.743208380314016 6.536075568070858 8.111904649781327 -0.20981050260136125 0.7928688224575442 0.04082551865679421
Ni 1.480486452837326 8.052903072498262 8.792904515548138 0.9271521412548678 1.458047148843934 0.046561135588990776
Ni 3.113765285494302 3.8342429513466443 8.949201375222614 0.08430441577603544 1.5390240429086333 -0.8065632892255012
Ni 8.214373912399124 8.701719089692713 9.346037752362026 -0.9466542158435375 -0.8396366747407022 -1.179556824377672
Ni 4.4440886377314985 5.086570482260742 13.30655229789031 1.327727442680049 -2.3710281408047424 -1.2693466887483107
P 7.318754993361212 2.2101206295380664 4.377816092145223 1.0193290178004446 1.0750988164718969 -1.3317645888639
Ni 5.695763445482708 6.526036501959965 6.238873244768476 -0.37590736636485583 0.06466273028570799 0.44745011159984877
P 3.6332593768811106 2.035935477886869 2.0814541848785075 -1.115374119052176 -1.4089511626482316 -0.3552562657734075
Ni 6.206220538712914 5.439905158914677 4.141245315376328 -0.5525390682214032 0.689861945175999 -0.6456299719408171
P 2.1996402857959247 8.115656428975333 4.904497492950985 1.0406352354773885 0.14832051361668003 -0.6906821270844492
P 4.4825901110578945 6.519003639711948 2.716867313352196 -0.4156458226050584 0.6171118098964662 -0.05710780075658552
P 7.20181642108047 8.892286673403994 7.109821066906026 0.27666047034637514 0.7781970793779823 0.10628477670186856
Ni 5.197551806519635 3.0488239274289586 2.9418131825228997 0.43667179003742207 0.9075325672517274 1.801679200114852
