# total energy = -381176.5956184417 ev
CRYSTAL
PRIMVEC
9.17206608358534 0.00000000000000 0.00000000000000

0.00000000000000 9.17206608358534 0.00000000000000

0.00000000000000 0.00000000000000 13.42424583997961

PRIMCOORD
 96 1
Ni 5.7282671265678395 2.2309858407468313 2.581294561112745 -0.010563634448459225 -0.2615156442851367 0.5467813398020196
Ni 0.7531366911917341 3.451907074849098 10.69767419270067 1.224544701942272 -1.0138181152845445 0.3637874431728702
Ni 8.767541291935574 7.978505134048053 2.7457680503280875 0.15623642602964705 0.4719002742224131 -0.9212193207102005
Ni 3.3239750969561914 6.77906487874025 13.042487208099535 1.3882226718516286 0.9365245836087033 0.756836097203703
Ni 2.2650325500914303 8.660677549862857 3.606611396466667 0.8623086624169214 -0.8141925236359849 -1.3316224068590807
Ni 5.710124779831951 4.389805865458289 11.452291255360137 0.4222802972024405 -1.016826820203881 0.4170434742835334
Ni 5.381920738754961 8.025420252123922 0.26275951507602496 -0.9396741849812784 -0.7588484996480415 0.7195975245672188
Ni 6.92900981526113 0.31079821124852963 1.402564831047428 0.6427361953327898 -0.04745202283437634 -0.16444158754825874
Ni 1.2601409887244392 0.29493053690419874 5.335574288776982 -0.9076886332136175 -0.587985067733839 1.7899608832366591
Ni 6.830887052176938 6.636952886664492 12.465204705733806 0.10312771913012561 -1.010044250064409 -0.3636257207840254
Ni 3.5048574124154688 9.012352908076924 12.127020539538858 0.0802623844961779 1.0092058133235133 -0.9173564953206846
Ni 5.605269720234038 3.148550160823433 9.395334362286407 -1.7767145597497143 -0.29722929563666234 -0.9373884742708953
Ni 7.66937899044864 3.879875678841283 9.873358599785385 0.37763437635829156 -0.4467080912275016 -0.6242000842018154
Ni 1.7286959851869506 9.045243937093554 10.208682915771915 -2.0480261070793504 -0.9423507033721771 0.9934583206812697
Ni 4.9094492700698895 6.261081618091844 8.831771436385562 0.7075894443627492 -0.9068777072765478 1.0748386208319747
Ni 5.486353883312505 5.074399706722171 4.727979025173923 -0.5985119354070918 0.30289240745971063 -0.2552094995614508
Ni 8.783821709254179 7.318593322645786 10.74243020641778 0.02991375684029687 0.9631280451288445 -0.6018235162788281
Ni 3.9026315748229505 0.7673176225811965 4.765285486808682 0.47217203982656103 0.37113205646339953 -0.6482141877282256
Ni 4.69675822939319 1.1968904209333953 0.42601862274039054 -1.7082252566290645 -1.621574966328672 0.7031746031245051
Ni 7.448955898053865 1.1939920480473787 10.605248199868079 -1.1086193168268457 0.9113069466924951 2.340921551227349
Ni 1.4555793730764641 8.056761201970499 12.441081254697377 -2.0455789310904384 -0.5393217982001809 -0.01249324737100429
Ni 3.9159218985945894 3.3389897691536885 5.311960804615433 1.2095865379705426 0.8093670772228835 -1.0960965017694866
Ni 5.400274043011034 1.783178057791185 6.762101142497569 -0.3149477959623479 0.7138351681621449 0.30727125325369664
Ni 3.1827711394238367 4.9207767716972 10.013117956907779 -0.2802620716547044 -1.1579114781937543 -0.13919515427664414
P 3.403762899916501 1.1225875134978895 2.603364386550507 0.828493256529373 -0.05045275733391311 -1.2285165421058262
Ni 8.619146434584747 7.798292379413709 7.559126169953824 -0.40675726186617683 1.2558620239983147 0.38785168321092556
P 2.7234707576511687 7.695418486092313 6.093547410420603 -1.1066840474773456 -0.18991144968458903 -0.505057220590356
Ni 0.5143208546566778 5.802771819457435 6.974084099671734 -1.5733382428094709 1.0695241505975968 -0.26732556609869446
P 5.948011486071585 4.4252834171137065 6.5966077195324635 0.02958722673881356 -0.7916503766694107 1.97765604199622
P 0.5011818699756061 9.136992114241728 0.7964802067302139 -0.1738240572044232 0.2312666155926082 -0.06747911668858056
P 5.1690095684919815 0.9682399852514153 8.977894372964661 -1.074573025875414 -0.25008914761574996 0.6267729871353142
Ni 4.825185498855226 6.496033263181081 11.276272886551032 -0.7594218556530082 1.0487532365988326 -0.4655828166448175
Ni 0.8197323114876205 1.2998743790479315 2.5549560561143747 -0.5220149314906172 -1.9666362938469484 -0.39480240349714585
Ni 0.6954242169088445 6.7625459877031755 4.724784394553039 0.2171088360349874 0.6314721923831964 -0.5505721743030195
Ni 8.418755134541428 2.1534451939797945 1.105610019156065 -0.4441485580304415 0.8375664224752349 -0.8002193492853446
Ni 1.6298027685507794 8.959457602907124 7.796506578145015 0.21050341490332777 -0.39518986874355166 -0.34782243520318157
Ni 5.892171947685292 8.798506187072256 5.060766347678579 0.7729533144805397 -0.1477633555616294 0.12321523390862006
Ni 7.920528504261627 4.7255768610636455 5.315209550426277 0.7097329730683132 0.0848443474399055 -0.0814746596367242
Ni 4.142050016100447 6.788457074421519 1.8908186738621469 0.26225817887811603 -0.5797714215747951 0.3071247003735033
Ni 1.1981928543188838 3.786540734258675 6.5778801949797145 -0.6446069299929416 -2.581552895864309 -0.07733544065737004
Ni 5.791581898821549 3.026038873992665 0.3011537837496488 1.350405601003855 -0.9451344367649013 -0.5517674801627014
Ni 3.4272800773840526 4.308614736385447 7.414587249189332 0.7602515506431552 -0.5507248978307999 1.3239242668838747
Ni 7.892241852424681 8.605104001393318 12.805803876931565 1.4227258478348208 -1.2814650692783995 0.280952927074142
Ni 2.8659863206351073 1.6056618905887685 9.299123057776413 1.253047951588287 1.2613122484796084 -0.7832019887917415
Ni 2.924595822982087 1.8205358829960752 6.511390053443921 -2.5977017377100293 0.47385276996309356 1.6183461749787291
Ni 0.19913014095525797 1.078185541532048 12.124698172403606 0.813868821747979 0.18328545972763918 -0.22991652932261694
Ni 7.815957778712658 3.4643260523417125 7.4915748203708405 -0.2242387622115493 0.5956387276243549 -1.2735342444670972
Ni 7.185396578814356 4.686173665119573 0.5302564022901116 1.4829629382490073 1.3559684398036131 0.7338951721368135
Ni 4.490074892008709 6.512974069258526 6.700618031843029 0.2873529170632148 -0.02031094364321018 -1.1405400767948422
Ni 6.552615738921068 8.031969107315744 9.641910683944433 0.6705084803500516 -0.422709157209743 0.11034197749037772
Ni 8.978342886996705 5.5238217733105355 2.630642111117005 -0.7388617721134695 0.17092153884564756 0.6799660262185258
Ni 2.39425778930373 6.447760679323154 8.102713253106392 0.5082181348168409 0.8866037875188602 0.5475274739394248
Ni 8.61310204302815 5.165606731970742 11.61712795839284 -0.278371796610527 0.8431002078092706 0.35018296501555823
Ni 4.714249359436334 4.883171300707746 0.14508282428392597 -0.3511466144804081 2.313744733702241 0.19359121252902145
Ni 1.8167111314344646 6.848708376599502 2.228411241793968 -0.5721265034350276 -0.31227127757144935 -0.0020735946995770736
Ni 1.7655493467566161 2.198746028422945 0.29101223026841944 0.573756839949599 -0.35077149052917656 -0.19464819303862607
P 8.63281281306628 0.0630918910476006 9.448185641538952 2.293786031192127 -1.9943448155058108 -1.8847011496340378
Ni 1.1062887520470943 3.6215352652098236 2.112747819509719 -1.3118912469787407 0.46521334912054074 -0.18429847437318583
P 2.6801694336167263 6.870840572086711 10.643560837153457 -0.5705910406271076 0.8849132871903147 0.4029072919924674
Ni 5.756645499065735 8.882503968370166 11.63645808768803 0.08505003569280836 0.00920686331024866 -0.543333233352419
P 2.10745645457952 1.8311112752035974 11.390593518358974 1.049961655084637 -0.5495702154010664 0.7762276143564374
P 0.707426782600747 4.4292182334684576 4.379149759069131 0.5680140239285508 -0.13323456581783505 -0.8552401856059142
P 6.841132250005041 5.866857045263123 10.304209066944615 -0.09529948133495846 0.7778579508710087 -0.5867702214901314
Ni 5.6714370050432885 4.9458165121365205 2.5093268617050235 -0.3735679195984018 -1.834684451396279 -1.657521816736926
Ni 7.691868896513553 3.5501582468586195 3.1447235748486033 0.20167450375778814 -0.2673836730301395 -0.5455659793376798
Ni 6.585974543308542 2.6791146460158024 5.045180255763365 -0.37180542838134034 0.47484521578334987 -0.5391353932209876
Ni 2.4061539590289307 5.373803460260896 5.515432084453448 1.3525293322150773 0.7391330234969852 -0.06742229530871614
Ni 3.986941206368089 9.128324511781964 7.132758091495216 -0.0006224640753473151 -1.204110602457636 0.0157264095963213
Ni 2.6565972237526045 8.716847282628569 0.9671375029067977 0.8287153998425083 1.0356010154875908 1.0361340051729253
Ni 2.4574441526321094 4.990521162283497 0.9030036651508062 0.5165019720921878 -0.07558451940453434 0.8841188163134773
Ni 4.106746733700835 6.975117791520639 4.357859559249443 -0.5188874416052289 0.9189040423134627 -0.4519623976479055
Ni 5.141823564586435 8.885347308859613 2.6413679252084847 -1.126637350670821 0.08630473403551588 1.0145156555722012
Ni 3.801417825464747 3.3223608133234737 1.8234149945432923 -0.29945458542275527 -1.2734519691659358 -0.5793729005847956
Ni 7.602010164980945 1.0144855425023496 3.56150592703134 0.4521498310683632 -0.4697045521226749 0.6337131658985731
Ni 7.1349410432258225 1.5226822086274032 8.48204239059685 0.9260362824828697 -0.11484757867021511 -1.451406760709281
Ni 7.830403782812266 0.9888954780973305 6.093695080684732 0.49739430472845947 -0.945637858763881 0.36394633734823767
Ni 3.7837157379014186 8.320421413937051 9.388300304798161 1.124075760591232 0.3188682140626766 0.21977224179976343
Ni 3.024342041765092 4.964279881185734 3.2726032719647677 0.04883579055578041 0.21736697479238049 0.2943064655629125
Ni 2.2732415492464457 2.5537233304312084 3.681787484594416 1.8858990265968814 0.49044178467002625 2.042718578823508
Ni 3.405899991316633 3.4526775284010767 12.174797831827657 -0.5042673776992089 -0.10597367321935297 0.1938058996429888
Ni 1.721789419417424 5.505514329384938 12.374093987179233 -1.442964543479199 -0.38497976097976927 -3.5920954257213746
Ni 7.960610433096729 3.0392099609050693 12.086533205382358 -0.47323236277027536 0.2310989796664923 1.371171887016929
Ni 9.00344683189869 6.482055034452318 0.39857121495113607 0.34285300701304827 1.6873818375211522 -0.22582564708269495
Ni 5.032758526650921 1.959602749128298 11.412582629615102 0.20853266433020218 -0.2726919726169304 -0.21210392662122823
Ni 0.2557988341165378 2.230233731327042 4.7699705781700015 -1.3690679533000485 1.540400868651502 0.26953054416981326
Ni 0.3773149517759991 5.250906946654139 9.225638298636579 0.5894781073395977 0.47625752274984434 -0.05999592093765795
Ni 0.3700974529658523 1.8786592658400203 8.19167587378152 -0.9546817141337043 -1.9519375541841932 -0.756324447674607
Ni 6.256394692317304 8.717204993206275 7.462846992154725 0.2297792324138043 -0.897866504916873 -0.6401941456372264
P 7.087365536391114 7.07035135378491 1.298720533133182 -0.35559616561132956 -0.29888148652810465 0.5733385214652578
Ni 7.320482768261353 5.814833086372345 8.074482550872627 -0.09236765240014415 -0.5147682772305328 1.083185193024457
P 6.961543133700055 1.2778339042216729 12.781036546855265 -1.5895444202556883 1.1848913492167077 0.4481635927271056
Ni 6.894541190876162 6.742743497004094 6.041098784869629 -0.09377481716031591 0.6178707995496778 -0.9121566962873001
P 8.202542020484254 8.08902853049267 4.860973066344654 -1.171459649191834 1.5325613180024251 0.6968183218891741
P 0.24447683572888343 4.4367393276663485 0.1285272449824709 -0.13319471371883512 -2.2310120332886996 0.8000774243908414
P 1.6112385067745219 3.3712295814775746 8.672304060844866 1.958293321198892 2.4404096167223583 0.22214305602478518
Ni 6.5026463228355675 6.778899781550541 3.43098192325999 1.0656266153154035 1.9171896091800464 0.10284232667922288
