# total energy = -340896.63384587027 ev
CRYSTAL
PRIMVEC
9.03291404809685 0.00000000000000 0.00000000000000

0.00000000000000 9.03291404809685 0.00000000000000

0.00000000000000 0.00000000000000 13.22058277033974

PRIMCOORD
 96 1
Ni 6.489959151053339 2.0172303958963753 11.474566893854648 -0.9081573453199198 -0.4729891364112177 0.24049456194877933
Ni 4.626017308884178 0.37671316964741347 6.041304239667268 0.04065222630372354 -0.36954928535731196 0.1551542487090618
Ni 2.8763779628177972 1.6824976949258756 4.864487146671675 -0.7272321582943411 -0.9459381636131193 -0.6572688417313262
Ni 3.3437138440308134 4.436732592127916 4.937861508600147 0.32846948459786657 -0.7722496035452958 -0.42042087539619855
Ni 5.2081705623085455 4.703980391218862 2.6238628467633323 -0.006947377852110616 -0.2697645145574903 0.005136807005933089
Ni 7.315296520178594 6.089259077786444 2.6596115079436986 -0.4606177593300583 0.08178087802323335 -0.8983552716278335
Ni 4.908657193747144 4.541017586399024 11.548324251344583 0.5896745396211199 0.2697046078538323 -0.245062640935436
Ni 5.53422263274682 7.951827916999415 12.394230469361542 -0.15811153156517288 -0.28405239193507203 0.41704938782080436
Ni 1.6898595199870234 6.528087081830156 0.4305863731409007 0.6453227251130434 0.3623008313250147 -0.7611594071694052
Ni 2.7650834271387748 1.5686016799614417 0.518348360783969 0.14962637691229716 -0.34110825640779957 -0.31864092854321896
Ni 0.6035702929580866 8.812556243903293 4.7344890588802455 0.11800257935942904 0.5232056093646087 -0.2883417633390453
Ni 8.58666112595337 2.21060702277865 1.1805350404743264 0.52124102943907 0.7373641045220204 0.8498760930805235
Ni 6.810446946353373 0.9072478349589832 4.96459351484059 0.06380526738141915 -1.0553527441932211 -0.725354481655654
Ni 0.5175317853416036 7.32944206379302 2.5950153320206546 1.2396399057124972 0.7137017279080742 -0.7507793494866618
Ni 7.534317590433382 3.900150390769183 3.822678698966188 0.5363791706320892 -0.6689560482612672 -0.30445280996829505
Ni 7.541715547151272 3.9340689835355755 12.534012106507243 1.0132429595073646 -0.48768196253670204 -0.2992211292557105
Ni 8.153858075671359 8.829411661773355 6.836403025265285 -1.0474113778589573 0.2496420327760023 0.41206427590138706
Ni 6.867218812008973 0.6889629472103093 0.4097564730292357 -0.13944943637929533 -0.3644345898385659 -0.29277897317479257
Ni 1.9449761153269005 6.345170569574641 9.097756959937835 -0.4157260410236905 0.745065072710704 -0.008814770078152562
Ni 0.2102320447523385 4.881639747418442 1.2603489669256107 -0.7056243502165783 -1.1342208194450338 0.6006562354436042
Ni 6.421688385639651 1.9168566534675713 7.178591493604461 0.06903669098368756 0.02906992078276284 -0.31483286765103846
Ni 3.3645889087134058 4.407529180566332 0.44641023221098525 -0.08445379686970617 0.08399665472762953 -0.2825521532404618
Ni 6.05581922947188 5.464732423918095 4.950566302401993 -0.5527308725172352 0.4144960252713313 -0.4078798055063943
Ni 5.105881842072424 2.897542080754324 9.474821509947065 0.19487367878587084 -0.6873132106122163 -0.21534480215602914
P 0.08201705422111727 5.484776460495626 12.257502860501946 1.1819800891071839 0.17024996669991968 0.3988719455808292
P 4.0145793476705585 6.266421623705822 12.464008828152783 -0.7071461861777435 -0.09974954668651208 0.5284311194296061
P 2.378312107545854 8.412660099998902 1.4758399743167225 -0.4453824304375426 0.32419039760653845 -0.6560532241566701
P 6.439483226585003 7.681608289141453 5.919502618207722 -0.3987300206863262 0.8162249806849813 -1.1105764405532164
P 4.776198540131595 1.1684526144598586 12.807293892274075 -0.16325373788774467 -0.38899530989706554 -1.0805251296937906
P 4.102451536866689 6.149933162370162 8.1434955165178 -0.912686600648841 0.3437094414760726 -0.6970584629244383
P 4.792954595945619 0.9498018936866737 3.793394894468353 0.13537732319245074 0.4118236206454907 0.10503830588927716
P 0.20230024280608827 5.467559726058143 3.522333399008306 0.019654026785501637 -1.1906925292795172 -0.3234090393558237
Ni 1.5132841134897 1.0302851590791002 2.647184024607346 -0.149580097055394 0.10825192773056841 -0.19011868059938872
Ni 1.7435601948195685 6.367418637213423 4.653354520375047 1.4320890342172756 1.3880164693780934 0.6027524558510007
Ni 5.855342732039835 5.5571210702069544 9.192985554446603 0.3138314229697176 0.7315814364019723 0.29304996744799205
Ni 8.58349960598846 2.423630238014295 10.182215215261381 0.7786097414353688 0.6927744908371036 0.155122624140178
Ni 2.3873179229887556 5.3159783931119815 6.940884937065635 -0.26678383466261146 0.007294990999516468 -0.07312603056171278
Ni 0.385252886718345 9.223508674770681 9.182170446292353 0.925465240470748 0.46292095354193824 0.2147015121450754
Ni 1.56866491036074 1.095511832412289 11.346274220261432 -0.8317264187546901 0.6410035289123992 -0.3702162295173495
Ni 4.006982666840589 6.817230664906651 1.4161098292653846 0.8498017881991623 0.6709152288701672 0.08137875748880823
Ni 5.679273168736898 8.003116803744442 7.92477433901397 0.13684259488406758 -0.024163741730397092 1.0645488088701924
Ni 5.117651729256075 2.7790934770404196 4.963800424975107 0.6032887879704449 0.4876475097543408 0.15881652805199745
Ni 0.9792311281028943 7.441820549174298 6.868462644292311 0.13240461371737197 -0.29613529124153515 0.28354871282577615
Ni 4.964426405928159 4.383266773064193 7.028524980367199 0.46275228917455785 0.5504947840978649 0.14644797918431554
Ni 8.34155299953098 7.253276531381243 9.188305601607118 -1.2906752750227577 -0.575704450594273 -0.15011925738831566
Ni 4.5593182705387605 0.4558053662552796 10.660800687800965 -0.1825519239957243 -0.07764037349229855 -0.7593642629421954
Ni 8.13464506719889 6.895952512032914 4.81915366024912 -0.004023519337096297 1.0577541545458622 0.24982123866634393
Ni 7.206187949732453 6.048683227265368 7.133192066908352 -0.038500470068043365 -0.3976391016149926 -0.17265446237635426
Ni 2.4147057187990626 5.338244526579134 2.497526702382686 -0.8683111598572594 -0.9994556759152851 0.6157241855203203
Ni 2.305506819211067 5.125826516593914 11.3931279461414 -0.19572162860846293 0.3745593369773937 -0.04574866699002444
Ni 1.0997302033368976 3.189675558426206 3.7963829824809023 -0.11937143468249764 0.9809375625064397 -0.32911868814609124
Ni 3.8467116704480158 2.8391081588885996 2.794329293397031 -0.5296552216446943 -0.7568147570474644 -0.311470893157341
Ni 1.1041924629445137 3.368075613588992 8.093217412870127 -0.8813312262660112 0.11267499649892854 0.21740528422948363
Ni 3.5132706762060364 2.5495309959312022 6.997813072136644 -0.10612099743049466 0.09355575917097436 0.08084113981778335
Ni 4.280427045062759 6.914063504974757 5.878691008626406 -0.5694008769737483 0.04112993727109045 0.16910531157251524
Ni 0.8618989925823123 7.379836692033688 11.291092147502473 -0.34495719784024464 -0.8167093765205676 0.2096842614361421
P 0.15832440338560685 5.666256739395653 7.8895152617824555 0.6880410899171764 -0.4346537311661289 0.12443830768244377
P 8.525517329832008 1.738375302077116 7.937267762623876 -0.6073976679324958 -0.21396977618537347 0.4956942913182172
P 1.718277068014473 3.301457871471243 10.332718921545219 0.27377209305498656 -0.7577202995808693 0.022991575799166854
P 4.05311375958572 6.075258060798984 3.75348205984849 -0.2251561318194961 1.1966952838301712 0.3374894287082898
P 6.6788102879287 3.931187483910415 10.404783510916797 1.6937753997523217 0.737221408296569 0.48527952374279654
P 6.279040604822907 7.960535646274196 10.239155996412249 -0.14212672610114233 -1.4506428859600629 -0.25276206646222277
P 2.5506872089469406 8.526519983306594 5.703082123946926 -0.14807600170604174 0.04427208244449795 0.32097111933829237
P 6.943230784879598 3.9433457864040404 1.4885185726674308 2.3011933793997916 -0.7633289040168982 1.8245800159724255
Ni 5.365812980673151 3.064307742446241 0.4870691855425667 -1.1094400129559279 -1.0218476704572401 -0.4245562377208108
Ni 1.3665353896327568 1.0250912334224622 6.930229711492469 0.4633827236697052 0.362657186223169 -0.04272736366519738
Ni 6.855756043907627 0.8167000965811199 9.359155043802279 -0.36522520406066133 -0.07548116105745065 -0.7732366500489135
Ni 2.753358704526051 1.6306487675013492 9.117931973771054 -0.6093959293094473 -0.5554986650703595 0.7852408735986413
Ni 6.4406033079439995 1.8899566350232786 2.640626128908704 0.39296046519240063 0.9805164158086209 -0.1576667307182704
Ni 3.9486119753741624 6.840653011389542 10.314791296761339 0.839899955704418 0.9738109787639875 0.26568057429610376
Ni 8.148618985443793 7.024246992208966 0.31926112555364794 -0.06400427076610267 0.5215696164230824 0.11308663011505041
Ni 7.559645881809406 3.91934533341328 8.379073015183115 0.20174572331535578 -0.5320031530515805 -1.0060001619020222
Ni 2.889818939125758 8.401206364811742 12.344045404729977 1.1466773000408317 -0.6419502090963848 0.4765020346604826
Ni 0.0790127069630341 4.9992302242847275 9.986101615380912 -0.03242006820191836 -0.7541066140876819 1.0553596861717567
Ni 8.639106225714137 2.4022131984805752 5.653835579099231 -0.059996949378922484 0.12660626186804003 1.4018382057525343
Ni 3.57898512690524 2.652235230219854 11.505370937809897 -0.5301241908613128 -0.31265591460437764 0.3301982943635152
Ni 1.2074928695694058 3.2774393526521117 12.68906298179204 -0.5421908922178599 0.06661779712954978 -0.13411825397436902
Ni 3.229727499924525 8.334724116406774 7.97139049925086 -0.3924704129298595 -0.09491638696392685 0.2573751397542019
Ni 5.614398779056941 7.792686034880024 3.675453940531671 0.5961727457509539 -0.00560320511939035 0.17628665981230285
Ni 3.223296065024479 8.273435793658445 3.5266565517374664 -0.41813105092075725 -0.26777268093844203 0.5139694354783213
Ni 3.3288185685389937 4.185283359947335 8.948682260678137 -0.6109267641316769 0.6018595117230859 0.7288432115352028
Ni 7.201843118009248 6.12511974710271 11.340589807364523 -0.4988287231821409 0.1459666686725228 -0.43479591317094796
Ni 0.605019172393434 -0.0793839597360564 0.17499013005777597 -0.09243655796486662 0.23001731656653934 0.44701096717990113
Ni 4.716048364570634 0.3547360894341953 1.6549265309576036 -0.5189951708276868 -0.8038335489991639 -0.00404100283859304
Ni 6.05514176090797 5.499274287763285 0.4262252821721618 -0.8752433682007184 2.238472860442119 -0.6985239917263711
Ni 7.973371417331731 -0.28013505775933867 11.349553168110754 -0.12376185044070943 -0.2304024678201 0.28758611611994345
Ni 0.18678259952689075 4.8878182607212945 5.706387267247385 -1.0190549382034515 -0.4715146087482202 0.7766289635599141
Ni 7.792342784140977 8.848995019727427 2.606451001379444 -0.07279718646738431 -0.1469845684140759 -0.0009389668745016087
P 8.647434572593129 1.5196432850762618 3.690604847494939 -1.033136355997182 -0.26329201945926917 -0.8728057052935034
P 1.9481015036350688 3.182404062506913 1.761458010986634 -0.5139797198909665 0.2671216776180045 -1.0461451095520242
P 4.694839082063179 1.1406312387686495 8.30974449551831 0.2892709600215341 -1.1129259146219994 -0.5836087930430143
P 8.499547701548819 1.568430054591918 12.274187556293905 0.7826967670205488 0.6391626190489187 0.9387766128676736
P 6.280639430633732 7.69298976101513 1.3254166609691356 0.17296376608665695 -0.3158579664814431 0.5911331264445173
P 1.667484991549645 3.3160279620523863 5.988091342200738 1.3203044107431003 -0.7201086598756824 -0.4672792305106339
P 6.81522535795748 3.7288773048987225 6.040841754460973 0.4892125402486155 0.8689765613554001 -0.2778961425256891
P 2.2833490807141392 8.412885922853539 10.076952859675407 0.683555543341997 0.7447981922025625 -0.37476014013429004
