# total energy = -340872.5915688866 ev
CRYSTAL
PRIMVEC
9.23069251940573 0.00000000000000 0.00000000000000
0.00000000000000 9.23069251940573 0.00000000000000
0.00000000000000 0.00000000000000 13.51005155484932
PRIMCOORD
 96 1
Ni 7.252998232994713 6.48653690534452 12.769011812902232 0.37365096623051136 2.2193525946729005 -0.056342126235154576
Ni 8.772831766217298 5.559424604039875 0.9087727612876 -0.45492405137939074 -0.280097263942066 0.5602351513140803
Ni 0.2191763338165625 7.819365837598042 3.014497736988516 0.8735572387475472 -1.1133732865720634 0.25082782555398736
Ni 5.4834098506472975 8.722109110492681 10.931185535660507 0.5598088624099392 0.8209072166519992 -0.048519287756626124
Ni 4.6499244641770066 3.431722272376313 0.8161519919444149 0.08383570366973304 0.4163827007710829 0.8889478622710045
Ni 8.86019104079014 8.978602365200583 12.627952984247868 -0.3866255241133083 -1.0007705380719667 0.5271494245037049
Ni 6.758934643366984 6.527428873471918 2.0680914420540986 0.6865570491724821 0.5614273718499686 0.14470914211633787
Ni 0.235178662472467 0.7803932119605037 1.8190879713052424 -0.32054688731668024 -0.8002226917194541 -0.10729804845773133
Ni 1.0367360063793585 2.411250746322118 3.649727231304531 0.6193232157254882 -0.636834228026058 -0.6318686564906665
Ni 1.020305373587763 2.0479306863911075 10.260478797484257 -2.174468589676016 -1.3743600549369233 -0.2824253978546104
Ni 0.6985797374894536 1.8565784292170766 12.852828347663042 -0.4874425928323863 0.6368252291649935 -0.2588144433038898
Ni 3.9120598221382545 6.280563231124486 7.342605181210675 -0.5371569293383782 0.40769082942403984 1.1869428324290978
Ni 5.010743006418959 5.852139096429922 0.5413007358343084 -0.5712772680608549 1.212734596681221 0.525655870677314
Ni 4.0482402297643265 5.76989362554615 5.13286045390009 0.2606748935513962 -0.423606986433664 -1.2062757284297547
Ni 8.270608244349248 1.0455605484854065 6.516465579895189 0.7300719417359813 0.6040318367840565 -0.8644174812298081
Ni 6.179154842445571 0.013962345595824365 6.644013443820868 -2.1088116137978394 -1.7868213091664131 -0.9827620173096882
Ni 1.9249870919241072 4.932392887803756 1.0205186025863506 1.4141306499666422 0.607000175383761 1.0752556537647353
Ni 0.6852026178031726 3.985859209311741 8.421746989300477 -0.5495373052806019 -0.6306083017210043 -0.9307015491690229
Ni 1.977029736687599 2.2012709515225595 8.0623933579709 0.35331148334221085 -2.9863350362819863 0.5330349367502045
Ni 0.354840745727438 3.1259925034491025 1.4272155330871736 -1.194051161339105 0.852282645639487 -0.5576118547586203
Ni 2.731500394676958 3.370125860792989 12.73858745016004 -0.7716117128509808 0.750362059443585 0.7300642284264974
Ni 0.678348828562858 4.896448570898996 4.308557760407935 -0.02949569546627178 0.1758446871788778 -1.1225513535269054
Ni 5.648306942888343 4.512617912056229 6.699932056398513 -0.5066518187709854 0.3204409578664353 -0.10830257846284574
Ni 1.694081317046713 0.7068125922011524 5.707280914709817 0.6491318144464885 0.28458461028945825 -0.3146798870129419
P 4.521202456155209 4.535011572254213 12.423775602803811 0.9960474215646846 -0.474121450243448 -0.2255448826174825
P 7.212761644040463 5.651851528838889 10.47888252233191 0.5984659126605049 0.04527944066308976 0.8748029382291902
P 4.856433518566655 3.2861357890116816 8.638908262926925 -0.4691116557336824 0.23473246265402153 -0.18330268611881978
P 5.273845437013818 8.803726894281045 12.9723787395378 -0.11038182958937763 0.24554497988849325 0.4098081328773587
P 2.8947082701759466 2.5517603487679987 4.849176348060615 0.2732660999528455 -0.12690271006253628 0.7630815638927826
P 4.237321736563788 8.052579285620324 5.829235902001548 0.0009047712024565063 0.04262580509032659 -0.4035135581178986
P 8.330570823345992 7.8947990573581075 1.224011989710261 -0.32887160513229163 0.34619544112271994 -1.6648021524484231
P 0.7816688936749974 4.407415708727121 12.841641671325888 -1.4677129540684724 0.1415608262953433 -0.48765419462256016
Ni 3.047245465052978 5.508905023552008 11.195266419668796 -1.286047032222127 0.31833393882576144 -0.4937271402895175
Ni 5.304195954215372 1.683438328502494 10.101776423033344 -0.31876588415685747 0.27331983600891635 -0.7503404621770303
Ni 5.258993252653325 6.5536348097052555 11.504443852274468 1.1221978268422286 -1.2001012241879268 0.1966243429283904
Ni 3.259514471612265 8.831105128471984 7.615129379721478 -0.11821855202497704 -0.560208411841203 -0.7676082481185426
Ni 7.333619101984485 0.10915663203018738 8.686085409631737 0.3468880963143703 0.9660696442556717 1.0708187010393042
Ni 7.162768213029631 5.768527483044376 4.617398272734453 0.3176117159477562 0.0640459226373155 0.29655515238777314
Ni 6.767279189458895 4.45888605055068 13.355132176556534 -1.9563004591385793 -1.042058083966844 2.628842939199524
Ni 0.645878021275782 2.8952436503455607 5.871995239237789 0.26833266720697013 0.8235917054626977 1.508575496610789
Ni 2.6509626019204013 9.179314544650275 3.3484125026381184 -0.6115073192254953 -0.13437562140081372 -0.17893978116443376
Ni 1.2539618948538624 7.103793318138899 7.67239844262351 3.2004431378174365 0.23347622164941725 -0.09292352490361415
Ni 4.496824197052622 1.7794836847926916 12.53736850568773 0.9504784746856338 -1.1340315862523633 -0.09996294824889881
Ni 4.758597407916025 0.5245562594950083 4.507588107669633 -0.5733382643549416 0.7106788819213502 -0.016597242237048834
Ni 3.1171956534207936 3.0279994710246205 10.209329683762464 1.4816174799647064 0.8943176112233502 -0.9821531800810955
Ni 6.989932725170172 4.573014333604212 8.687301091844464 -0.11460795185558327 -0.26463490664040873 -1.2136707353422451
Ni 1.1027262276305474 6.9297486095515195 13.381517188225915 1.1496942324902844 1.4819234412408995 1.5356150172270844
Ni 3.485398749726385 7.353797395963378 12.848140078901892 1.1395926252799082 -0.7501627989485856 1.1845982434563211
Ni 0.580747177503749 8.27630358167083 9.5520526802202 -0.12394671275800591 0.9559662372730826 0.6475189614334138
Ni 2.453573471799346 6.5266627259878165 3.493307607128542 0.008538376488314327 1.2320944892650718 -0.7490554248170196
Ni 6.217083758254934 2.2399937068937636 7.29668433176594 0.8839262406866971 0.32396722585213883 0.7796716070409798
Ni 2.314633087091989 -0.020061987252389706 13.332880669024277 -0.8078524403505699 1.4835234387381677 -0.12450489925432105
Ni 7.780172316905281 8.162230682772774 5.020524771345507 0.7463915048316113 0.3236910893726167 0.010286212417356479
Ni 2.6871376861396503 0.30668699174770975 9.750028882389312 -0.15652824623845302 1.4998648562106685 1.1683642980959619
Ni 5.965833536932216 4.347739281200343 3.02560318323097 0.4874557054585088 -0.28374720198982745 -0.655131226563033
Ni 7.9649430902700935 3.434602248461132 4.587567443525128 -1.1879640746047606 -0.9626904433707937 0.5228009177270222
P 7.125725443707904 2.3712080019120387 0.3119401788947305 0.5462190395406463 1.2211390186948325 0.8045922815420595
P 5.136206579960177 9.090321437490852 8.823117810182902 -0.7369226461092276 0.251506853898883 -0.9950431486698864
P 8.20521801811573 4.696677922092418 2.8655762043948934 -0.11484063669167964 0.005734331380615931 -0.9458733718134549
P 2.0870226694654934 7.584850861922044 11.320342304121672 -1.2937135476284494 0.7521525756851045 -0.8122125170914786
P 6.525195045867668 6.497244508736797 6.578435834527985 0.7111306247467882 0.24942117501444783 -0.6688017820715901
P 8.435809949445419 0.6336418151923331 10.599823979578407 0.5212533707342443 0.4241536029657534 -0.2371780959810367
P 0.06682282972186417 0.3870420167911913 4.133589059493344 0.704054434626297 0.0738557096388857 0.19629935548880384
P 2.5330128121389364 1.5296826822049625 11.693301053244246 -0.13700534571417694 -1.4244790830805014 -0.22914751236707634
Ni 4.005899042901939 1.6951428466933611 6.768779177003071 -0.2365610312223281 0.5074450040962422 -0.6241504619108025
Ni 7.956137009549205 3.6983600582291376 11.830941756436403 4.723536882649059 -1.132068034768089 -1.0850772678408473
Ni 0.9646166052553496 7.615062918734905 5.489850104860047 -0.9841002765051374 1.1448898691231055 -1.7855082467819445
Ni 6.756728507840472 0.3779220925225979 0.9634553841288425 0.3638908015199539 -0.4721890091074255 -2.5496550187144473
Ni 3.1356939613502073 4.291847437631179 3.0981388885903165 0.5867200849784864 -1.0183910793672075 0.867080629884268
Ni 4.964571082136061 3.2555083510327414 4.7609826188785815 -0.13116637043489668 -1.19053826308984 0.40149909879103113
Ni 6.901318076406512 1.3517056985786968 12.00262710000045 -0.06778662062667036 -0.33901666398609354 -0.30400312402538615
Ni 7.671305528622092 2.4732256163012036 9.54598626905692 0.8757992407041884 -0.5201028020695687 0.358012488362306
Ni 6.688319845133441 9.136465669696014 3.0624724155322007 0.8592616480604814 0.18655230340436904 1.1042836655659691
Ni 1.0168438638704325 4.264201513355433 10.673643674275567 -0.6121380108309588 1.4090694333936506 0.6534630948319908
Ni 4.713210092502388 8.377545817883313 1.4602337204442168 -0.8901498529989056 -1.6372386410078577 0.7503481754865141
Ni 6.921256372378335 2.1942279330843646 2.5067090305642563 0.4126630858276506 0.8274784421116136 0.010491900670259352
Ni 8.95718715841603 5.978931889702595 8.82272550574827 -1.1525913515324215 0.002379298865453967 2.704689968236826
Ni 3.7508919296993457 7.5268821125224825 9.839019220340962 -0.300743736547824 -1.425505467462487 -1.1038553197792988
Ni 7.624053613307384 7.67643779369632 10.483165563688821 -0.5122108009160018 1.7445523731948727 0.1537144309387417
Ni 5.678768228400852 7.521777539525992 4.161811902055312 -2.0922999892960608 -1.4577738405778893 0.5161476740765627
Ni 2.689731510754503 3.837291212243916 6.768306565542999 1.2524614829571978 2.027914166820824 -1.0312306543340368
Ni 0.04545100719243659 6.584742243698333 11.508821046695688 0.9569478844600616 -1.6667762454556585 -1.4503302398156508
Ni 8.33651538936722 7.694289953145166 7.342281183901133 -0.8926983304523721 0.4447869629453888 -0.46423658702956827
Ni 9.009192880409204 5.409859692173457 6.503009076252725 -0.7963629516537317 -0.43893641770188274 -0.14392752675530696
Ni 6.049805147328365 3.8890661669226003 10.8669454537224 -2.5906936818233124 -0.7124444584622053 0.3302057505626829
Ni 6.2636526023187535 7.126113132796245 8.584976095392399 -0.9008831802560097 -0.18508728882306832 0.23266298171950253
Ni 4.777991093025656 5.310509747939783 9.54374321076009 -0.9769721501007883 -0.44856031394489193 -1.4624931004304296
Ni 4.407849551278359 1.3695855501052814 1.9226969570951213 -0.4759582463418706 0.519199316418693 0.7882858310725521
P 1.8860335692384145 5.798444157694692 5.843165017104086 1.5532093332700798 -0.8823028461506611 0.19907074758635393
P 2.464133384110349 2.707066751418894 1.743687982038462 0.7447704242884206 -0.5356055256908582 -0.4443059095439123
P 0.766499173489768 0.3582117946574889 7.682004824391045 0.6558722184941156 -0.7164612929310822 0.5166528958477554
P 4.645512193123983 5.92837538644441 2.702726479767991 -1.2127279118130017 1.0481310296338013 0.6023277096087561
P 2.285261023303867 5.563735337474524 8.896761198651793 0.39786947245824383 -0.49427427104223903 0.6479313663804841
P 2.352478926668136 7.902432840121395 1.565612230001595 -0.03741880696809039 -0.722023360399892 0.6017733797671829
P 8.051342372814664 3.3613013186869414 7.08126673596777 0.9788194877221724 0.18931521086148687 0.22934008799385663
P 6.708442754956856 1.5401133648198517 4.774492660538007 -0.5506847886214838 -0.1545073591536823 0.20937135818141359
