# total energy = -340872.72767968447 ev
CRYSTAL
PRIMVEC
9.22037756642117 0.00000000000000 0.00000000000000

0.00000000000000 9.22037756642117 0.00000000000000

0.00000000000000 0.00000000000000 13.49495457850649

PRIMCOORD
 96 1
Ni 0.5098352321378379 8.577901435994844 0.0855724779077962 0.271537547297513 -0.6652616301288156 -0.8560757941333321
Ni 1.2426579136569493 2.726484016710968 5.611931026711476 0.50964406863009 -0.4199130825218445 2.1131428941833414
Ni 1.860220346346844 4.986905620612116 5.251426259668381 0.4172319361452556 0.6106807095591419 0.2011767381857632
Ni 6.7100373968429015 4.41892115681609 3.6795068275450302 0.9700165447185617 0.724858515855842 0.5441271900086241
Ni 4.201735168849736 0.7378145938046128 7.50268188646754 -3.493343981282074 -1.8514948380853986 1.5712690189852683
Ni 8.159545255481264 7.842032341806487 9.350896379495302 0.1448569805481118 0.8238405882487102 0.6048278503227906
Ni 8.345677012606155 0.8399763746013525 1.2989759783777515 1.8934259311015458 0.5126283480693945 0.8141416157933913
Ni 4.333614225775347 2.703903312634143 9.347091129771943 0.8283796137696443 -1.4210088651437138 0.4569670499513485
Ni 5.662989788204258 6.842801609992022 4.424564027740964 -1.2314059478384791 -0.5476226047563924 -1.0100735606404476
Ni 3.67901353735797 3.8287524651683538 12.44631535424056 -1.082469655014671 0.8318652583253996 0.7129702490586882
Ni 5.814563571102958 1.537470258349635 6.538062607067768 2.749557775283794 2.454428813819586 -1.0127323384195333
Ni 4.76474062888852 -0.003570130101488954 10.342478808316004 0.08492636563075051 2.0556419717533956 -0.11361653447659142
Ni 3.3418888811060574 8.056028079217276 3.0019935014670125 0.02876498794783433 -0.5953808459772778 -0.9152037106437398
Ni 6.96082243979331 2.754255793223583 12.932714231285514 0.49351759538187273 -0.31057254971278775 1.0962181149490153
Ni 8.117371249581959 6.452456935801591 4.6694028493524 0.10151718010989615 -1.1149478301480347 -0.4163055676762444
Ni 6.118642395010511 5.958991561572285 6.47281460690458 1.4955502879957145 0.15954363602600907 0.3461581601268813
Ni 6.814034032727958 2.0120061979240935 3.2600432797143295 -2.4761602919594066 -0.6675586536931084 0.7648391700138376
Ni 0.10704765874296643 8.454532787343185 5.3383476787792965 0.010683704966091279 1.519294682800506 -0.7253192575423444
Ni 3.258638094209508 5.207383283284646 1.1670812468106826 1.52393732377884 -1.4236504165316193 0.7278312253309207
Ni 1.702146197431744 0.6546947362661247 6.766154457337947 -0.2965096438618184 -0.336944097727781 -0.5011699697208079
Ni 6.152849994898228 7.520573106635229 10.785410060522505 2.5926068396856254 -0.44186207598911004 -1.1905634599008206
Ni 6.195632545701195 1.1655939999476397 0.9720564357527186 -2.0500585641283466 0.011361190649090112 1.6878225246029965
Ni 3.2205948173532497 8.146360115901901 8.957100518070916 -0.7472800780841518 0.8311286372696912 -0.7507032448330878
Ni 0.8762502610483248 0.3501364527375047 11.10167822325797 -0.8804737633617223 1.271932447197616 -1.4218827831082352
P 4.136371913969945 7.202064392209004 10.711174958577493 -1.2959673766596327 -0.9744547829955734 1.1912892823232515
P 7.224497570248577 0.6770209579286901 4.92488936270247 0.6819807426557093 -0.9784955287238503 0.5240026513446072
P 0.47854864778770273 6.464581731988208 6.311225650151961 1.000093309499284 -0.29081593591115074 -0.9767870306731758
P 3.701289968982963 3.1920300883904065 1.9503181854473333 -1.0947672414351017 -0.9270498113490485 0.07843510147945201
P 7.952483241821301 2.995995646015002 1.885109832906656 1.0594310280276529 1.4317707316459083 -1.434131261458285
P 1.7438868455966214 4.872803451175324 11.624958609615827 -1.1707140292750613 -0.6932408889505609 1.354500854119151
P 3.7526198095691954 4.5601496763525216 8.359868095352025 -0.1837516007307803 2.157348899276594 2.0851299539101826
P 9.125960664384573 4.08646201149226 4.594627433295956 -0.5802984977228587 0.9008261017658292 -0.8096576118801088
Ni 5.014280920899617 4.704070546068795 10.613430660558706 0.19198967236985645 1.1692963229919282 0.012238451047720858
Ni 5.150945353658577 9.004924771196956 5.027275198668286 0.19350302369058933 2.1452744846105634 -0.29415554180734504
Ni 6.127678364792171 8.777688571942836 8.25204315880029 -0.09249517911694392 -0.38739916905453925 0.5634983954463844
Ni 3.279457706216642 2.941355689967937 7.221217882032928 -1.7691843128109401 -2.22544662338578 -1.0488126290818582
Ni 7.832701319950322 2.6341603785234446 5.872450944045025 0.5335563564713133 1.1921742560313662 -0.23021272040679705
Ni 0.6634162911808933 6.525251814807931 8.400541945860027 -0.05482928913505396 1.2977162410299392 0.5405764965428884
Ni 6.037447752258156 0.11713382950231242 12.500659336175389 -0.4060085566256105 -0.4865946430097943 -0.5432872106058322
Ni 3.8302092847862137 1.6174478112946635 0.37713924978094626 -0.025188069229853394 0.9091541620155503 -0.5173506932457284
Ni 5.013045390337635 6.576968911241949 8.533305236971415 0.48674942342010363 -1.0994019119936356 1.0738163502150475
Ni 2.0355273804883973 1.3119767104105495 8.936844271118536 0.4541671186087081 -0.010436364841975574 0.6729677405238217
Ni 9.173030690645165 2.4298921391939348 9.672616551344948 -0.6967771842385936 -1.1442913163071582 0.25173285386676003
Ni 4.2967327164624445 3.9197022671339714 3.931970901206908 -0.17632239814624476 -0.15571217809506085 -0.04268596890430068
Ni 4.175143600635134 4.793886241623041 6.227192975257979 -1.5696199134176194 1.101556496442793 -0.7247633850388745
Ni 1.3205240001938148 6.904449052808538 3.8874779704095555 0.16676046548942247 0.1988061810710576 -0.60001165988107
Ni 5.077366742579337 2.199364265233638 11.659181884145001 -0.80201809305698 -0.9452172262866947 -0.11706155560239839
Ni 7.284946364012424 0.6389721488460344 10.46979009031321 0.4059730754019847 -1.084918887886112 1.4357052908136243
Ni 9.08571371734687 2.0646084505816207 3.736536705395571 -0.7629414387704926 -1.686958119720172 -0.7140909929266926
Ni 4.934764386821 6.794339306754868 1.6673964393571274 1.061329016381314 0.3356688305597832 0.9099954269699231
Ni 1.8682605153770566 3.0334857002315676 3.4904835600900084 1.9787343626620633 1.9914302129621766 -2.598236527167577
Ni 7.900710823123315 7.4766748901755475 6.946837893499589 -0.49859526701509616 -0.42342212411636754 0.5437042435385927
Ni 3.042918146238342 8.179977611640611 5.317308621791751 -1.2365527821467412 -0.6625910252751879 0.925642646588877
Ni 8.208468577584828 4.790732872576787 7.463842891047856 0.238012418956874 -0.043428246386963916 -0.8229234757510795
Ni 6.876502089126686 3.0602708963700627 10.542690081621096 0.8818763001362039 1.0085951763227081 -1.0720191491053086
Ni 0.8905925579823798 7.34524763173902 11.068237758763962 -0.7013920573027856 -1.2194441474909128 0.04062111595547197
P 4.818375563806808 7.8009463404319135 6.664294182879841 -0.22463934008407763 -0.9885927650588524 1.4542231471121536
P 7.571478809864363 5.753838166019265 9.28253096975744 -2.7772637258394943 0.6804511933850604 0.03234499198960881
P 8.572341548465925 1.8274326845676736 11.886261336984543 0.9436871627954134 0.5595242412899848 -0.2070133994721983
P 3.166544965455191 1.356501912528551 10.816313999213516 -0.8194074921780211 0.6547802709815175 0.8923638299310889
P 4.3075666598231095 8.774147947048798 0.6584824672725597 0.7949706992918953 -0.917073159752311 0.4780760640158218
P 6.829929963241819 1.6810315333501076 8.769615209554242 -1.549846587445434 1.6365485569193685 -1.0501891977144107
P 0.48645327727119053 8.917543255257362 3.0318306425011508 1.0185993387232717 2.0741449156535894 1.0260866482392523
P 1.7545640425427065 6.563000039589688 1.3489762405532533 -1.623547002453378 0.6863953267836371 0.7466257323296045
Ni 6.9949193951530875 8.002522229581581 0.7268506431236197 0.37257881621225514 -0.6797847634456551 0.0790537089000574
Ni 1.7785370235960933 3.2349601652306252 0.8156825244169437 0.2538329309288983 0.7852300749653638 0.8613714953146326
Ni 1.3692813555054715 4.47452003210529 7.68980299007975 1.1385626413534973 -0.8683250438143304 -0.5961902292524507
Ni 2.918516815325922 6.620018852987434 7.224469909116593 -1.0387889262972692 -0.6554060774909743 -0.560502546042854
Ni 0.40869967933772966 6.177090366894133 13.101495082354148 -1.489778418508944 -0.18111082067382356 0.766815319903602
Ni 2.109105991567638 3.5683136871552934 9.939479166242585 0.928582445943491 -0.5651852962305041 0.27658976500943977
Ni 1.3521591148069567 1.477196651755024 13.013494879095832 -0.5250362348154441 0.9738451744360325 -0.19998734586335234
Ni 8.052496674700565 0.6303676927233343 7.384506154327139 1.6290183099805946 0.23546651260656867 -0.5738337159341215
Ni -0.006391565563925989 4.705868519647799 9.806594166150463 1.1320227833524503 -0.08452167399316411 1.8075680547954613
Ni 6.155782074888603 8.918990854497894 2.996568231447085 0.5571981642599694 -0.6087402980033193 -0.8532637786058338
Ni 2.1385005544900206 0.5022616142004334 1.6613506379430099 -1.023189014976483 0.0512467139901182 0.09712650724136822
Ni 2.096667702551861 0.8903869435679603 4.186620204295576 -1.3516230183507238 -1.583605429063434 0.49116169355518635
Ni 8.979458089016397 7.31920928616411 2.0105724292495544 -0.9428582391362149 -1.3249395955222665 -0.49717113297405996
Ni 4.031084425258936 1.0958326250822847 3.02389558577248 1.8177959031710564 1.810717141947404 -0.25777931717115604
Ni 2.500778400093333 5.969050993237378 9.955227570719192 1.3187254962917545 -0.34724933630853094 -0.9794998016186486
Ni 5.132956397491209 6.862966575208851 12.829706941887776 -0.5096975475758447 -0.569174105674923 -0.3388829666217067
Ni 7.54431557825541 5.348307530369246 0.8949519523831648 -0.05712759825092742 0.0446664896694392 0.4180562318187639
Ni 9.026555776408975 4.02077604340598 12.451794102448993 0.7785133250668206 -1.0489825790008191 -0.7421003336554253
Ni 5.774657778026398 3.6553724898883995 1.5025010552946063 -0.30732756041292875 0.05892917023604044 -0.49288921776925443
Ni 0.2052603519300271 4.893374112994595 2.468604815444223 0.14046502212800324 -0.8097103194949152 0.21055406563560514
Ni 2.655809824490118 6.464342002177673 12.822054950743082 1.3694657029590993 0.3413026318067928 -1.4970618395442346
Ni 6.015263524406445 3.9718988231890564 8.058485309775246 0.011881839039250506 -0.24974436268182146 0.5390238073437879
Ni 2.73468093215576 8.836818851748747 12.42130876888868 1.5581648775031423 0.33479285571273315 0.011057286255426119
Ni 7.499532205572218 5.8120832896016665 11.705928275161373 0.14837810632749285 -0.541877474742499 -0.15277983493961428
P 5.951753565369627 3.8506232001909053 5.824232980807069 1.5526292923968936 -0.7584448364517196 -1.1650773998145743
P 8.084924741763935 7.974962521747516 12.117699262187134 -0.07150315024630911 -0.17458253263700255 -0.043052865325416176
P 0.32159754083118086 2.503194138953328 7.531655078146024 0.009597156770131858 -0.4414818098315558 0.09893039321932638
P 6.958545006593238 6.694593264818123 2.7353733824931097 0.3323019709700793 -0.22950823814060475 -1.0705111971012145
P 3.665247514006929 1.6743375394098157 5.479774436428285 0.1351649500713285 -0.6377405418904114 -0.5983882653450339
P 1.1032089269448653 8.567593054141888 9.105963510035119 -0.5599878111899645 -0.2793686133061576 -0.08846111825688636
P 6.022335553817195 4.655589802076985 12.969055426486984 -1.5004994044708737 1.0126881154451592 -1.1706327824151646
P 3.456322984126665 6.034902928115566 3.9915649659924286 0.35479809519006633 0.19313432749726095 0.4627250354810482
