# total energy = -381162.22979214723 ev
CRYSTAL
PRIMVEC
9.36123573727046 0.00000000000000 0.00000000000000

0.00000000000000 9.36123573727046 0.00000000000000

0.00000000000000 0.00000000000000 13.70111474970797

PRIMCOORD
 96 1
Ni 3.464902303039929 3.166653329360597 6.439880584199842 1.3890688219020078 1.4056442097621857 -2.481802577846848
Ni 1.05110764317754 0.22326453852337405 3.6489086268451922 -0.4080718669125423 0.01955092554873407 -0.4412460396716659
Ni 5.693054295073228 6.20066730818565 4.552976530403354 -1.1179251676088038 0.3509319273664408 -0.3190538477109215
Ni 1.5125884860987584 4.97294122852324 5.650120859166589 -0.317435338270892 -1.243678337447929 0.29015593372964865
Ni 6.521963644488915 1.3667404318010814 0.1757787336305373 -0.6019857528883052 2.5185528979930045 0.7167898799150946
Ni 8.98600941830958 1.4179089468711135 2.1860947678007454 2.2226137819226754 0.74280995812794 -1.6393230343407121
Ni 7.29688674684846 1.8865792189130393 4.8772956097575 -0.9551308858559809 0.307688029076141 -0.4671149370186278
Ni 3.7666991851004434 8.552078692448571 10.645232302516094 0.038525409768707844 0.730725001938948 -0.085203273441221
Ni 7.808487646426275 3.303879685454927 13.198270664795091 -2.397082157579317 -1.4075527396388083 -0.13848450136286472
Ni 3.8631948040799333 5.559553710840931 6.712368372986891 0.05558673612636878 -1.0587242317686154 0.40191381773094653
Ni 7.348757354606062 2.3188061998522143 10.755553530699192 0.9353477896917827 -0.06295783177945931 2.7112190276045953
Ni 8.001834611346956 2.16149999289341 7.116975963720683 0.5889818844294695 -0.1740153472796229 0.37400192181202685
Ni 5.95264136475709 0.49938916743203005 7.191098229056306 0.7031170104136923 -0.1405886921900611 -1.7354835781243851
Ni 0.9351734179882214 9.073836532906551 0.6262985055134279 -2.8270505674546342 -2.3383705026707213 -1.0586805230148735
Ni 6.063609454336337 5.2287650814017335 7.871537442017141 -0.6058087261788212 -0.3370114606306067 -1.003732191803452
Ni 8.936947181302255 7.5070184076199595 9.725777335617167 -0.06873561480350097 0.15911349046712597 -0.034564368238430794
Ni 3.753041142018267 0.8834525900039681 5.871270694515005 1.3861084537221031 -0.8864106976714476 1.1096251323835407
Ni 7.875935350612075 5.131108669178795 6.162200117895533 0.4637377930162787 0.19229383387383658 0.7054104344335593
Ni 4.559305661950893 6.727143211504093 9.233894007077042 0.3531700726683401 -1.410185549275965 -0.9382042853039714
Ni 9.1499340190032 5.275515093157997 10.919254397856376 -1.2231547635732807 0.6119858015238105 -1.0486053981670587
Ni 9.1763607877633 4.863208822074115 13.137245704515175 1.0553000365784149 2.1718877163227175 1.6758044170961979
Ni 4.726047994630625 6.44059578261758 11.573688097669653 -0.3748953801605737 0.5386520258266658 0.29742907035229416
Ni 6.367568781874564 7.926691971305399 9.521096722471954 0.484706681958462 0.3830977134657079 -0.04889749703165128
Ni 1.4705471759671238 1.4542399031438535 5.684126484458099 -0.4266869109105684 0.24482404256206866 0.05610661318558079
P 5.852438696387236 3.0832072731340574 6.81671526046057 -0.41747644805589396 -0.07405908389894342 -0.8321912742062506
Ni 6.330638706508433 4.360416845416334 11.05884072150452 0.24440983784278555 1.238235826276119 -0.5637863590004484
P 5.742818624768122 3.46890891197699 1.198566766162292 -0.07871895126845797 -2.165346058549458 -1.383090749941702
Ni 8.880714237645892 1.1059457626945997 13.158098793459558 -0.6080905802344623 1.1228033216367115 -0.683209729966804
P 6.520990075962152 7.20094344078319 6.327941734464583 0.2577908871353818 -0.2638710318911907 -0.18531406012189375
P 2.428978584385549 8.751070482577308 4.946787807849502 1.1263452733516988 -0.7975564577412007 0.38188955209021974
P 7.289070114926858 5.741348910742144 9.466826829970033 1.081931266012698 0.6320401490715244 1.6612779413452485
Ni 6.070508685146182 5.140282680296364 2.2437496831803325 -0.09638577242060174 -0.7806015750544169 1.5003243123455903
Ni 2.888662070026591 7.814694145784385 12.75087380118651 2.4056994669346827 2.0028384547991185 0.7122937918169538
Ni 2.3681211902270642 7.321488074620879 6.6647702332640435 -0.9655682791392209 0.8443397366433266 0.5475624409424182
Ni 5.707189761182952 5.148754598726365 13.280915399234221 1.8842949153345547 0.4306368966972519 0.7549892738029513
Ni 5.277977098182406 2.431964818616676 3.437938199342944 0.9409638503269794 -0.10221497750786912 -1.078318094740143
Ni 7.371196236900768 8.829236801793328 0.43860853540738576 0.7896703701249046 -0.9536491591041317 0.9386179758026222
Ni 2.426797416436168 0.6318272513971382 1.6349267327222898 2.848259854542398 1.6432979598280602 1.8172282035930445
Ni 6.075722893505862 9.246878977302735 4.672956681720238 -0.7581887545768555 -0.5027496555031019 -0.40285432726734494
Ni 8.285264748700664 -0.09380613592430888 5.680769545287936 1.0436606525672736 0.4612685055401798 1.000453006831548
Ni 4.202567686779143 4.408683377377748 4.205899350612554 0.2246977041258388 -0.38357516732275876 0.6806509681006924
Ni 1.6081760652023258 0.5540981018945772 11.906406077814292 -0.2574268189277437 0.24120161531813297 -0.45149265710033853
Ni 2.160395367064968 3.370222763812284 3.5659072293207794 -1.1741932460729132 0.548205730953372 1.3961306138447958
Ni 2.498888293595758 1.898299486177525 7.843819758835499 -1.8328178305011853 -2.506733279650257 1.3566135295867796
Ni 7.416148891376856 0.6740688919756259 9.167388979339751 0.24649140296216257 -0.5234436935173437 -0.733266537413879
Ni 0.4813032598002514 7.2557815603002505 4.994193106114164 1.0699193291534865 0.9518766405847413 0.8520157651313457
Ni 8.14814136620051 3.775601720378819 2.004144171384685 -0.5620354377476127 -1.4694361074071662 0.27986329355438894
Ni 6.295833631676676 2.886387289718867 8.930044205998076 -0.7592220809373763 0.6847120255439434 -1.0897520476086975
Ni 1.5880400469228457 9.250614110400603 9.194585241685425 -0.34170860899595984 -0.21292976495663327 0.10459710458680051
Ni 7.9144193911266925 6.49750273525401 4.229041261718414 -0.5821692323830103 -0.05746338432379136 -1.2753031634420615
Ni 4.859136684486215 0.5833145189332838 1.7044048889605397 0.6442868276493613 -0.40043620474415553 0.46462533782755466
Ni 6.830463171406755 0.09585624657201049 11.68265288278037 0.6467100923788733 0.14363107856081073 -0.6210949629139303
Ni 5.17121220349274 2.914087186552425 12.756532668248315 1.1603414277914854 0.32937605557253596 0.0360113850976025
Ni 3.765519669385327 8.771917954780191 8.107264593806658 -1.4586179337457394 -2.147131335313644 -1.435130906367393
Ni 8.899942216049448 5.841542217876164 1.7437679495199943 -1.5392487573249298 1.184348075118728 -1.8782746772824037
Ni -0.12779584711490166 3.11573756765809 4.877816094469885 0.29131113038001444 1.080663712154184 -0.5801066934270268
P 1.6406689147830213 4.904351453565662 7.913092904008979 0.6468450752948409 0.14418335151985492 -0.16726337326777
Ni 3.178354874153415 3.1182651013333387 1.5838761692237693 3.1882404251036576 -2.5892824032980823 -0.9794895172060034
P 8.923523169115935 0.37610449986565536 10.778337842596182 0.34709249901569256 -0.9414055658500884 0.922060071443941
Ni 4.306805047793561 7.940855521122625 3.44467922526719 -0.41426848264155747 0.7650109197050116 -1.3004377537261604
P 1.5824045829506246 1.9451618327638007 0.0015651986314872658 -0.7624956094823254 0.3352427987659581 0.03865705025056568
P 4.867964329877916 1.8027493520172948 10.887481427311334 0.7021325350132359 0.7525798930305103 1.4968178418542286
P 7.1350590629817106 1.1163273732347874 2.7408809205291407 -3.7651262976005415 -0.39154378735053214 0.551288997864386
Ni 2.818892779353896 1.9283864981488177 10.305430675215673 -0.5340824041781124 -0.022129999129819954 0.003021817545459312
Ni 4.8587996799961815 0.8564678915881476 9.066671442999013 0.8445659937215196 1.8071993586021329 1.565854018617284
Ni 4.32181110883587 6.910567266440466 0.501792196670683 2.4642990217454463 0.2407125914968564 -0.03806312542030864
Ni 7.261379579329134 7.0008938310051825 11.515444360556092 -1.1428496987646253 -1.328581563150228 0.2129577899810913
Ni 1.6460516253877173 4.516337589471668 1.4424803186888635 -2.9823318286598637 1.9047295290398232 0.025467548143485175
Ni 7.956984930465045 8.16662044573733 7.6160112764381775 -0.09870259347923646 -0.17600152447171624 0.6418437654255075
Ni 3.61045079779091 1.4481550998515882 13.313154559323808 -0.4120462781792581 -0.8954530103793739 -0.12045695443719254
Ni 4.414974127858366 7.677879684066762 5.870667830927279 1.3441647623004656 1.5967381097906501 0.19916742106521826
Ni 0.36119954017035616 6.487729605043048 7.1805902418323555 -1.6505317585723382 -0.4392655189065274 1.7796286480727155
Ni 2.3869934416689205 6.739911937182016 9.26557055689299 -1.5682775404571119 -0.24657342115300762 -1.2873490388630022
Ni 2.7880849522233664 6.407747206075182 4.427131564836311 0.4932879958695698 0.38248913334743156 -0.579109362510764
Ni 0.44011101375878353 3.047063541578003 11.800578242831634 0.8130843781734706 -0.8401478100491659 -0.057295234177043255
Ni 6.831848634310224 4.152494436301718 4.355159575371816 -0.045178396308851225 -0.6624141333776914 -0.22938971028486946
Ni 3.300921534931302 1.2569799416444536 3.6251095569837686 -0.16001517634578893 -0.18188138029126097 0.33638334012830456
Ni 1.543864375021001 7.675427040278188 11.165545704284847 -1.616318603025739 -1.1433734324785794 -1.5768498555071555
Ni 3.6876248260085003 5.540288287494038 2.1730517579128796 -0.6440549141442133 -0.17033738420740344 0.9776563206520066
Ni 8.748149776997021 4.174334199503033 8.473043650547131 -0.08494847711793756 0.8624081641092631 0.2530294611909965
Ni 3.3665437981294226 4.809737442988856 13.338007704340168 -0.21585233792006697 0.46584378361568807 2.0022689554488937
Ni 3.818157898481337 3.49412808131447 8.743544985090152 0.7960256229189709 1.3197824768013593 0.4875906883744764
Ni 1.2003631873188854 6.764354123945253 -0.15046407968754769 -0.5495393621631309 -2.271384009347843 1.5253522018484957
Ni 0.10589242750991419 1.9889349715247722 9.49513333488565 0.964168570578217 0.44034358246205446 -0.8300708854291382
Ni 9.026627820594408 8.079486062592093 12.55582496359116 -0.5067554342283853 0.7779206857881441 -0.8844980540297671
Ni 1.6760263025289988 4.288091937360887 9.978644910219202 0.6904149894659916 -1.002532772178712 -0.957362346289661
Ni 6.459571007653612 7.191526037533931 1.9946078804403302 0.3447515095873418 2.1859886745004737 0.2605126569419191
Ni 8.217760877099858 8.801939438100645 3.4986205383913282 0.026211625398361308 -1.092548379406912 -1.6362335967821113
P 1.828520834268996 5.069268345257714 11.972568484320048 -1.2455501005493452 0.46044061032224576 -0.026538155499844618
Ni 5.002232535448622 8.967343114056076 12.975696049352702 0.09577616386106085 -0.5472662498582381 0.20135697251736934
P 9.573735887691546 5.1445701263084525 3.6293155602440987 0.6231752424817268 -1.3469276697575836 1.2141731288999604
Ni 3.8350455679263318 4.055118861153809 11.304105100361975 -0.05498561220726014 -0.03493923507934628 -2.2504585720490855
P 0.4037969077105455 0.6241931635743042 7.455516632554227 -0.5360608680607218 0.6282094624715245 0.19716144637878302
P 2.655314544386142 7.718235971748232 1.3789765031600347 -0.5638364955120935 0.5350226566041947 0.8142123211303268
P 7.55888901537756 6.79218507808049 13.743999821853846 0.06507616367404276 -1.7689909658532115 -0.026959045087347117
Ni 1.0054716184855517 7.159145522783247 2.77266699680435 1.2772782848905615 0.9715936593976944 -0.9486560767649147
