# total energy = -340897.0593965391 ev
CRYSTAL
PRIMVEC
9.00096427947152 0.00000000000000 0.00000000000000
0.00000000000000 9.00096427947152 0.00000000000000
0.00000000000000 0.00000000000000 13.17382105442720
PRIMCOORD
 96 1
Ni 6.203941476524947 2.00322755677663 11.114567731819944 -0.08728406722964968 -0.14783380378824862 1.6228798011830246
Ni 4.609636717646919 0.46269275695930173 5.8968654869841295 -0.24341482091936786 -0.6128093258663705 0.03236658925616361
Ni 2.683349401596604 1.621505672246644 4.58805960661871 -0.15946933114464792 -0.009257514042525993 1.4653274845554312
Ni 3.325730204141725 4.371048163490104 4.857609676925545 0.6481537668039353 0.057806369485506895 -0.0060958284850927275
Ni 5.020566730529372 4.300957656408235 2.8233206932979047 -0.13612988508775908 1.1651540186887805 0.06219215725802838
Ni 7.053443462897074 5.949952272873196 2.5883919311251007 0.316629554540145 0.19332253224866708 -0.31310842876076395
Ni 4.992924769922153 4.490283934302166 11.516330262814265 0.2033110109199466 -0.03544239996800993 -0.6741486482058003
Ni 5.6635595986301075 7.761864338700148 12.25117886917379 -0.3674147555128124 0.44517134286800103 -0.2529782962380869
Ni 1.8666109243779383 6.365751807308403 0.503562534339029 0.4724072957658187 0.7595599238927694 0.14589107823958103
Ni 2.705140735569277 1.5274906027115052 0.3405712770718005 0.36339457860982577 -0.5778284389158113 0.5570474976147181
Ni 0.5092646450666988 0.12560755326528572 4.609914847436161 0.18217937114765398 -0.1875522054237931 0.28929075751587596
Ni 8.557450550393915 2.228521687026944 1.3520951168826325 0.10120221997263862 0.8965531854220882 -0.10361365762760866
Ni 6.8379513825006395 0.7996519471565736 4.787616380255451 -0.8004818589181117 -0.8819937995506746 -0.4206353053998498
Ni 0.6784440651204671 7.353337583219885 2.4278426354054914 0.85727135710333 0.3254553803618911 0.33256987991948533
Ni 7.489045118249209 3.8264358324902847 3.8075500097139683 0.7872141952749282 0.17968874351531633 0.21039260035707635
Ni 7.718515695820184 3.6989371766774326 12.561580714932246 -1.4598170962601633 0.02216779434629085 -0.19580981744689505
Ni 8.142182072837842 8.815004135810714 6.712233117377501 -1.0361152361198478 0.48096495552784263 0.21207410182455733
Ni 6.829175442548819 0.6820723537302913 0.4159399494744364 -0.40548096625691454 0.058438089532234845 -1.2633382777707016
Ni 1.8984023294136594 6.443835170469468 9.202242711208873 0.7946248859167024 0.25093041257012266 -0.10136008570674157
Ni 0.07108241332052644 4.793031360229825 1.4079127952654238 -0.16232839785999784 -0.17225696982761945 0.3554750666524329
Ni 6.492152345506771 1.8647027199986705 6.939494858369833 0.0936362346999226 0.10171566927394739 0.7595740649601563
Ni 3.3955956871222663 4.196555474355762 0.43193916307890834 0.3700827892632787 -0.205819122053781 -0.010171798326679256
Ni 6.063985486462537 5.601173916777734 4.971036225537706 -0.38807202675184777 0.18021684810464447 -0.49942110535050116
Ni 5.336320549513831 3.1830919267914766 9.156556517964308 -0.4096957756692106 -1.5235483158705374 -0.7049862024119471
P 0.23220417035391594 5.628536847499306 12.421279087850195 0.044081306589930536 -1.0361946832075317 -0.2790076304223131
P 4.018651419845277 6.143896045326392 12.672754322241904 0.034082029285373565 -0.23739483997753308 -0.665306367323822
P 2.4675872922785747 8.390014617077242 1.4184124198334218 -0.4744981168565763 0.3459869246563396 0.6630638511465483
P 6.333492352141917 7.74714776247325 5.830100836119898 -0.15073195127165007 -0.16367539880619555 0.3051909736859002
P 4.693183665988245 0.9536431404670587 12.542715594373252 0.6569970761271782 -0.4527743520262396 -0.30287466684789777
P 3.883096901204856 6.219738168438223 8.138114537182224 0.19570491643791457 -0.3174299389542533 -0.2361982485662706
P 4.665370687064016 0.9721671244884389 3.718047123458673 0.24188192921460921 0.056757616506018384 0.8323743367513342
P 0.1357588405244269 5.618023721485228 3.5290034758360105 -0.13394650428319513 -1.0262576265994776 0.36185654469874456
Ni 1.4155186098903345 1.0958313696146498 2.6062426430353054 -0.017837028181420893 -0.5650068616711108 -1.1966680301366617
Ni 1.714620645376468 6.497444912370022 4.807193477071049 0.4250797143244486 0.13355183994793773 -0.07424805998129794
Ni 5.810257310768326 5.521335365626304 9.209422780234071 0.7213908690222156 1.483682075803219 -0.3112497782854704
Ni 8.552383007631992 2.23634352478913 10.307012938224705 0.401732812068392 0.8790473153278409 -0.49831038878482564
Ni 2.2515101492186855 4.987155151964084 7.156005847897084 0.8803616632638902 1.1790929973673756 -1.3196104699998692
Ni 0.7334048517253987 9.204655869671523 9.151260350715434 0.26600221930158063 -0.18775506546321857 0.45079537392299784
Ni 1.5944667762309852 1.1142113382111796 11.37652908933357 -0.36268675390952376 -0.04076381218092334 -0.22453315352351652
Ni 4.148022276181184 6.5704787346972715 1.6586634520508527 0.053460176701669214 0.9914191787640538 -0.1485341722893829
Ni 5.357922863241389 8.026672701143784 7.8819894047606605 0.978553378544979 -0.5649670095721108 0.6245088736914858
Ni 5.175329306459212 2.7894347639270154 4.952947888176498 0.11071453033844804 0.25640634808302937 -0.2134326727349808
Ni 0.924137980300837 7.600063008880746 7.330585846382742 0.23516080844069176 -1.218639135091114 -0.7935234253224076
Ni 5.167525470625132 4.496656616851795 7.055266158117837 -0.04745330838595698 0.7145566197092017 -0.059919302063451654
Ni 8.359051300734409 7.131634837626778 9.18285103425277 -0.5912369990122334 0.02181323922034953 0.21680107498658147
Ni 4.578790413836778 0.19531461927849106 10.258494141592612 -0.21060214526472115 0.3364944117848721 -0.09654569503723372
Ni 8.074314803877101 7.291500960174753 4.5241401604916796 -0.2930548525439985 -0.38509957438708514 0.4133961073389332
Ni 7.287036482004391 6.0731574688326955 7.124349457322159 -0.34743137041235006 1.2170900454364395 -0.4157862048376646
Ni 2.4646169741410358 4.97499484952828 2.566747312866494 -0.6173738053086012 0.8237292594818265 0.39526443073522893
Ni 2.3814210633977817 5.186490501885117 11.634696540498792 -0.3168041324447963 0.42832624628620425 -1.1237769984038903
Ni 0.9903130680195867 3.364974407413454 3.626239090309366 -0.46990921193431334 0.1539815685571993 -0.007034795359594336
Ni 3.529449023556641 2.5129431501423913 2.562795889647161 0.9190683358054687 0.20357120655986874 -0.3528808235626955
Ni 1.087019425806617 3.405217717695082 8.350344668205798 -0.7540803888354368 -1.0605481723512316 0.3083534305742819
Ni 3.596533208644759 2.832243348963791 6.879171297382034 -0.6578152011530994 -0.8471463528541862 0.1068409063156547
Ni 4.030928734813772 6.831965741405296 5.961759737518116 0.03815877045790848 0.37097496206024494 -0.14257306960994154
Ni 0.8382399801488277 7.311168066630883 11.157817364095324 -0.46066943850360015 0.26574536609576815 1.0357694227446548
P 0.28660239670552584 5.4836753320279294 7.9531150227086425 -0.5859991476520618 0.556747449875796 0.43861143026229626
P 8.541131802565555 1.6508398140958558 8.0014754023734 -0.5803625181915747 0.47534169580379426 0.009012745021571573
P 1.8406791469408166 3.2845327916704634 10.544194641700013 -0.9269173995362424 -0.34651400080440325 -0.7158000051979995
P 3.984123721737398 6.147064384673101 3.7625091855920116 0.1568619754287879 -0.2508820758306905 1.1691806233496704
P 6.921174296136053 3.9766889254294973 10.414485349115708 0.49295709489271233 0.21271482073234982 0.00870369842158501
P 6.339757023122909 7.65841625883731 9.961806164665536 -0.0738510816531954 -0.04750781577297625 0.3343971629362112
P 2.2107087791657625 8.463453482786882 5.78411131038674 0.449612152248174 0.2982762488439379 -0.6028442442338586
P 6.8516148459333195 3.9446274914721813 1.6184174414800085 0.3212781090557499 -0.05534093866414985 -0.8699270981941276
Ni 5.333188214023335 2.8164646589786213 0.27115134181189066 0.2995150063470454 0.04335265595402211 0.5089850948898524
Ni 1.379370738252889 1.3104143526417162 6.851072087800915 0.5153629733917382 0.05148942612854359 0.2004707132576741
Ni 6.832739824313867 0.7898291950853724 9.207447068624406 -0.0655369053605452 -0.8342430145289568 -1.0286338401411381
Ni 2.9197597224525564 1.986278741464551 9.120433849026211 -0.4969261068427894 -1.2861416488184623 -0.1363599988206942
Ni 6.218739061428323 2.182382745290503 2.675787691695554 -0.03347344916709719 -1.6212600061914142 -0.7496892017462766
Ni 4.138535260069165 6.740911989043643 10.4224944069302 -0.2508532794752841 0.3990804620472095 0.19275020468496482
Ni 8.130030771366092 7.072885545251876 0.33971348519753547 -0.8252832342325077 0.19033928125062705 0.21914026464271938
Ni 7.594086368749456 3.9588760175683158 8.144714944122398 0.38069553178211857 -1.0293059265074984 0.5831346816200731
Ni 3.069238732483198 8.26340705670565 12.408171883996001 0.6808959942319629 -0.15750757943258678 0.426996214620871
Ni 0.2517056590714681 4.827253025559896 10.26933580279463 -0.7802650176506046 -0.25951506891534015 0.0887897052408987
Ni 8.638090187346075 2.3659574071544722 5.551974647263223 -0.2192765331102675 -0.07788359985135619 0.09511101947323619
Ni 3.629746766000878 2.496642404242139 11.364014148914071 1.142710859193916 0.3169002917030284 0.555091916550244
Ni 0.9873337489179945 3.4303664112595795 12.590497212049392 1.0754878243801993 -0.5630829051755206 0.23384003274673917
Ni 3.0641261849010095 8.693320102776196 7.7106902576723755 -0.06835843396974033 -0.060209322500044696 1.6202184523007777
Ni 5.676160948304516 7.728578773631605 3.596413495822852 -0.8663311533127532 0.5188802425163773 0.16641028123885535
Ni 3.0984378598716127 8.299122882068545 3.7172568388148064 0.21321335763532315 -0.28285580052380965 -0.568622089826195
Ni 3.3596908415142557 4.457187389478738 9.490209654064858 0.33253079915143374 -0.028870146067130925 -0.6585898745355948
Ni 7.270231682117163 6.010780787944374 11.34916795880481 -0.05394714364041677 -0.03290986335414332 -0.43163474183414696
Ni 0.5373017479958518 8.927264159481584 0.3952881375508919 0.5080677252819057 0.2742549462286761 -0.2853729105187085
Ni 4.70322874187156 0.25453826245899397 1.6920849316765996 -0.6950200923381707 -0.2800851797572079 -0.9267047693048039
Ni 6.042509186231723 5.425655117741333 0.2874115833739039 -0.3045224868639659 0.8303015133827054 0.48335556724720624
Ni 7.840073715357957 8.71943189949438 11.294904746913996 0.24097767223278496 0.3611595186317199 0.16525354192659283
Ni 0.01219450609920595 4.948225982434216 5.722391699874299 -0.26824473547885413 -0.6668557140888128 -0.0654883115107969
Ni 7.735392503419838 8.63344568989465 2.3462182929859168 -0.2009317120544927 -0.11542299155771091 0.5666271708833531
P 8.251435774514963 1.4513784506780791 3.3431335681384886 0.9498012461129514 1.1198087577847617 0.7795103988727672
P 1.7841530926870424 3.1549819160534933 1.5214707579527593 -1.0387051083342114 -0.21692063128358127 -0.18674487903114934
P 4.670744262603746 1.2551304314272769 8.135453852208114 1.0517092339033631 -0.2367255818246504 -0.29388223354130033
P 8.629890309093655 1.5510101217823828 12.381929573299045 -0.8286814612807794 -0.4637035973442337 0.1985069046630839
P 6.123175826076043 7.562015933828087 1.2150347369561203 1.1379928848929564 -0.020766543123390043 0.8743110861944362
P 1.6745933582321153 3.3250191279815264 5.7677889621727605 -0.08141552426401462 -0.7028820115847507 0.6559092423796381
P 6.936043888751855 3.7825381308030788 5.9882126707739145 -0.10907596629376051 0.8849199720585341 -0.512159378852776
P 2.5162645058780035 8.345603860439004 10.298133487186274 -0.4263950907017624 0.5824469115244291 -1.2934813770129854
