# total energy = -340867.8877724723 ev
CRYSTAL
PRIMVEC
9.29760898034373 0.00000000000000 0.00000000000000
0.00000000000000 9.29760898034373 0.00000000000000
0.00000000000000 0.00000000000000 13.60799055944853
PRIMCOORD
 96 1
Ni 5.419316042957858 7.586821177043131 9.700837165663986 0.5435700319535735 -0.5759649033445113 -0.3593687452798843
Ni 0.07887998630376855 4.244618911972895 2.9486205231569675 0.9237886240992736 0.653455638632823 0.3343259433786435
Ni 7.397447473789303 4.779036188550213 8.084697919883318 0.35898487957790437 -0.06863508466989471 -0.23025308672642927
Ni 5.39223210749152 8.748538845648758 1.92234670566684 -0.7028979524243507 1.7675205519552721 -0.2730133605120911
Ni 2.4286563800099352 4.406694834749836 7.172322603815539 -0.2375185100395909 -0.5826543995495449 -0.35000324490458434
Ni 7.505876191746203 3.4301855404969337 0.3864858066067424 0.433578238713763 1.6023690828241823 -0.7420990481038445
Ni 1.4543134286899737 1.089177721984143 10.768424909431037 -0.09310298790427192 0.6250439202593493 3.439494539561786
Ni 2.676995520520038 4.570128208463299 2.160921497043146 0.291540215671685 -0.18484534801559133 1.682363044150322
Ni 6.488485310042049 7.6756133444662495 11.82843324221554 0.8734564515036247 -0.0320688555100867 -0.22086496064330996
Ni 4.916687292078931 3.305476708910936 6.0952234058836865 0.31110373962590937 0.6965352434311165 0.15291276097305276
Ni 7.06912100172516 1.188336723614253 0.14131343177457864 0.950786492844356 -1.4058419275952885 0.6922834101332981
Ni 1.1558415796201382 1.348078946493477 6.186505473038314 -0.10485138668945167 -0.6906800702019202 -0.5750339068898097
Ni 4.430784940068507 8.603617011761413 12.945227652670562 1.8546105008962446 -0.8053918946252194 -0.5640727798926157
Ni 8.4007245847973 3.082287601163088 4.656722421082351 1.8205127878815872 -0.03979656317164759 1.7831011800023484
Ni 5.294272497442308 0.9190612268106033 6.122275729478901 1.6578825425104544 -1.778261849632176 0.6440870529337295
Ni 3.878618527615719 4.2823114194842375 10.14402258217611 0.7867035741870968 0.4402708202425901 0.02028574683222958
Ni 5.102174594706282 6.499726119509541 0.4822195690244257 0.268614203003131 1.3295688667641619 -0.0915713817510939
Ni 0.29922681493316095 3.090432306782214 7.59868864536762 -0.6389163073660673 -1.5178324964326828 -0.23078736196334448
Ni 8.894139405004362 6.791503689988314 12.871580360798808 -0.19615537371177183 -1.0946690252943405 0.44123884058281426
Ni 3.163790443009272 8.240629052770215 8.880928432157084 0.5580026624391358 -0.5186622129683003 0.6258437904528253
Ni 7.9477357691929305 9.144496126700936 7.555850840950313 0.41762274382577114 0.10498714093636759 1.6041647412720244
Ni 3.372428792430713 1.9495877707278864 2.593165487102545 0.6278649346479123 0.6662720736712009 -0.20313566168434694
Ni 7.492980407849253 7.28953942194504 6.210686694926695 2.322197492455284 -0.02288693190050252 -0.2734895288175612
Ni 4.536610327462216 3.830131495876288 3.6563721974361125 0.47783643720119 1.075337157734948 0.6758090666273586
P 5.277555396182961 8.057745080706054 7.579800552370754 -0.29032099855260324 0.5329200084388951 -0.15999255063796963
P 3.742324875023521 1.8224336679343198 7.1770309130912535 -1.1656165601474957 0.7844739135256296 0.8838084841619102
P 6.168219865114644 0.7257453372753712 11.92994825800534 -0.8697882586234181 -0.3844166893874476 -1.21048462430478
P 3.3899175952498632 8.682051642586693 1.230461401409428 -1.7269691128954707 0.20119679279042124 0.7126182650359082
P 8.384035376365416 1.9704516056700305 9.266837786996263 -0.1532896846964973 -1.4209373884758303 -0.3116680967698116
P 3.848503571565093 5.0851413747356915 5.54736550551298 -1.0590065388957244 -0.18515336617431336 -0.7606256461531222
P 1.9102216935687784 4.564149845777115 11.269280606244248 0.6258669303812769 0.5499057443636142 -0.5217128268691661
P 8.13604024739402 7.683516312247365 9.50910093992406 -1.5422402358530858 1.4490626859571367 -0.594981039435698
Ni 8.107301337498225 0.24357969438404017 10.84916162828291 -0.3860472830123351 -1.0000341741265744 -1.4020832318838046
Ni 4.337976205490752 4.66485225052683 12.456346346687114 1.8481418624527657 -2.261752914015982 0.24772373270736692
Ni 4.195471749983513 6.771802056190452 11.65849619089868 -0.45810553443116586 -0.24341276403683884 -1.2735560988439678
Ni 4.1961969634975445 7.503263563573857 4.261546139199129 0.48074384065597203 -0.56025443458779 0.022601282339283657
Ni 1.5261374594065795 0.8575231411013479 1.8234433882884717 -1.5028455361055473 -0.34688243988741546 -2.185535903233771
Ni 7.026073071340967 4.566018665217118 11.311982665567902 0.519413489312028 0.06887265460199751 0.45373748727045726
Ni 5.623565920858493 6.259903588984734 6.356251923367513 -1.0139716101432732 -1.287942449472627 -0.8633931537303516
Ni 6.7947020675373775 7.227570856931942 2.6682957476344034 0.9983858398898742 -1.60251666414564 2.0445720870924786
Ni 6.038546110240274 0.8102475878347166 9.13882737439959 0.38117195719790486 -0.6529051654459916 0.3827624416134763
Ni 4.545889341398161 1.430976429712798 13.626633621650216 0.14334362922737895 1.3140347756843047 -0.2940796942640871
Ni 5.663229521510537 4.466320402256062 1.4513874710891301 -0.4384803040010707 -0.5543954047038517 0.421391466839584
Ni 9.027476417885506 6.159033827270242 10.57026496552644 0.08486568759614416 -1.2626877886708965 0.0720281695118437
Ni 0.820557706625868 8.214902568240396 10.198780851290083 0.5667984063538948 0.07996799318421066 -0.43574516445809475
Ni 8.103740353192144 2.2801828594256666 11.880783430558562 0.41596875316211585 0.5651498150068783 -0.25773637974836255
Ni 5.547362716230233 2.6989099852966127 11.009925658408186 -0.11203196359829093 -0.9446952923449536 0.1409005670035251
Ni 2.5790731009074435 9.002214813813401 3.453953018777951 0.12456763417145643 0.4355528459416306 1.2431867425234913
Ni 2.1593604284661465 5.772597297992017 9.207533916766774 -1.8088199249246912 0.19493409971016104 1.0679578345517415
Ni 3.3006698449781866 1.4918478768456938 4.978197484960724 -1.5923726337331028 1.2548140423497745 0.9358000467378528
Ni 0.18348366785460934 7.987334286580896 2.2150540370610385 -1.3258245692303812 -0.41770450490629996 0.013708350725028004
Ni 1.289243675765363 0.8534768215974168 8.683340291215472 -2.1750609718443767 -0.18433472692775996 -2.7097355010805333
Ni 0.9482073719873563 7.982350768074216 5.5533940752885975 0.6156007725685785 0.8290684123065528 -1.045344982248232
Ni 1.697724836348322 6.937708593938946 11.987755213160993 0.9595351855712636 -0.8851516284533658 -0.17410790699342918
Ni 7.1607489399403255 2.065045481205402 7.244159651184961 1.254991191357587 0.5707640758698622 -0.4238571547712572
Ni 7.216748439876392 5.289958406794734 4.301649516764169 -0.23173584191954283 0.3739592414995495 -0.43540269351701144
P 0.9520751773955255 5.835114421945215 1.389308264527097 0.35709589008530757 0.2121149823648218 -0.7101924292032349
P 0.767653380777252 1.871692401233553 13.193954503482397 -0.21465214696437868 0.014602066183890981 -0.3638779460041475
P 5.955778793549113 5.154650300772888 9.598328235455597 -2.193986605104286 0.28765322191245296 -0.08080154482909956
P 7.636414624271918 9.385378584669327 1.992291689573371 0.6570878360687715 -0.2529333019327644 0.4514841724599063
P 7.210742184362744 3.3675568452338847 2.7429899502969266 0.10244971922649454 1.87789903911054 0.19897844498286377
P 3.6916436075236874 3.3091306693085576 0.7683153705490348 0.5512943971810247 0.07501861959873532 -0.7693434856420943
P 1.3651493569006856 1.972301829891727 3.6981212518214552 1.7262849423442528 2.5746006329161917 0.7522261092355174
P 7.01733331873597 3.9664530412959484 6.147301174278489 0.09029637169341223 0.47098624704857595 -0.8521232372434874
Ni 8.171185209997097 5.686203913730696 1.5532836888542525 -0.8264685127898606 -0.28902156301488935 -1.0737631283796087
Ni 9.114678694143247 5.0244000941309555 5.983583293724907 -0.1168854350358503 0.9663936032539937 0.40869098855378005
Ni 0.20780528364122025 7.242186698522429 7.721935892794569 0.1847615300525334 -0.5633721542811653 0.9662825315974262
Ni 9.294159741256951 0.5384635960812494 3.923088062439596 -1.4671108017080992 -1.6593850951979099 -0.3021028216788797
Ni 6.846601321836419 1.648586971968094 4.118159340583151 -1.8990731020849938 -0.7033635792068597 -1.3069166765822848
Ni 9.361576705234441 9.131442283448365 12.885801054000236 -0.7089014783059533 0.18580514082569935 0.12888091683482966
Ni 4.182445799558404 5.700512934219092 8.145335067265528 2.3568310233687537 -0.8063840833351595 1.9159822191355067
Ni 2.34581468244554 7.061710807229221 2.400477186185225 1.6787511584293475 -0.8725997599302843 -0.8262029178332997
Ni 5.717704213545306 2.03052345841566 1.9314769578563167 -0.06420815924679264 0.07929462126626989 0.9022314667537881
Ni 8.786631150353733 2.1444656586010327 1.9252317537874049 -0.4082598145536323 -1.7817814327496604 0.33325739290481315
Ni 3.2445401785139607 6.8874550164602075 6.5664271675821535 -1.4179708496483385 2.3872507733111923 -0.6210777365227497
Ni 2.998218619190331 5.706640058651744 0.17026618668092303 -2.6597969643788772 1.056865838403638 0.23800804808149975
Ni 2.9572719484750003 2.6724210968161453 11.91280253696398 -0.2645418327059702 0.29197396077499393 0.48330825894903867
Ni 9.318342822667162 4.345916363708484 12.301487228135704 0.07419766635933672 0.2618807409340393 0.3787450929239671
Ni 6.40854446653378 8.552619625550335 4.602085950648298 -0.3229408414701535 0.11322572679607597 -0.09208868770714462
Ni 2.126149368567154 3.0835055879622955 9.230504589943271 -0.8210763952400117 1.1051897223200065 0.24999761634320816
Ni 3.4095634433928 1.3310271313045767 9.263286100299338 2.8674112306598682 -0.4085125539943868 0.47312694754066265
Ni 5.508229079299983 3.0110121293865837 8.541245860271937 -1.4336908314867565 1.2723615643152346 0.58611947528001
Ni 2.3997873035859794 0.3514775188582329 13.169663569805996 -0.9201363720586668 0.8028202772433012 -0.680926333249266
Ni 7.241480080226705 7.776074011377954 0.4959632948762427 0.13946691988079207 1.3335964998663161 -0.36199795537261525
Ni 1.668530343603967 3.9984368167865796 4.8216238872812704 0.37095876411032885 -3.9133002583370287 -0.05417545760113895
Ni 2.0180181741031897 6.041326095377396 4.502149668892892 0.12355693351875495 2.3197706281813466 -0.14697994042838558
Ni 0.8943770042669765 3.6586370950260885 0.7731677927666396 0.5153138653213577 -0.0016077108067520697 -0.17381891499810065
Ni 9.284043942497123 3.783280843348007 10.016623952261787 -0.484902600019352 0.21823189389583705 -0.15396922726202517
P 8.860035774626562 6.887864111262994 4.489290145671644 -1.2195284796746029 -1.2060312165191165 -1.3467626049346288
P 4.883150815859541 6.102950648851786 2.725000006344363 -0.5334260015410361 -0.18783914053659262 0.22034662624599471
P 0.26998490438211925 5.063505838233743 8.160113617016213 1.5710093375659782 1.5009388060011375 0.5621668211191544
P 7.872676170490645 0.6297363656267221 5.591455697883363 0.9247239914293494 -0.3805587490939381 1.1749450366372733
P 1.9151122359839154 8.693060011825327 7.247996774482922 -0.5096070447445675 0.08605096615349697 -0.2448631233301202
P 4.912652129705986 0.7546227815475662 3.93473703694896 -0.424100895350947 -0.8730846699865029 -1.4765035557769088
P 2.9536737737323038 8.631686493798103 11.2435885228683 -0.3745148568927034 -0.14657216346700563 -0.7887342314638803
P 6.882369224252831 5.611097826982639 13.188674391243696 0.32220730573823864 -0.10084663640543277 0.43747294578247886
