# total energy = -381168.347429617 ev
CRYSTAL
PRIMVEC
9.27839370624552 0.00000000000000 0.00000000000000

0.00000000000000 9.27839370624552 0.00000000000000

0.00000000000000 0.00000000000000 13.57986706349470

PRIMCOORD
 96 1
Ni 2.6739681073600643 7.444333594425265 3.6750919390810957 -0.38287762703510186 1.3802651075674488 -0.3052799338552807
Ni 3.603755937177416 2.1425109962523097 12.47707349773211 0.7678589306767679 -0.826341500293693 -0.5049394640655691
Ni 2.9699767006607627 4.919125972799774 7.129633677073405 0.7206272513833137 0.5005307934749121 -0.6345937687313136
Ni 3.1891138023933863 3.2734822360480034 10.3526794929627 0.3244657627551122 -0.8031262385194943 0.10433973716035579
Ni 9.036580175597765 6.61608850494841 0.7502926650460557 -2.301647179107759 -0.9366837348943868 -2.181524210971217
Ni 6.154840998752619 2.333636627490785 12.973349723555778 -0.45053312140054663 0.8040307526116346 2.08534335547257
Ni 4.918430093274415 3.5364504694846204 7.978674430286111 0.16536898445853457 1.4466131959753796 2.1029428137218877
Ni 4.131074884707698 0.4153871897958484 4.9155454406819565 -0.22173167951897943 0.2721515267324281 -0.4427707038463084
Ni 2.6401205272465655 9.042100819832285 12.517011415451556 -2.130559289887576 1.6137423576581302 0.9442733743161866
Ni 5.649020089359118 4.562121219502875 12.026778207426116 -0.18937691733735773 0.21343370117624533 -0.3443776711876908
Ni 1.4442005317506281 6.2018267843049095 5.160770601900634 0.05126548304319559 -0.5327004362289214 1.5822311744237267
Ni 8.886446487599814 7.5185793005843164 6.57349789447829 0.4539786567469859 -0.17884053658240812 -0.44215621019076107
Ni 5.48165642431326 9.107170194650259 9.471929829377766 -0.40362745798794364 -0.480297754257489 1.362970839263375
Ni 2.8112512201230375 6.908719762952695 13.549488795067196 0.0019913193984159253 -0.6929179583935033 0.8383866043836852
Ni 8.474235291957708 1.723767811465493 4.693011519026211 0.029088175615207965 0.015032983073722498 0.6409904162862768
Ni 0.8221491848347042 7.617152954949944 12.376799113806502 -0.8458191494023304 -0.9489620380411076 -1.1126009271824129
Ni 7.554356786581479 3.691223354318302 3.1556763272801662 1.0811187974137317 -0.10217641096044984 -0.3953497913601836
Ni 8.82733384151892 7.596341517944851 9.07074043757799 0.7286791751535128 0.43012601849910437 0.864557349241782
Ni 0.9887149080248161 3.981479343542693 10.600159303843544 -0.7002319755564135 0.12858395441970116 1.095757630372829
Ni 2.411556577543735 5.378619862591658 9.467706304578517 1.1746953825203124 1.1294125994231128 -0.7067638631376603
Ni 4.482586828951091 1.57773517347033 1.6368895723227452 0.4459257045355224 -0.1388979347511995 -1.5105488182870759
Ni 5.9040181826319476 7.248086289880142 11.27505110271845 -1.058641956467454 -0.11900839491612408 1.5783979167205655
Ni 7.170268402157578 0.6512792148204006 12.013402475109332 -0.3725114533094294 -0.8862700583285252 -0.906384055469581
Ni 4.840074058718905 4.953094172031003 9.938914166380622 -0.17253207786587704 0.8911505263492782 -0.2869112015401059
P 0.18722221102089082 8.325808828395306 4.654526597755714 -1.3825857852808254 -0.45563444718285395 -1.998686123193642
Ni 4.378316240871184 3.8773572097615303 0.4762580914774843 1.1952068722101028 0.2389336452195627 0.18929104249177078
P 5.938858550868293 4.535260269823989 6.341893415169322 -1.7429606032277207 1.4066855065425066 -0.44606043034117376
Ni 3.773290746342396 7.599152871227304 9.012821920762613 -0.4151822527050785 -0.32964293608067746 0.5485024362581844
P 3.4670388064284023 0.5841157065507782 10.306412782919947 0.7380657585747353 0.17573001597788446 1.0683383578196115
P 3.621950867167156 5.603713693061361 3.7064482704938064 0.05582713427194901 -1.0612899356132626 0.034292602634282875
P 2.1916586475300517 3.1601466573510777 13.539032045399459 -0.023214233332934212 2.563126570838321 1.5455826699627577
Ni 8.377053396642799 1.562741289297245 2.463265993314168 1.0796455553023148 -0.6839728333850736 -1.0036123783961362
Ni 1.357512499678145 1.3454413095115711 0.9380660126510315 0.3475234159055241 0.9093192268385049 1.511442790856255
Ni 5.909696559558883 1.8877170276402522 3.8653055042216664 0.8060202722378377 0.06695358320241372 -0.7832590672819221
Ni 6.142064650667013 1.492309002937166 8.09794632525404 0.10553838545414726 0.1777439610841197 -0.12038779176215396
Ni 8.975834532230692 4.402996768037277 4.918831847720388 0.043854278180788984 -0.8646589078166528 0.8251847609814305
Ni 7.2137283981147124 5.87347371066549 2.0362873063045606 -0.703774441492033 0.41074581420027967 -0.060690633011837414
Ni 0.9230350149032607 2.0592374130509254 12.366397106661424 0.5850136438103409 -0.8745478847955906 -2.8996708620245224
Ni 1.5465968843088986 6.855851475812696 1.9063146399153337 1.1111839922302282 -1.0114740405324 0.323295653706411
Ni 8.987683040949152 0.12863472202180204 13.456385681610264 -0.751403613334222 0.9183386567282958 -1.9165828288339828
Ni 1.0680544523095001 1.6443354832440944 10.03933793244434 0.0914669949627457 -0.6708332106793221 0.5799377719493303
Ni 4.67576298519096 8.776655255285387 7.091298137941018 -1.072677351514598 0.9741951015762834 1.187416943852039
Ni 4.276393086390159 4.249235228113785 5.224622651468911 0.22266910373158424 1.2128531245369565 -1.7225876959983237
Ni 4.690497074341244 9.259901832876217 11.988469575635374 2.93187778577437 0.32437937368889297 -1.1153895456711436
Ni 7.276506009695835 5.673700616525211 7.396668630456223 2.1266033905636212 0.1515801582045583 -1.1854793605096938
Ni 2.1485326737450894 3.659843826921413 5.023722232497549 -0.46196707426910116 -0.000906828084985535 0.17734955385917844
Ni 7.072668979127454 7.905748111707143 13.396729321660223 -0.6859983484555346 -1.0886343890644863 -0.1414016750096597
Ni 7.308117496934511 4.5573614035494145 13.483396013427262 1.245883058408732 0.8969743321199068 1.499476105412682
Ni 3.9984866391424854 6.888771216559049 5.720804237677129 -0.6928570232485809 -0.5668169182966561 -0.5039112799113709
Ni 1.7958052599307353 8.609022516823057 10.1669882168976 -1.8298147820088033 -0.25654724453626787 -0.6681988583802686
Ni 0.3350594965851536 4.641906126683789 1.8601704046690444 -1.8033776708631972 0.214100902446599 0.21541396483106773
Ni 1.1043700851396079 2.9186022349018694 3.1301728065954144 -0.42995632569045955 -1.1624810998423076 0.15918728112785485
Ni 4.863613343463408 7.880343869834675 3.5876375116913497 1.0956923243525323 0.6300783973594634 -0.222820541707784
Ni 1.617901339674095 0.4100938662062785 3.1940795986863533 -0.057253839416146556 0.2729526824774848 0.35980866103078035
Ni 0.5270415235595052 2.771159281068644 6.379875447502825 -0.3201889897566292 -1.0745683978897236 1.2262925378713136
Ni 5.491677089478441 4.471053785617461 2.9541236372337 -1.9756325838082878 -0.47703219613233977 -0.569632019147948
P 5.976398931663034 7.830787969235389 5.7471224013262345 0.24856062678636545 -0.7694985231627199 -1.001464478815198
Ni 1.3342979587121435 0.6666581523308514 7.936033716490167 -0.7933020533402209 -0.41796470054622215 -0.9414796136211334
P 6.528880882830324 2.17218329921365 1.5500336013248086 0.3194541684731337 0.8253979054335011 0.41039331595686734
Ni 8.747994297234236 2.681390822297235 0.2183493661099164 -2.140158246429921 0.6353658710106477 2.186405707433235
P 2.4125122520918962 8.85186591438627 1.2552005805022848 -0.4653940976727792 -1.0524743942041614 0.7354023528099592
P 0.7981988672505558 6.292550917624479 10.468814363030306 0.9664702221282001 0.7220351874744338 0.5135876266588704
P 0.9044772997209667 5.203276778988343 7.186805283198228 -1.2653249691834274 0.0977227460644704 -0.31470688359613547
Ni 8.237942440326547 6.1303367610662844 11.437751447105029 -1.2849599698055354 0.01441463276343324 1.9966626650057098
Ni 4.3100365418428845 6.443742342500976 1.8415523799278857 0.3337207056944769 -0.6202601257174608 -0.713517636921726
Ni 2.0092918199174377 8.79462750382701 5.435151259553151 0.5719442122208923 0.5026370411846376 2.3879981930001777
Ni 0.7807861058473203 4.932709541134797 13.06853026935575 0.18038679802360547 -0.671654678139353 -0.7161795000246053
Ni 3.1731828004594833 4.867259752176294 12.206344815828679 -0.06935782176853217 -0.738483048617812 -0.0750453590716127
Ni 8.102069643401638 3.323529891511877 11.57576384161058 -0.3840382230021064 -0.027935550068003506 -0.7949668426371534
Ni 7.243966683090012 3.170900315616304 6.768545502721694 2.6942065522069987 -2.1549431180485787 0.09525808657406173
Ni 6.701561067449931 -0.042423599384032305 1.7489781349102265 -0.38517207949623344 -0.15103251323120442 0.12313372993840728
Ni 5.4024282207526335 2.2486372630665086 10.809642236961007 0.43146479191518594 -0.3564698264655345 -1.6193548187489015
Ni 4.93628172269831 2.3235138999952185 6.126746950554795 -1.0814463559564793 -1.6591824922688005 -0.8385892073127944
Ni 4.956332331422343 6.0456899756015225 7.769476343854359 0.028064619446700054 0.3106203722315876 -0.24264091886782083
Ni 6.619781305629652 0.6493938452263592 5.8309777398108205 0.5640992622551768 -0.5375834753528355 -0.12909843216227443
Ni 8.534906708175408 2.8203254891337286 9.008897160239586 -0.38612004523179955 0.1695925356215789 -0.6335128769623088
Ni 6.6250328764477 5.75218654859212 4.722072375844601 0.1550755729523265 0.24250285062805976 -0.09039715893733463
Ni 9.23074911996048 8.498108598874383 1.7757982596569586 -0.6814847768558974 1.0560019477414457 3.2019518611524793
Ni 8.52617573973056 5.151243547278775 9.360425805591587 0.5330503633691722 -0.7184893791047046 -1.334985666904359
Ni 7.094881453576938 8.02397340386893 3.8922481037648615 2.031523995659269 0.6326459009763234 0.0967837791899688
Ni 1.656777809157527 7.357237313031238 7.901323245765222 0.3253214258871881 -0.7735840060860032 -0.393942883710328
Ni 6.672130002724049 6.52580973452507 9.347823891307005 -0.800466432299144 -0.23197495451354241 1.625712642646129
Ni 8.880638213161477 6.261570361155463 3.686960860265632 0.2730678678991104 1.6631180798777812 -1.1248152098604176
Ni 3.5591361420113485 1.7009244062463502 8.563504573149592 0.19613480488648158 -0.45594272245189216 -1.3091234544256165
Ni 3.6511221368702373 2.313873648970568 3.459498255891604 -1.7240149153631534 1.095365794251049 1.607925236755721
Ni 4.389979181716214 8.712792071644705 0.6926710568281663 1.5355347988084522 -0.7539117244680565 0.20034858585751303
Ni 3.0451595245806313 7.044991530805479 11.315940055789223 0.912540304878964 -0.75613829980573 -1.24405217584758
Ni 1.7620782989349657 3.3061050681968687 8.378764332435818 -0.6324463833710076 -0.041321227346290124 -0.31623360465330697
P 8.270528158900728 1.0993783093443605 7.263708321304785 0.7015946602318949 0.20817913764552537 0.4107275593678346
Ni 6.896797027084864 8.032713650707448 7.745603036937683 -0.24907664719083555 1.66923010631279 -0.9450624458763853
P 8.99173769898358 -0.0019744421732874207 11.118543158268205 1.8073945053320746 0.008696756443049538 0.3392953715687769
Ni 2.6062729471330672 4.330847978847977 1.8502295336894383 0.23002940075139738 0.296914849720037 0.8386249456467363
P 4.9477498172762395 6.311673686981366 13.285645609107362 0.5956263863291807 -0.1410185806386281 -0.770250570837396
P 6.706255934647691 3.7986485962465055 9.874708610013464 0.00814396926337307 0.1902428648820788 0.08158367441076272
P 2.643043221253077 1.5935084427118178 6.382130097164991 0.1938552648236855 0.16795654268005267 -0.43000131999578195
Ni 7.772519656978599 0.6283764278817603 9.529631231781229 0.3572964361318879 -0.6232786008288105 -0.39080768051545595
