# total energy = -340872.02990129736 ev
CRYSTAL
PRIMVEC
9.22235496694984 0.00000000000000 0.00000000000000

0.00000000000000 9.22235496694984 0.00000000000000

0.00000000000000 0.00000000000000 13.49784870405757

PRIMCOORD
 96 1
Ni 3.378886374871991 6.632201165923203 2.2923398808664683 1.1416340811899692 -1.1190145440182406 1.2574926176232022
Ni 0.611547262292392 5.8989317307300375 6.469761374064798 0.40862953918822525 0.6607740266711072 0.3448816074073028
Ni 8.323110707782488 2.9454633633542797 9.799343195365793 -1.4064088558423522 -0.1968356876082481 -0.10549879046546348
Ni 0.9776433943649491 0.39181635755124183 7.644614682594344 1.4900833513438725 0.8668715991972554 -0.7957320029379521
Ni 6.100264959754084 9.124597901900616 11.888486931525799 -0.3714161633627216 -0.08189477789327831 -0.5872224785362016
Ni 6.212141346602635 6.668537244085209 11.039499076447967 1.1557193556384417 0.20105306812370538 1.2788823961528877
Ni 8.162300506028453 1.7777380128986966 2.7354601985231004 0.03657831334466604 1.5947976982348275 -0.38609022043512864
Ni 7.042798849153868 8.514373125295645 9.507168848701246 -0.8806431990600511 -0.027428271414281793 -0.45199890731279574
Ni 6.932176702566746 6.327872677784111 8.584699114542392 1.0486449931557424 -0.2646063673953185 -1.1603332002613693
Ni 0.8732721599042763 2.826098424356605 8.206624065737696 -3.984739131004305 0.2151357714690166 0.9334582859785536
Ni 1.7945503658147721 3.654339669933612 13.017892475288248 2.5482275422393017 0.48671214242426497 1.4672175024892924
Ni 8.36867836316281 7.344950861545186 4.7928430667688575 1.708218828871161 -0.6825222169814762 0.50312169413054
Ni 2.454474412778894 4.257168117938096 7.521230641347176 1.0509006219591386 1.5093488844417038 -1.034920187370482
Ni 4.727434437135302 5.6038255974543985 6.923937450731738 0.4158715654626193 -1.345640575515044 -0.6425618745384546
Ni 8.226718654749675 4.92137133755886 4.8007254134706505 -0.2411023707361073 -0.09705657323538124 1.3346393393085336
Ni 2.6242395211053413 8.174667683900346 0.9397321379922655 0.08103242989298304 1.68120296240395 -0.8829163113649439
Ni 0.8861299670549028 2.527552352716897 1.5234214329486244 -1.306197539028073 1.6928647150125944 -1.0217162870856984
Ni 0.2143754832719428 7.695123675710504 8.386267238358387 -1.0407812741369495 -1.9495130039031003 0.8000707395226222
Ni 3.3631253704103496 0.30539643683228074 6.39185184241383 0.3388713966574809 0.28525978197961194 -0.02739124752875928
Ni 0.42797444426438286 5.142311293022608 8.848933414912624 -0.3454649907145986 -0.0586661463826409 -0.26706639890003686
Ni 6.404916230313399 8.383996694591007 4.673481816713128 -2.224477574604292 0.3240489869326677 -0.7519810831042469
Ni 3.6979152966634286 4.830660255121934 11.760013994864975 -1.2229691299250358 0.34319470662318313 -0.17392844399277144
Ni 4.014011509608288 7.536766620350148 5.195119419206228 -0.8967097656046105 -1.139785972237637 -1.2418844787723
Ni 0.39206905007450044 1.2939886108911214 12.717969506067424 -0.38300181131779204 1.2012055129956989 0.6115098903286565
P 2.4109356754685316 1.4339378459440242 2.1645152757525477 1.6154166600367597 -1.9851117269433165 1.404685445393342
P 5.433350367803465 5.465739278083913 12.935311820898942 0.23428971868964812 0.055561796425704316 -0.9194164631735068
P 2.656914324386556 2.010003020134766 8.213751101576173 1.9655708286969114 -2.2325102151007807 0.4725404789095733
P 9.071716919113577 3.811341039129039 -0.10400234026613465 -2.6617728571583252 0.47991286011424444 0.20956110559471652
P 2.250439033779855 6.1576372293596275 13.56520326925023 0.026592662886863877 0.5904373859290735 -1.9922097714406786
P 0.225389741685365 5.858178144588438 3.2700026421766304 0.4602338936280783 1.1142050384447393 -1.040656318523311
P 7.4656069302237436 1.8654979417793174 12.081451795746748 0.1460908529552129 0.5166845204166391 -1.3724322417865913
P 8.26267661636228 0.22312196462444184 4.155528544987978 1.3508650571387768 -0.25043753209410413 0.794072098737026
Ni 4.282335924360459 2.656148868932889 7.076827494129038 1.0604283589439156 0.6091025664387446 -0.5698891294640765
Ni 1.2490480756415139 7.927471684140345 3.1087165669116428 0.048444982875264955 -1.5109285702239978 1.051757313532479
Ni 5.491866209412076 5.606417079171028 4.203985564147019 0.27517334427788737 1.298365444578164 0.4939302574392591
Ni 8.529811347337064 2.1080735417527277 5.331731084034047 -0.4370826523225957 0.16240913049926223 -0.4441747832826866
Ni 7.334769381775932 6.311779668547384 2.655094753771996 -0.08311579478457298 2.1557697277149326 0.7117034665311227
Ni 1.8842193221521275 4.9068553510037844 1.658979904851037 -1.7299636767474207 -0.5832053869570085 1.795276896132934
Ni 2.795314203822398 1.4048136492852388 -0.08185208835509272 0.06756164910005784 -0.4318203754823918 0.02778102676801022
Ni 8.5509489846841 9.033232032268385 11.268976165808816 -0.8474008920671534 -0.977850953161316 0.6467877396943442
Ni 4.307134836588284 3.037926693215262 9.603868006151012 -0.9500048774833251 0.23501322711923398 -0.8718680239705823
Ni 5.826628468600564 4.2173828790571575 10.957229215417561 1.317154552260209 -0.2705844393556243 0.02017107563123623
Ni 3.5125828533274728 9.043367400263321 3.304705441292319 -1.0291362336988534 -0.8970902888724808 2.0961021366509707
Ni 2.0880886987636247 5.887929461377938 4.289737786373866 0.634462642470088 0.38364227311526833 0.5694183604752452
Ni 2.149979922252259 8.248723193453873 9.780379267060075 0.19731185591371825 -0.7434277942175971 -1.3767277838381515
Ni 3.8117283780333047 4.205790378993797 0.6519420988298035 0.7803840597269722 -0.6261492375083861 -1.0033328994825044
Ni 6.18945435363854 1.6566853829610098 10.207180627785828 1.8724292742452202 0.33829521243903676 0.10126161245566431
Ni 4.0071131881704245 0.6993044244665537 10.327999932145469 -1.6567576848773917 -0.22139152257074132 1.1981199320918399
Ni 5.800851986757213 7.6455719630291705 0.26984794777561394 -1.8791125998026668 -0.47561294718730995 1.4746276789104344
Ni 0.9952580921541447 3.6725445984340688 3.6787032870118828 -0.030345187950760643 -0.4474503687101649 0.9175449571824069
Ni 5.509324127168593 7.903078555526512 6.903096773211305 0.5977251778397384 0.3502768102809451 1.4908418267764518
Ni 1.0885053221785201 3.426372280063912 11.006834417757101 -1.8051694726562975 0.6702133177071361 -2.546230052193299
Ni 7.762391532084532 4.187271890427984 7.26424511189962 0.8808512013057991 0.9778383547558257 0.18846366149446897
Ni 1.491217892000932 5.8794910066778785 10.831037889349957 1.3325238356274276 -0.0686800789752172 0.35887817879671097
Ni 8.385444604304567 4.451907363234773 1.9974928957624918 0.3847661023070664 -1.7432920184252105 -0.910318871747613
Ni 4.860411571911434 2.2657020310788702 12.07506715947478 0.17949693921948442 -0.03675983322785282 1.520684364059181
P 5.350791847065832 2.7550125130691074 1.4897441596937522 -0.47185039482108415 -0.9649761540811767 0.012246421467520845
P 5.259748759853822 7.598547175580422 2.747082210122024 0.8056212370272061 0.11315065058376643 0.45190429071646043
P 7.084714452008262 3.595556380033961 3.696345651865669 -1.1331242439467453 -1.1985711606966456 -0.6280068595424152
P 4.719171207177648 8.231256053342493 9.093284318197249 -0.6343783102863978 -2.750147843459309 1.081245552799583
P 0.5261067556599295 3.720740624950475 6.082251856234788 -0.31930350182788236 1.5298297780038748 0.4000531103731239
P 7.719904143228603 8.424962394894466 -0.05682446172665336 2.249367395867436 -0.3281437258273316 -0.09600062116704113
P 6.833322280785391 6.219759011719848 6.259181812054652 0.6474824517685236 0.026230908672070955 -0.5958264181551287
P 1.9222246465444184 7.834676349504279 6.05362290003217 -2.2243608465207694 0.8390975144077806 -1.892995014211714
Ni 5.96837606285184 1.6530794422093995 3.8156930683891033 -0.28050915466850396 0.15479969358312048 0.11242714215418056
Ni 4.32522909683038 4.034236133823841 2.9386840102941556 -1.4146731527336733 -0.8366469959847592 1.0259128416655492
Ni 3.8427708245036882 2.47286378837662 4.696320056296984 -0.41215632139456115 -0.6634616008055992 0.1188818966405888
Ni 3.8604039670026107 7.39429046006466 11.192631667778176 0.28475713131158054 0.6518587264593484 0.3124173162310103
Ni 6.77504622040323 3.6029895980539046 13.52740913678431 0.5821275805117975 -0.3497870151287202 -1.1969300255487967
Ni 1.3985055585586368 0.779114683454878 4.189043504797253 -0.3877552668423774 0.5294873286082623 -0.18739742501348372
Ni 5.744780069187417 5.115833912209634 1.5576114691339045 0.37346404703068586 0.8893003605144169 0.23973660073683228
Ni 0.06993311692956578 6.833322280785391 12.183306249565184 0.0016917858801261188 1.8606147981087955 1.454403895664392
Ni 0.4859351001102137 7.254857676884111 0.9686552873150276 -1.4609555807399808 -1.674013643744362 0.18770775716505095
Ni 4.755368950016702 5.932685549530277 9.399753314900149 0.5241191223178134 0.15420422609096668 -0.25501743815530276
Ni 5.127786084112669 0.7917926546856671 8.308371540239717 0.7389183363830178 1.1687507349011033 -1.6902313911548053
Ni 1.8245599085404487 8.616602928957022 12.017904237324638 0.18962451457178955 -0.01639412508730725 0.9077143442452302
Ni 6.625238288001297 1.1905967905169472 0.4409475308508025 0.36398516100597317 -0.13260438843300387 1.142720886496245
Ni 7.225392253095378 8.813352647613934 2.342659815707928 -0.6522392497272186 -0.5778736903314499 -0.7655320823158042
Ni 7.090718205024371 1.909193459122359 7.321462445943457 -0.8954784643006708 1.2084120580464672 0.7270673505817027
Ni 7.751038813247622 9.022995218369953 6.737113752614361 0.6332634799556642 -0.9242156843343632 -0.35178707627788447
Ni 0.9789160793361057 1.0215786929344401 10.36848053658311 0.9103204144095096 1.190692015058885 -1.5123259647921568
Ni 0.4176988964755233 0.20326254566148166 1.5981317296974589 -0.1269235359981427 1.2537663178115503 -0.7494624304474512
Ni 5.927742367323466 3.7993888672260043 5.726867489336132 0.4523223520904855 -0.8518213897323523 -1.0346484217663343
Ni 7.488838042124782 6.049754122166951 0.0649807123678914 0.7939795390232197 0.04615515839982373 0.9884086740725042
Ni 4.513374358399689 0.5124733484652867 1.5404016327232146 1.4540850788723925 1.3147413148330263 -1.8443032054329656
Ni 3.116833161426968 7.196360279985227 7.504669136483386 0.5494943678578086 -0.7992896383822236 3.2623933542679877
Ni 1.8902415198779625 2.1718000138591895 6.051287799780743 0.1376702329916855 0.1529785812139817 -0.23851018452889894
Ni 7.993402299059172 5.009573939472926 11.573595158126107 0.9602877474665719 -2.145281940809731 -0.3806122280396929
P 5.626254364482317 0.791706886785437 6.039329172229304 -0.3836602708373973 0.666616087274181 -0.22585547187936586
P 3.5605483209722926 4.600553278923913 5.266766049669423 1.101084441902381 -0.6499995617634226 -0.02255140293795471
P 2.872210198673871 2.495541558985851 11.401052276514788 0.4517852486400929 -0.5725666762962397 -0.23543128849325903
P 6.148230427398905 4.20189854524142 8.739357083367016 -0.0004350306548895734 -1.150958958135321 0.206924696413134
P 8.512371874290276 6.578231945262275 10.221893972734982 -0.2829607015327901 0.9059770498391494 -1.354446603842448
P 4.143189034180677 8.823986022771496 12.94416712603883 -0.8978875879627956 0.753081258146961 -0.8245815801797929
P 2.8059475789799597 5.536170402176105 9.235970748173624 -2.340865244068117 -0.16229728751174632 -0.5087698935552528
P 8.366492665060171 0.7657856139707291 8.719880392130891 0.6756535148861009 0.8043775944280921 0.4620699183955526
