# total energy = -340876.3527794267 ev
CRYSTAL
PRIMVEC
9.18588869980356 0.00000000000000 0.00000000000000
0.00000000000000 9.18588869980356 0.00000000000000
0.00000000000000 0.00000000000000 13.44447663602048
PRIMCOORD
 96 1
Ni 6.305010308452464 7.1213326824745 4.755755058325189 -0.6265030213033792 0.7599178214528202 1.2476774313049934
Ni 6.629198693612148 8.107520510944367 2.3825898900825457 0.45406633136478575 0.8785942869508223 -0.4958827531799395
Ni 6.964272356920258 0.8484426711541869 10.326056858380353 -0.22641005883125523 1.4843729312226566 0.8239506314640132
Ni 2.620035927937943 8.86475006274799 5.210299471903851 -0.16379958308888565 -1.2584452113444584 -0.5107164757586624
Ni 4.308834013805917 5.444356835405701 7.0319585780482505 -0.2865126805501066 1.1679876314828337 0.4526843634155946
Ni 4.164826836141054 0.12423638934515434 11.925882263159705 0.2684895044998086 0.7402771644037573 -0.2054781937745945
Ni 1.7988725905536962 0.017756322920595896 12.347595391818295 -0.8573317780276202 0.6615186181466155 0.33021063565868936
Ni 1.0106957796091074 7.1915312441709265 9.177912625661635 0.9598604301211662 -1.3861986994430642 -0.3346115929398624
Ni 6.467563795468949 8.661227511983002 8.648844933971123 1.4870972721323552 -0.512221342438963 -1.2064446499074515
Ni 1.605206498399054 1.3500408811779918 1.4746171484062616 -0.004736229133404746 0.323345790218056 -1.592414799824948
Ni 2.5335599714069086 8.737470388465644 7.638963024103745 0.8569378850233113 0.8997544659682053 1.72671148835871
Ni 2.550691653893671 4.077496591957864 6.264252520144815 2.578830097616507 -0.6344099348552816 0.7048843867267602
Ni 3.4424761038560563 3.997946795531397 0.14896204604736227 0.5489068707854547 -1.215012079861488 -0.6101801157736394
Ni 7.872527105380641 6.297661597466185 9.090187388262935 -0.551004890965064 0.319474737298424 1.7324638174614553
Ni 8.165272193407786 2.8590251951004593 1.2683737373986035 -0.6714001389263857 1.9376877291333983 -0.1999580352873137
Ni 6.929715043507283 9.073949492749879 6.156158493069896 0.1927255220946165 -0.37341082519524726 0.030956339172198297
Ni 7.840569398479061 2.1323570951110233 6.670544378798699 -0.3170861824615894 0.4031839426926217 0.5684575392238725
Ni 0.9559846263162626 6.234710701979974 3.0345261922858935 0.31145083855268296 -1.7616628076229144 -1.710935713581692
Ni 5.872327391469106 7.011892004111345 10.442082900376088 0.11295293275066354 1.3535076369679462 0.27921743244027397
Ni 0.6331879032996045 0.26152408940193966 8.88818418349436 -1.5364771081170634 0.7730990960297847 -0.7650597706650759
Ni 4.877523199367827 5.293065247975688 11.61509976401674 -0.8712630433967317 -1.280744646172607 1.7152232852134524
Ni 6.172017011378284 1.8655897004203736 4.641961187291536 -0.6591886844618583 0.31847406394805156 0.7945850338177025
Ni 0.8516770225770228 8.557923007293388 2.512893558935746 1.392252618946628 -0.7294888155390018 0.6689596478056931
Ni 3.082756701077714 7.340627404193789 12.105447097520553 0.6391217385086542 -2.1840562333644518 0.4257654275375635
P 6.4891047045474775 6.041990756364815 3.026297473159008 -0.34162093437816005 -2.2644181195529707 -0.920044840786125
P 6.1553078797732335 1.6663385879161599 8.00437124777434 -0.7919244562664038 -0.08779031744210687 0.3318941940086994
P 8.282263672309343 1.184823486428981 4.7716328669999175 0.13470420838482608 -0.16469535543027766 -0.3612073411505199
P 6.201466970655797 8.672103604242695 11.866834451796084 1.1754299466934917 -0.8496583206427625 0.7353447600991464
P 1.1592316004192655 3.677745086081768 2.9657174555547465 -0.08632993084649648 0.876204189452091 -0.7210463411986034
P 1.7276635810966554 5.103753267080417 8.191155272090331 0.914844013311476 -0.16934288150461804 -0.028152551174816035
P 4.537553457365109 7.64326569438621 5.90669639416306 -0.2903793625943644 -0.417752584535416 1.8502738211941039
P -0.15067062135167208 1.6100566476499978 13.265396115849853 1.9071378813709994 -0.676641332720667 -0.229356800164405
Ni 1.7059481401322019 2.458024408356697 12.50583702266358 0.664896533479913 1.266300188612503 0.15005266581643834
Ni 5.216666211384588 2.2873597815891067 11.786410158762248 -0.4182968870746603 0.45035442973083734 0.08060562676820957
Ni 9.056386073492671 5.772430851499381 7.271525637612063 -0.24129854590731348 -0.47201417409245805 -1.5430473051354132
Ni 1.3477811525497112 4.655702358247004 0.87420725187208 -0.30113942932434584 0.04579160441281791 1.494996986595406
Ni 0.8052414364436009 3.117598777041408 7.277979643035763 -1.1641510313455627 -0.44122932750111754 1.3962450279354728
Ni 3.1147511515342248 6.153590118580191 4.651587080094688 0.7577758354091529 0.2016210248120334 -0.3469629154163637
Ni 4.9594796986423 3.3433695503173553 9.753416822074445 0.004575278075508249 -0.2145739854282756 -1.1530896313250787
Ni 0.9313756304009618 6.96441014525125 13.126178460570296 -0.6913169324549707 -0.7072577720549432 0.1498444064603742
Ni 3.2989925218489646 4.688220404361288 2.5827246850828596 -0.34411876109934925 0.7381421203386256 0.2804767587686718
Ni 8.298954432136927 6.110223537872414 4.74651864720431 -0.6360448993555433 -1.472581080794051 0.1693302830991277
Ni 8.192453238168284 5.291191326674188 1.8771584086905229 -0.3327938230048333 0.13843770728532934 -0.3735738331356728
Ni 3.416875031957608 1.8838053177776122 4.77315221299633 0.26652775278774743 1.21793876658998 0.29201252732241323
Ni 8.359985476877972 8.270533292397495 4.1873359378920245 0.5530260351601508 1.518444676095385 -0.4669269893775378
Ni 4.815619495197161 3.1451840009061516 6.8087001453407385 1.223757430154286 -0.3946468517558881 -0.5358677782133094
Ni 7.146309113939115 5.130925125952182 11.097998529578508 -0.2331430066797146 0.6063121481778009 -2.698812426410126
Ni 3.1567582207095404 2.2733053718278486 8.113594220574527 -0.38629822268087666 0.2411872171404298 0.15474235798262384
Ni 8.358552478235648 8.128464337255261 10.589205931499135 -0.3130379805341448 0.1710570359822473 -0.3825325849908573
Ni 0.3897039807801058 0.02957121300878547 6.377643130663095 -0.7260929024835754 -0.38838930088195045 -0.6699778046575622
Ni 8.359820130880781 0.6861417960778555 1.91673856606262 -1.4518595319759835 -0.6365897161154198 -0.08256043650173524
Ni 2.653343960483251 8.137337905771194 0.9724714594139788 0.4557195506974926 -0.1719432952419426 0.16052965408836223
Ni 3.402930852861144 6.10214914167624 10.051897579026383 -0.9207436666253627 -1.5987646533023756 -1.1909085019450651
Ni 5.703646916667812 3.7567988445166614 2.9455507554306513 -0.026510130475386598 0.17050681990573216 0.46522389064350195
Ni 5.549700607394007 2.6418340419009922 0.7021031963400528 -0.31121301151026404 0.2568673468798479 1.49564490459205
Ni 5.419830512488996 5.149407134082673 0.9307813033999465 0.7171796591543456 0.6561013037857861 0.5739432449287922
P 3.5900290345717996 1.7052408266997727 13.40181758659913 -0.07427788477796884 -0.07207573492032747 0.28313605076838977
P 3.4303415448399632 6.111656536514738 0.5810487988519571 -0.6631638670595225 0.030056967286380493 0.13395087515856932
P 8.476196155237236 7.499102356612888 1.2940473778180415 0.611376964295218 -0.21029901220200556 -0.16901789406503148
P 6.703457418128494 4.121515370765673 12.989717490499467 0.27528544437571945 -0.5171005249081353 -0.1439666075233585
P 3.08529200636798 3.5084307849579077 10.950566852594038 0.6890371352818585 -0.37711449929907953 -0.10706639206289947
P 5.558482317022609 5.289767513920596 9.00953344801078 0.31014291837453684 0.9116481320819977 -0.46649941492181596
P 1.1180420753411735 7.182749534542324 4.806844215690671 -1.2509185639501101 0.9093426238772725 0.6598507435258895
P 9.180790564601638 6.204342153829178 11.0432928878189 0.180675790018934 -0.46425689874454235 1.0757477629098051
Ni 1.0775047483631137 1.654755182224038 3.7705436898276226 -0.3385001293609912 -0.019082470552747782 0.5960465045857348
Ni 5.995317255713213 4.856818206163987 5.3167124813406605 1.2642854721753194 -0.5980841038410538 -0.07573544316010182
Ni 4.633867500729024 0.6641425111515569 6.606144868659319 -0.06095725640966276 -0.7143241919834215 0.3929787200248458
Ni 7.5518936591605685 4.064792507840335 8.44704381875467 -0.767205099142853 -1.3906094269162501 -0.27338719891174207
Ni 2.0080444628893863 6.7568090598888775 6.6558901305031855 0.5163860153396139 -0.7216929736436667 0.9326658719842452
Ni 7.546620959027913 3.078751653590192 11.010556217552775 0.6371479026117349 -2.638100196131734 -0.12101771203666901
Ni 2.4667969320965666 1.1361750196998162 10.0463851271978 0.1660611254295527 0.5889314908075083 1.577728915677999
Ni 4.566939115421491 7.478287132744255 8.534862752218446 -1.75117656337961 0.049437428695521306 -1.1382808484470204
Ni 4.449864963521338 7.015483686605887 2.5579457502260015 -0.6611625203587774 -0.9203867975065761 -0.5724134385478271
Ni 3.5116458460144044 2.4164031465081606 2.4143592862651015 0.08434143966155798 -0.2937770754220037 -0.14084811649903486
Ni 4.885441435455543 8.732932559431616 4.030560374888502 -0.16083253004076173 2.6554404871823944 0.6319072230380859
Ni 7.010514120801417 1.1933388052843317 13.036692288301508 -1.259297532042425 0.36550596852587375 -0.4836964955263928
Ni 0.4458508884818949 4.292657663747371 9.898536410864859 0.3024383506414275 0.2830026105143191 -0.27142261898620357
Ni 8.874781053244261 4.591924732774838 12.688842890943752 -0.6651081352700868 -0.3684845915382235 0.4869929068894775
Ni 4.564137419357972 0.43947220734580494 1.5191319652056448 -0.0704975917999302 -0.2555324301185083 -0.037578472474406245
Ni 6.434016929816586 6.557934568822711 7.245470782810213 0.3135982239129889 0.0981526345130374 -1.1654473815594832
Ni 4.5585523990084 0.6764332302761081 9.255943994680562 0.43492369699806394 0.2977093205968744 0.4144268625962927
Ni 8.018591922121661 3.3321260225083487 3.7769967766624486 1.1572103383616714 0.0621132243909769 0.3772127154398407
Ni 7.2080382862238555 6.5905812173792535 12.700217776961638 0.033516386589890666 1.5703393080821473 1.6418686835807013
Ni 0.3244759034770228 1.3635625093927446 10.986329354608761 -1.747691175934171 -0.2868901184941833 0.7318452315863202
Ni 0.8898370415510215 4.713793918593537 5.073501379716528 -0.7382254240810512 -0.5522230796428812 -1.37907622946567
Ni 1.8636606637864757 4.9845663607717094 11.905917652587734 0.7300973956572782 0.6787282971566827 -0.6315084449377705
Ni 5.165179305036974 7.575078842322277 0.35299716940364373 0.22387315134201444 0.20387151140910695 -1.5344711334306282
Ni 8.499610985617267 8.667179967881887 12.823570483810691 0.6831174273633138 0.17711661191276593 0.6387047055758936
P 2.0589894018017634 1.3727392122368602 6.5376723354557935 0.3991671082237448 1.3245719277702026 -0.35877636311152405
P 4.113468532235698 4.125667392472921 4.703604012222189 -0.41572424125147756 -1.1354894017448123 -0.7153955706707292
P 8.892693536273315 2.3078902429070225 9.182456884817777 -0.5693612819850646 0.1473056991989205 -0.23820679435586717
P 8.293810334446531 7.912292817705142 7.686731482692303 0.4916700006501726 0.4200187548617734 0.017202994141847793
P 2.827361436638331 8.156573156777778 10.07741505933736 0.23923754961322666 1.061476597702772 -0.7460960850783795
P 6.247166767101717 1.2152287781347093 2.6458188804333016 0.3234463203516623 0.6955973049978794 -1.2037663317443397
P 8.043072315594703 4.2139529690843265 5.963620428051647 0.27929867930017055 0.044990962888393486 0.5115281730266804
P 3.030672711962464 8.917495435852006 3.032334439234236 -0.9504751322515244 0.8476433470952627 -1.0772788548423513
