# total energy = -340868.49533886334 ev
CRYSTAL
PRIMVEC
9.27401268804379 0.00000000000000 0.00000000000000
0.00000000000000 9.27401268804379 0.00000000000000
0.00000000000000 0.00000000000000 13.57345500052082
PRIMCOORD
 96 1
Ni 7.047414925014968 8.398100670049288 11.486523076536319 -0.13377218348885994 1.8442163021461144 0.6442675443756518
Ni 1.1925823780018356 2.4066619172414287 6.71096023921126 1.6644229147321334 -1.5855635812310693 -0.8227337283377766
Ni 0.2021577091497069 3.7505127149797057 8.252076704445699 0.10642155939004899 1.2410414140457142 1.1444903196918417
Ni 4.547502810946249 3.179085153795194 10.318105993201103 -0.8473384142603343 1.7530753230642195 -2.1551238666008175
Ni 4.674575331774446 5.142931516774125 4.142564178999218 0.9475906116148777 -0.5310199632027048 0.8394608112844703
Ni 4.354352950247895 1.5023343992879086 0.14916136407068695 -0.8430508426285739 -0.45636515470129146 -0.1311635422214193
Ni 4.2810789765897725 1.344379416457238 6.450933618755475 -1.249708602802409 1.1385256174679748 1.0317836986240294
Ni 9.288109112527787 3.8305659918581902 5.516591686380092 -0.7308874956587412 0.6563059635974245 -0.9454787074781974
Ni 9.037543839740147 0.5239371973940409 12.440654824427341 -0.41320327460183676 2.330258157976232 -0.3009705078466494
Ni 0.32753123086713704 7.683714204429901 12.147549655782242 -0.11167046649381412 -1.983547982000623 -0.9585545668255491
Ni 6.3056237521231155 5.741383550713955 6.088373514846434 -0.8566938873333052 0.19928106382494712 -0.15598805746426683
Ni 2.588367646374903 8.850551923417061 4.763630892696715 0.9510919398999168 0.019771783310288532 0.6236431832570808
Ni 0.4337798837733055 8.635181528497107 8.052601039743774 -1.022419226689994 0.27147404104942924 1.1905380059795239
Ni 2.422937809377868 1.6219784360128078 11.316053741085186 0.3379815378533599 -0.35017833702986784 1.3189126726018963
Ni 3.7495203956300767 6.690448905514302 2.1358236528809953 0.8675501133215188 0.7987859592729276 0.7217695925178731
Ni 3.384226312802617 4.916042798188383 8.800403627611603 -0.8194272896723629 -0.8394176167513608 0.467863128038562
Ni 7.2934823016851285 8.965762982112777 3.0996068656987372 1.4394714427242759 0.0005188486179474936 -0.08616795134733547
Ni 0.5917367214064988 7.767393620240207 3.7217595662732585 0.007782986379528531 0.8024407824166955 -0.4807106734251914
Ni 1.2468168037647382 7.771307253563044 10.01642236288865 0.43127247339872177 0.1417505737086462 -1.2899242557893462
Ni 6.907052744111832 6.290024862907452 12.427909548892806 0.66807390276663 -0.04448651244814919 0.2481801035184952
Ni 2.8537064212556165 4.188422316569738 12.352752950674173 0.817165747331696 0.0171392307834479 -0.220027295233363
Ni 5.446256647319143 4.0100737800022985 7.959582693231819 -0.441628105601433 0.38030215299844183 -0.35446925109573785
Ni 6.077844728326492 3.150669579147873 1.1832740515418103 0.3486001939094706 0.6321892730548789 -1.4508521737573916
Ni 8.16456248441977 1.4039556734854335 1.0042077063980974 1.2488058884824815 -1.194131122647421 -0.4839294374728052
P 7.41672465530401 3.2171178795225646 7.467856923847744 1.1641608015375757 -0.11030726759770033 -2.269258735474724
P 3.9228331433484636 5.9083157777543525 6.233134359932084 0.44626971813850236 -0.2374784008302749 0.43375564483189166
P 4.074426153526373 5.081927061803473 0.7916436276949445 0.188205779847392 -0.5276361343321365 -1.2551549706289609
P 0.10805801276703411 0.7101547336639124 3.2295320728068027 -0.2816705219664568 0.1441213879336679 0.514026771078818
P 7.392037233727257 9.389845030896295 6.192821154503089 0.1560479641679248 0.3877167002949581 -0.8209095306448443
P 6.210750603088489 6.605165085521885 3.182391339291855 1.0946379149460888 -0.05475164181958312 -0.9936177290772693
P 2.1566438111979784 9.07176494628343 7.025199027799674 1.055652277711511 0.6824414843422119 -2.3039362322522514
P 5.096969510262335 2.5800952271237896 12.051341048931292 1.2970647234888695 -3.3017880540155264 3.5643840758490355
Ni 7.796439827745236 3.3632299482459804 12.663558499793124 -1.7907306715231484 0.2613436374836467 -0.18751389598668997
Ni 1.0528786519942483 2.5033249507104327 2.117553848032685 -1.343809692953892 1.7872136595088255 0.3135277756863697
Ni 2.378070136354454 6.620420836270854 13.248044798138501 -1.812882010809207 -1.6703472506363686 1.2103658393387282
Ni 5.02199839229597 7.526881377125447 4.616617389947281 -0.8833477424754077 0.49939205188477864 -0.8239069227102713
Ni 7.207150518267403 4.802371225586485 3.954802519629223 0.6557886576413738 -0.13877606446135457 -0.24435790155892753
Ni 6.727619148068631 1.5713516011565003 11.05454698821631 0.9817734281441737 0.20305132950065677 -0.35134407520319494
Ni 2.608334595531457 6.996500595767646 8.07491616889403 -0.5703249314499146 -0.11206667349096829 -1.4128322428701927
Ni 0.6216120256391622 7.3621007210113465 6.259045951173799 0.18092364436368197 -1.6790509490579535 -0.5341857625251962
Ni 6.208051865418002 5.613949343393838 1.2107056534508547 -0.3783694547521032 -0.31588162063052694 -0.3723615579951265
Ni 4.596126459078072 0.3802419363576656 11.140317693870928 -0.25840229546713567 -0.8073230502096613 0.15369103389997404
Ni 2.965782863688018 3.160184716089175 0.8450443197239065 0.7776260373658607 -0.1652345157631993 0.549491282534015
Ni 1.8034152187804944 5.739037225522775 10.908415444066407 -0.5874315092232141 -0.9745352585245217 -0.5959966251844058
Ni 5.871349563477518 0.910291635465169 4.805165485586889 -0.5292320180643466 -0.37707259031755064 -1.0407555631053365
Ni 0.5248914932919552 4.763105056181537 3.0307899825025943 -1.1413060084265894 -0.29964536127732266 -0.5515720763224436
Ni 1.4130813018969755 4.7636429489131125 0.8592270672135112 -1.4677147538406852 2.444465531959287 0.2896365708910689
Ni 5.135410292544694 6.500276002864834 8.116912607612349 0.6624917806931623 0.6152202493007082 0.43515021118657315
Ni 8.325086368744339 4.957080304002481 10.688783640350614 1.1471976913206758 0.11363684619156558 0.822240590751442
Ni 3.8729111334507715 7.089064515661547 10.202310671710746 1.962958844995361 -0.3824711356253026 -0.8654214970142903
Ni 5.701301268199032 1.0676243320494836 2.168182537691515 -0.5975058627400807 -0.21109168330663 0.19614791751260413
Ni 2.8506089010427558 4.545443980146084 2.936453798798281 -0.3265406430062699 -0.2466428409383623 -0.5313488072970333
Ni 7.943052693149774 5.536288761769598 7.816708182311726 -0.7123405858944893 0.016422150111765267 0.18385264508501883
Ni 6.4194808049772805 0.8446993264546897 13.315938917079617 0.28739611159632444 -0.8610953588351105 -0.5748451879177713
Ni 2.300567212944642 6.287455961413553 4.7493387118582735 0.9065496345131677 0.01691400214651926 -1.237621589730888
Ni 2.233989076393363 0.7182713495031211 2.2623554987738332 -0.3020969081416088 -4.420647046292509 -0.34615481769277157
P 4.204160315974602 -0.05348508554374376 3.3395719420693104 0.06500083035141709 0.0101604854727696 -0.4479633037908414
P 7.731206423022894 8.359539325602956 0.18560730623991267 -0.12020292944485751 -0.13725962781682813 -0.17276039182659925
P 8.584934928157947 3.6315735032134215 1.1961009383873424 -0.31924385223454055 0.8199656786743361 -0.4801468305019215
P 5.7238278448368725 2.9826986626947782 3.2975755033509917 -0.08149471424138223 0.7820956431014402 1.8950038171116268
P 6.140889466072082 5.531725947563827 10.289357481500963 -0.3528381432502182 -0.6672094978838057 -0.051998247444162066
P 5.784609723504804 8.424902566501885 9.541364776374559 -0.6427153693971834 0.2628611025694376 -0.17376055095633947
P 2.0828783148713486 1.3172065595001063 0.011005470768268955 -0.8193385866132985 -0.49349831210816303 0.015099060424967543
P 3.7827862788741826 2.601193605819174 8.457864262132274 -0.965056372499809 -1.1909858921502199 -1.9438324085785557
Ni 7.708976614788681 7.078213920903921 9.7901262537089 1.0530078981101283 -0.3499199411621587 -0.17410970676564205
Ni 5.663333460559954 1.4361364972537771 8.852607044612181 -0.14120575694876972 -0.8456607694475952 -0.4907094365091162
Ni 5.790415255400765 8.001914851206742 1.3316554711517143 0.11830776930467367 0.3574339901510166 -0.23325125012280473
Ni 6.017860414743308 3.2547147266571077 5.722052798822676 -0.02213385578456188 0.035857376018241474 -0.779736141730328
Ni 8.047719199504103 1.9388714470111648 5.020372657884849 -0.10686173225126112 -0.5918183254370001 1.5171737798027614
Ni 3.5444070586604934 2.2123806270042445 3.00182353150604 2.325824804795227 1.3305361157734377 1.4584986345590558
Ni 4.489558780138005 7.126253306241102 12.811440977524429 2.182208895743068 -0.30834597437511413 -0.5185323722586553
Ni 4.963868881235457 8.551363002497599 6.540627231745543 0.9818896420070639 -1.1126158395807484 1.7372357849288016
Ni 5.369987167586907 4.561868256484337 12.375054168805509 -0.16540009480678614 1.483983923314354 0.4556730137302733
Ni 0.637992714118132 8.452010505370723 0.7137753081881663 0.060283884491721985 0.7328898708007506 1.5362832469387024
Ni 0.7121968712413732 3.111069545288845 13.112514377806926 0.9916747464182857 -2.1269119229429756 -1.310760475808407
Ni 8.275080892733127 6.8874382074345855 1.9880635921161864 -0.316613613700545 -0.10319353937105454 -0.35330762668746896
Ni 3.3563671789120972 3.537117684746396 6.462796935690481 0.8780710674575006 0.8232127248567241 -0.6007485380470945
Ni 3.145429762021327 8.680549998201641 0.39659851240384064 0.21901145237433894 0.34068608126871647 0.07384079724055025
Ni 8.860113430421432 1.4635783005766962 8.257696756089393 -2.822264973140533 0.001486097627223247 -0.3018202574414544
Ni 7.778661545565434 7.556317093160236 4.965129219549612 -1.1160444056463232 -0.6642573572340174 0.607493827190728
Ni 3.4784039108912426 9.134160503146086 8.602923730424072 1.1039051991806277 1.0556569056972012 1.2417178712874486
Ni 1.718251960952051 1.8555444436801658 9.041984236979422 1.5745723723268883 0.2042265807556805 -0.48993604867820134
Ni 0.4778945069725149 0.37003403067414525 5.55531625344842 -0.6803411501697574 0.07857445527079371 0.03457670953360497
Ni 7.944888947647218 2.5311933586135664 2.876187555231652 -0.9131229168553112 0.6848845465660657 1.404722983499497
Ni 1.6606325205852734 5.086322943782203 6.645495911574844 -0.3964648788012333 0.7016882483869658 1.3143535924763041
Ni 9.22853285549959 2.213558426606141 10.69648014341844 -0.9763980227648733 0.10506864490658033 -0.012578093775326725
Ni 7.162227201168309 3.345664968356285 9.454807634450328 0.12566780921417067 0.03300807949490444 2.2487063652446695
Ni 7.322472865114477 8.089730476642604 7.815337483247472 -1.330664670931502 0.07075007413036848 -0.8781327739333715
P 2.6147058421968326 7.865679605916548 11.57960912334035 0.5710031884638618 1.5681831809710927 1.840858698527791
P 8.992073355896865 9.1902775534695 10.126408442877999 -1.2920474727799363 1.4510131248152882 0.8876916212664002
P 1.6493460472348198 6.998457412429064 2.0106495224347523 -0.7190894745825487 -0.8285588196599859 -0.6164749476434157
P -0.2960774896876806 5.759616259511811 12.842157434701123 0.6200590654502482 -1.52428133738182 -0.12537290368157117
P 9.248147392176838 5.810669698948334 4.70958194718608 -0.48407933278710824 1.2659847142546132 1.5699364162167737
P 2.1341450565979776 3.076329094039215 4.434746583389289 -0.6446817490949349 0.625927094195251 0.9092464646190406
P 0.6167162743805719 6.104804282993516 8.56251500266516 0.29237402442689003 -0.3986654859969779 -0.005827919535686737
P 1.6529536381414152 3.5221587024010534 10.628924525937713 -0.08202924658861357 0.9965873532285549 -0.33434214132855966
