# total energy = -340864.0395363891 ev
CRYSTAL
PRIMVEC
9.30825030498920 0.00000000000000 0.00000000000000

0.00000000000000 9.30825030498920 0.00000000000000

0.00000000000000 0.00000000000000 13.62356521371333

PRIMCOORD
 96 1
Ni 1.898976159765923 3.3250652755409233 12.91094353007306 -1.8572281410247498 0.08835801702011879 -0.3677104323763603
Ni 2.7926892033794983 5.904232523482598 3.3122291982686463 -0.018791164564574088 -0.25329711303008634 -0.4502965799097084
Ni 5.881902030824009 5.420315202792873 5.954301602269819 -0.5773926369299733 0.26912328142906555 -0.13739589628437626
Ni 1.9657349314822175 1.5475152419656109 5.509138251206923 -0.3416204201575278 0.5514664039825148 -2.891482155566143
Ni 0.6615159454408935 5.441258766145029 6.19226423072709 -0.6274497014873646 -0.2971105106706109 0.030126129961419085
Ni 0.9679742651351312 1.033830136564688 2.608218297373709 1.7382719395028 1.9719499927503783 0.37182805408915964
Ni 6.769695027196709 2.915809431139039 5.073320383524278 -1.121163472040443 0.3398769551038598 2.2365301348934516
Ni 7.687562980543105 8.189957178234621 0.28254728612134067 0.22184635071997275 0.48716439947033524 -2.2703010606963097
Ni 4.339152613052312 7.127318006747745 11.866752380011802 0.5656781767065225 1.1433042698035407 0.9793432214361264
Ni 1.1764418406173016 8.807466508359965 0.676195987113198 0.5587174291179733 0.14843055683198308 -3.24396240125631
Ni 0.354365091918478 0.8680585747447415 7.073137473768237 -0.4211019606236231 -0.18921288095566766 -0.3221204024513872
Ni 1.4094366558474414 3.0221654999664764 7.130029500083071 -0.019287644585018394 0.5962858742900504 0.85360007889933
Ni 5.712873512196544 0.8212241129641314 9.454018510492002 1.0295303838134784 1.7005697969663358 0.11433824313396437
Ni 1.0304326251764493 0.5856499815540439 11.525509128652228 -0.6678116502441789 -0.859608489876939 1.5073989598041846
Ni 8.973386071360933 2.8492368244303194 5.451960461605461 1.0660279645188804 -0.013347110730867334 -0.38053406650358984
Ni 4.551427262939385 8.209094941013303 4.105938123113234 -1.3517078647550462 0.3157114136012498 -0.6244592514004729
Ni 7.843373783632766 4.910790885311245 3.9920181700280364 1.293721003827617 1.3520300239811553 0.7692154447046623
Ni 3.5427014776461485 0.17522688255466654 6.164431631269632 1.3829683654312248 -1.2794986895806482 -0.3633786377702258
Ni 9.279850906830436 7.689238465611277 8.09126738441911 -0.9293424640379672 0.672606500529661 -0.6348717049830486
Ni 3.1301691291109495 3.4264786634172513 3.2325859463781055 -1.1778431841206747 -1.2213796739507288 0.7137284673809514
Ni 3.275545383526048 2.428233968050471 9.118279227581375 0.11724436103716582 0.7446087018995757 -0.49423210495039405
Ni -0.03984582739625502 2.985155896460622 11.556502809938305 1.0636332390344587 2.399262453060087 0.06612543087416353
Ni 6.740457812757099 7.510985470858484 7.375239532285225 -0.9798042202329448 -1.3469495241344542 0.6229042482085273
Ni 5.778012648346938 0.3282033234040027 11.734481211304926 -2.232493502930233 -0.8082720443864918 2.050770759704023
P -0.03041563893755762 8.768409089770788 10.024710133687417 0.8311152675332525 -0.23885882611756928 -0.6927102132580715
P 3.903991907846406 6.2370862487758165 5.128672825226468 1.0913654148424043 0.9538005970803317 -0.49289127465178334
P 6.135626319647595 3.788783692908791 1.4122049295100776 0.12384926794819316 -0.7577326408760433 0.2996916411342258
P 5.29794894331401 3.6163390463923286 11.02988389063613 0.3319808401852347 -0.3007267672669595 0.24989348666517605
P 3.2433388372156213 0.8264432489514888 3.360619999512581 -0.46218844625128785 0.6878878521687637 1.1736345453559658
P 4.232265973953287 2.8163414675918665 7.311059145923841 1.3508748273307896 -0.7269323676657352 -0.7758925996145218
P 8.538979334435703 0.9511821814518915 3.782310735595418 -0.955856708278412 0.995426243040918 1.0934652347942266
P 8.975005706926833 1.058506308318717 13.380139852788815 0.48034737654850174 -1.005581843417681 -0.6188383056692697
Ni 8.184241912502078 8.650212926461599 5.839877142014093 0.3370883366151291 -0.7805367832547525 -2.352967940868922
Ni 9.168673164306814 3.0058667535533097 0.5549448560297077 -0.09814466409323742 0.2637090523920297 0.32906392364875586
Ni 7.191163296095495 3.261210677942794 9.899781312879288 -0.0006602592918182178 0.5046517576218212 -0.14119521542580843
Ni 0.7363831340621046 6.390784079029505 9.904999518041608 1.9634612385530765 0.5399702304174572 -0.23640676503265093
Ni 3.865362668774652 6.736734512605605 7.282327369479797 0.5730464441461356 -0.16639074085482958 -0.6719462412378427
Ni 2.0026979937361777 8.223020083579891 2.6892922273474613 -0.7353221343913271 -1.0414158223971548 2.109599656916773
Ni 7.731609621335283 5.914983552670038 9.208808478289846 -2.253730815042454 2.3361439273330475 -1.42222448271837
Ni 4.123443218775485 8.916289263537767 8.334325349133703 1.616962664367641 -0.5957806525188578 -2.2935823998217533
Ni 7.259783717887537 8.446985895942657 10.463797058903076 -0.5173524930179413 -0.9746504439461472 -0.8280775091481932
Ni 5.777370379070805 5.785403399147654 10.718844050105478 0.511035806771294 -1.467993975644001 -0.11395643431451341
Ni 6.481381279965742 8.905091438332148 2.373415819920019 -0.9759439659465902 -0.9432279637708079 -0.0388766224605395
Ni 3.655052059717492 9.168784863311359 1.4725307693896275 1.1928733389809199 0.43839777158959337 1.8682890268246017
Ni 2.2037189689153593 7.661462646481129 11.522634740935276 -0.4371718696022922 -0.13492532325669665 0.7897251346222399
Ni 2.203207015144529 8.40035156154519 9.341065684621155 -2.2917882840358077 -0.02353947788283688 -0.6933640447919865
Ni 0.2515228876090137 4.443163002784307 8.775905954625822 -0.4337875265110916 -1.8028930179172948 0.6787761196754826
Ni 5.575325496349962 5.092553090456821 13.462998174360171 -0.005363835415074633 2.9739996546450844 -0.9185379172232954
Ni 0.1642617636085156 6.030061452102351 1.7670987300500676 1.4391071174063215 -0.7698494787442355 -0.7487605192844201
Ni 3.9210725472913865 4.524312329586127 1.336102536063608 0.22165994574077955 0.49540761331573385 0.9721410472607322
Ni 3.3272434061295475 6.015224100998646 9.96774922631978 0.350910330099886 -0.20618190470983846 0.03711001747841996
Ni 7.440819879503572 1.3539036340879027 1.226964231197967 -0.4942444462455681 0.30083063983467545 -0.8553111480531657
Ni 7.202444895554523 6.706007978105398 1.937747815068472 0.0740732249663305 -1.4212690607836362 -1.1046281933895814
Ni 3.2214551405752134 6.971209339645965 0.9539355619139216 -1.2444352702186117 -0.26498714777350496 -0.8608462189387819
Ni 7.338885229606035 2.903112977622443 3.0003450994286434 0.334564798862327 -1.0995968016132611 -1.5759247725897247
Ni 5.291079454534502 1.6372840086181402 2.631432142993239 -1.2062096510785096 0.9283376769225367 -1.2304045031571584
P 8.603401735306937 5.161759932022724 10.78340607473239 0.8301048239908672 -2.6745712944745743 3.4383503986550137
P 5.361999014170092 6.580011500978828 8.792063215633233 0.31388670168768523 -0.046111449646081874 0.35060359749274456
P 1.7757814660033526 4.1818152569005385 1.311353759956625 -0.6619330799762149 -0.39629724287511753 0.9702224900817807
P 5.925688040605584 0.09389790652053687 6.700777672217586 -2.1431929194911863 0.27708315970609054 -1.7003790211117682
P 6.562586456269835 7.127345931498882 12.198172634746696 0.5017651801026456 1.3971688253013228 1.3615824435562809
P 2.358254541703134 4.065061872400053 10.526888379970147 -0.6930318582635484 0.06464421834294673 -0.07569430550952126
P 9.098572730704552 7.151538074233216 3.5202062289558573 0.370863119072729 -0.7147306833932207 1.6619065760681828
P 4.013196301289737 9.088073024277339 10.35286040006426 -0.2249411875952126 0.25315518813558335 3.693577124607645
Ni 1.9252161175835798 7.5364063026428125 5.030051912463762 0.0017090122713067342 -0.10109114831607105 0.33662142428103964
Ni 9.150038047048584 7.473696619841268 11.820091051688237 -1.3771404458955379 -0.23402129551960987 1.01678902498741
Ni 3.2513346242909558 0.1167906175020001 12.855400269238105 -1.4373387126519892 -1.1423673598115682 -2.1476578972410754
Ni 2.669057021849128 1.8654199171505799 1.0722043295760648 -0.31755335190599504 1.39147280335781 0.17766631376864883
Ni 5.5861230667892965 4.350825159027247 3.6500525984390726 -1.645180521562754 0.4626934109121644 -0.8225817761409446
Ni 4.0871224257976575 3.172093488816776 12.960996784834638 2.010690860964002 0.6403651239974519 -1.263424923947237
Ni 5.337927878690681 4.3754082482774885 8.33620468488517 -0.3782486129035228 0.3750694438445928 0.8373892734674224
Ni 2.3390143881702867 4.938054750670562 8.022018655726505 1.3225775230479933 0.6855664031244386 0.0597264693263552
Ni 6.404904694854047 2.065547300293403 7.398018682612069 -1.6653652240407446 2.652542339698993 -0.1940336993830787
Ni 5.272332638271728 8.21066803532731 0.2766337546557297 1.5484083123370107 -0.5588321003189666 -1.094515787545928
Ni 7.552369952042343 4.565771276773018 7.424911148781275 0.558283169794032 -0.5306895764464795 -1.569603458357387
Ni 2.922995400431424 5.3622224121791815 12.93548007807141 -0.009173438969151943 0.48844712283750064 -1.6068363745669165
Ni 7.624480967726411 0.25736939967189776 7.832705597873696 1.6472016657578403 0.026589063342438077 3.7322187482392435
Ni 7.695474993365031 1.4732354039432978 11.616105398763427 -0.3645757434021205 -1.2792940297690099 -0.05505606043387937
Ni 6.488232152244492 6.855908042204562 4.00303913847646 -0.14355060303186246 0.3883365932671441 1.730116143164885
Ni 6.453316905073852 0.6366228914530399 4.4385442489463784 0.08144432061942103 -0.4280411109456177 1.5436931662495286
Ni 3.6931321120169 4.098683272768048 5.755575110808995 0.849281396919318 2.047092539521487 0.48952955726840214
Ni 4.515208860715724 2.1973055844044103 4.921472102620844 -0.0974214127739677 -1.5371468804905783 0.09087486990470156
Ni 8.828754476976133 8.732842265073637 2.1871139810647326 -1.4061784849991008 -0.8570960078677303 0.6175203581887945
Ni 0.2158862510340231 3.374715483061101 2.859408880444202 2.1331491621019394 0.7450668724829168 0.8256886972010424
Ni 6.9591272306543654 3.530200497387506 12.72483251035054 0.5417196090083961 -1.4612625704574382 -0.22688931246051894
Ni 8.91309653365786 5.085115798404211 13.08626535678159 0.02845902667164131 1.0407967007559171 -1.0719638703873409
Ni 9.158005909372783 1.6370047611067782 9.64974867615591 -0.004388101765366636 -0.28225184839122364 -1.2574874754168794
Ni 2.7630889671751184 1.944279414359231 11.243896390868912 0.8962986462091208 -0.18514770974735856 0.25381519031708544
P 7.917858403163412 6.362635929884208 6.00646689904233 0.07769102422457588 -0.6400522207427235 -0.9223048404648955
P 1.8239423534629327 3.9078920647550968 4.998036185286099 -3.128278442727728 -0.9238331041839638 -0.9137541226814071
P 1.2150152301867836 6.67823215897525 13.368054951322103 -0.416538766732973 0.41475493535967284 0.34278872943401606
P 1.7909446058703133 7.1074355839387655 7.187289202287865 -0.15614746586026657 -0.5666166293603919 0.29773708851101627
P 4.958244345742041 6.853357581600789 2.0700459777014464 1.1545515605825856 0.11512757180447915 1.178535582202009
P 4.63777059345254 1.3319082384429497 13.659395741576235 2.31037633145064 -0.8656827210954767 1.4394102504690374
P 2.238047796312138 0.978027175544166 7.910659402320497 1.1503120685799415 -0.6602680335689661 -0.5861503285179454
P 8.480681762313681 2.6542662119973164 7.7679657856645505 0.5146870303706361 -0.5881326490552968 -0.007240740722813336
