# total energy = -340871.7941673102 ev
CRYSTAL
PRIMVEC
9.20658767354860 0.00000000000000 0.00000000000000
0.00000000000000 9.20658767354860 0.00000000000000
0.00000000000000 0.00000000000000 13.47477167638271
PRIMCOORD
 96 1
Ni 6.543536032227733 5.108146181791088 2.528824024678568 0.25240931110849435 0.26902635083988513 0.07719505842476383
Ni 5.889481643098689 8.399335494234839 12.011626641528531 0.44718811618771376 -0.3672450627041675 0.263283791929153
Ni 0.40912509727250373 1.2993349003712051 4.735856641103496 -0.3385245548410234 -0.2950842242692015 -0.5443822434422237
Ni 3.693452740052988 3.291060420218761 12.741528581112243 0.3752813027450827 -0.9880672315726854 0.8996318243474118
Ni 2.0875753023033212 5.310267603751886 0.0940370053771427 -0.25562987492832107 -1.305135930532778 0.619292619597869
Ni 4.012414963968077 5.052676492107485 9.04104569084475 0.5028345019074243 -1.2764380483774536 -1.6164258180275646
Ni 0.12533295826369376 3.267694101145403 12.927385645596686 -0.27665507102973647 -0.5395735091996707 -0.8665550963981011
Ni 8.132141911828613 5.36856371579779 5.182073238093393 0.2141394689940183 -0.17987489138419346 -0.13478134147966467
Ni 0.9950479769300852 4.827980517598273 6.447596945873224 -0.4595780052116343 0.5021423609364062 -0.631151575818984
Ni 6.2956670769826495 6.83319368813238 0.6503514996368045 -0.10166938941704426 0.7584978011768421 -0.10864710628645805
Ni 6.4471246479345075 0.17758586627502232 1.3842095098689917 0.5669758124720236 -1.4660952159593912 -0.5174748775284185
Ni 7.826584479312582 3.297707576393294 3.708163025559454 2.0230038740034 2.5809047207573483 -0.8777118843458689
Ni 0.23918438125694425 7.010862413694897 9.826652088093303 1.2804034607831047 0.382116066278729 0.6113265706732568
Ni 3.851336509079394 6.427201592585907 1.3619627118355546 -0.10064377636600731 -0.6889646301727103 -0.5537112341526335
Ni 4.0400531396411345 1.1583083930561142 5.927511294082266 -0.323559706001075 0.03287592479241435 0.2524928719612361
Ni 2.32113722057441 2.493512158324799 3.4593642049769353 -0.07472037163202616 0.8687711302128134 -0.08309753995212786
Ni 5.78129503339379 2.0121733506836192 0.43365144637078046 0.9005723338838103 2.814466817252353 -1.9021010902780402
Ni 4.734395555667349 8.21958607989747 2.5763493500089787 -0.554708050848264 1.2653069714612981 0.07440772548761378
Ni 2.058325973817876 5.504747558088221 2.8137881622760457 0.4047697991225029 -0.12671810485555596 0.7465557983236175
Ni 4.915535164717121 7.813658430463491 5.072388716602349 0.5443251649520432 -0.12457689014283706 -0.21622566209908567
Ni 1.649139192409127 5.125298054302383 9.622414992325153 0.2420716766279121 -1.5546321817595357 -2.0585252068384614
Ni 3.107112801981686 5.559370241721884 11.402567607485075 1.6927515864734977 -1.0742058723439822 -0.14107797312165382
Ni 7.080307703202518 4.5539280275050285 9.346559852399533 0.20252245358038024 -0.09107927260602379 1.6454741415437726
Ni 1.2379729946880167 1.796453798986276 9.32102446131133 0.16531216307867014 -0.04404196871156286 -0.004439523828592354
P 3.1771473130892645 4.022238392829887 1.4756355270313177 1.0214920868900343 -0.9991849387524018 0.46616131485610685
P 7.420527937653613 0.8757002211997209 12.679759744261585 0.45696756417198076 -0.9199335120192415 -0.22215076933426903
P 6.721646673990219 7.634894120988551 2.7058961633711265 0.8806483412663737 -0.6010113047901777 0.06603004294687982
P 0.554448318973543 4.280004429636775 3.8758297144626734 0.5271957043606081 0.38786016785135785 1.3232449814286629
P 7.372119700582014 6.08387873814753 11.413454397203058 -0.13694621034146737 -0.3403983748249686 -0.5504359058354713
P 7.703262239758748 3.183407792588825 1.1574070681399273 -1.0396754426672805 1.981111861755304 0.050451728892648595
P 4.127663026284979 0.9960238752050167 13.125748017881499 -0.8258907859095195 0.0372794531767487 -1.3469873193509252
P 4.490531465984483 3.9289480416989413 6.725285117369962 -0.30860617001503626 -0.4720506837573483 1.223945377795376
Ni 6.076955384348016 1.956215711862551 7.2787345215998265 -1.1810840596554757 1.5767117872673944 -0.18978906517411187
Ni 0.7757894129979909 8.63658925409317 8.170562842780914 -1.633490743929651 -0.6437216991745107 0.15198433562151242
Ni 5.658985518464884 4.316379656846719 11.707865414233623 0.5230978801421508 0.6511856116517236 -1.144052717933791
Ni 0.5648895098565593 5.437907732842918 11.651446525378837 -0.4665901748634093 1.9205796086982019 1.6340522728600761
Ni 1.7651790212509737 2.3248198555741517 0.5995394225691247 1.1960854181603142 -0.4121609493802515 1.141409623883989
Ni 8.24292477920833 6.58742383483715 7.6998208173514895 1.8996739688937865 -0.5384681919506339 -0.5135680862748445
Ni 7.5021443358353785 2.8224819428516845 11.541559458962809 -1.0352374615005848 -1.2857148456936889 -0.018361533226323216
Ni 8.488013345028609 8.209145809673203 1.3515196796350384 0.3270301810481787 -0.19704343274368002 -1.276635251989924
Ni 8.323206222202689 -0.18599332197943158 3.5500500125043137 -0.9695738007541882 -0.3852674674235171 -0.7554171053689893
Ni 2.978285023103237 8.692298315051755 0.5363122622585672 -0.08824668825323512 0.4568197257402068 0.919930426695448
Ni 0.49779742411377337 0.3078305389696209 13.117636093635818 -0.0723241034857077 0.19293969498795158 0.36518380929976463
Ni 4.698867334507344 3.7245986255632992 3.2970474640695904 -2.216598686076847 1.011320031453039 -2.42628551861615
Ni 3.0974090587573677 8.26926482604398 7.242541584822369 0.4556300763074798 0.7594470524639889 0.27617016097351793
Ni 3.501256019416492 3.0005557582641726 10.169086506837992 -0.6380279912238431 -0.467029319283357 0.2885317678626644
Ni 3.0633446850097608 8.894539422650045 4.1070964304701745 -0.37678616942538334 1.6412886427075155 0.4122432246814126
Ni 9.201919759490947 3.7553578343986382 10.398696957754359 0.5696047654544383 -1.2796562982044348 1.0505905469178873
Ni 1.8734024573058696 2.5449401560961853 5.817085642297525 0.4550050411289713 0.06262204570659537 0.07031890013022084
Ni 5.699080207024567 5.314962963376556 5.001633329693572 -0.21710137983581967 1.4907693216673035 -1.7220570203058343
Ni 6.276821192371473 0.6519580491554415 9.399502333814564 -0.09174955920017103 -0.033685822288219404 -0.12624322210166644
Ni 7.313657869961123 7.683790307197616 9.782535962113903 -0.9441749010651095 0.2697958820160579 0.8326191057722886
Ni 1.7170193620418575 1.5430332714790822 11.604311559358399 0.9289891944636065 1.632174853331705 0.6349943466038419
Ni 8.141910101165426 8.435388490882307 5.707939706175194 0.7542346550251139 0.869235985664374 1.618950641331947
Ni 8.134259426953465 5.224057118407943 13.367350969674524 -1.992578210523691 0.5665104427998308 -0.17333014828714022
Ni 2.4556178441774614 6.91276622388929 5.3887629687713705 0.11471490974709275 -1.190930356321936 -0.2786114234251589
P 7.7676162863792255 0.7450826817113984 7.598477464134859 1.0398348510632802 -1.230753916076777 0.4137979707630422
P 5.608735963893414 2.9897656377149304 9.953342097354401 1.3088645443372748 0.5330045977329013 -2.0014793696680626
P 1.6754239997197802 6.606978626685776 7.550925439700701 -0.4738054616649259 0.34083160570764526 0.6872355632967454
P 4.362182429656001 6.73002466861463 12.735572839658913 0.8210069754546571 0.5621513945001866 -0.19055602524712342
P 6.713195026665812 6.958624236223568 6.1875476753664955 -1.1308681009227168 -0.9367307860822383 0.1637291348622664
P 1.5265442732677408 8.81277571906829 10.839887678628358 -1.5871358108141957 -1.6468928762681703 -0.6242088259525637
P 1.8559835937570934 1.0292136231401845 7.4542166826312455 1.9268525861911074 1.3146623819659746 -1.5946655435323376
P 4.716783353781086 8.186442364899799 9.172492743866766 0.39688962504347775 0.07369270169846018 -0.26312129820935976
Ni 3.784404617959097 1.5277963691676528 1.7619070000537036 0.2678906945735451 0.11027949968355846 0.5014047114394332
Ni 8.513395906764325 6.493976971718715 2.9500318473852225 1.0150874689152711 -1.008246791844354 0.5692178144286648
Ni 3.6491782607685987 9.081543627936906 11.060590756139103 0.26403995336888725 -0.10049773770644628 0.29731182804813955
Ni 1.5579203234655363 7.940865849942052 2.5998629744823267 -0.7146478938714272 -0.47217538226067074 -1.2992715013322012
Ni 5.227159738395225 6.365425390465248 10.42429863627256 0.13125944436933523 1.4806502309554308 2.1214496142768238
Ni 6.657108495619753 4.4209020447268745 7.0014781390568075 -0.35043544734599646 0.3571997626530235 0.253192469131422
Ni 8.665783343053617 0.48205692146612933 10.639949138563658 -0.0650530237455912 0.5739098205876956 -0.3898049502825545
Ni 3.2830230693318256 4.594694796952164 5.111896945538325 -0.9748646168394822 -0.0020481407782803438 -0.6203889379858413
Ni 5.730244505709877 3.0469937856109097 5.101036854924087 0.19990095679713316 -1.849968631248859 1.1994427646683214
Ni 0.3311940960667294 4.422936700564232 1.5813989629063867 -0.34070227921863255 -0.7444971160223758 1.3304620680023924
Ni 2.3185317563120935 3.442748155858103 7.816633999543281 1.255331348305825 -0.13065446379548465 1.335221951284881
Ni 8.037802009722741 2.3963182140941277 9.02596806249706 -0.6758144659439974 -1.3783046414069682 -0.7734292256756938
Ni 2.804344965477959 6.9917219182837425 9.54032721686342 0.48201139451448605 2.7955635525899467 -0.37521342562162474
Ni 8.314469170665802 2.8290278265637245 6.492804973130047 0.8660395902142632 -0.08027215468819078 -0.23514178227729826
Ni 4.3540622194815715 6.202321486326708 6.730594556380839 -0.24187473012575764 -0.3232820268596562 1.1337047990405635
Ni 2.09726983894014 7.328544921947576 12.447805296167882 -1.2785322119023206 1.4810194413693911 -0.642300650457268
Ni 6.084688917847473 6.284094396495962 8.366566487348392 -1.239629364189536 1.6097370931534793 -1.878418659059436
Ni 5.638611340328816 8.868807010589354 7.193156528817089 0.3669270172431165 -1.631266996805455 0.3139867176006592
Ni 6.191844389752443 2.079261753791405 2.724881988112292 0.6545833244793631 -0.7330878457441697 -0.20798553357748054
Ni 8.537148902512657 7.831068087424767 12.089416781945564 -0.800654379940234 -1.2015320430971823 0.49379861695740124
Ni 5.424447701918863 4.633159919524462 0.4281127633311696 -0.5023051117665156 -0.5642620130852862 1.4514481554701777
Ni 5.44754702995474 1.5616121650527768 11.413630243024297 -0.8116126787239506 -0.6817089770515615 1.663474177665619
Ni 3.7791384499094676 1.0021370493045871 8.711345823929166 -0.06404360864447034 0.5128867439371038 -0.13138517131392213
Ni 8.633118370605914 1.3224434349945813 1.6069739423208396 0.05381884559266859 0.9244463122879305 0.14005441695314588
P 1.445314551760948 0.8790449744382358 2.255999693357737 0.6303650753619466 -0.38357670998465554 -0.0702448523591758
P 1.0722083867621637 8.288663105905115 4.717463720597288 -2.383898311899191 1.1384258586653169 -0.27729913237163856
P 9.247464747850248 4.136215946071879 8.358858732293934 -0.4040540040024008 0.03889307752077173 -1.6299441642289736
P 7.354470672345754 1.6687584303702485 4.788206218283568 0.7807255022267909 -2.7912980924453734 0.701910648810417
P 1.983798648010613 3.7295057367004545 11.592682718687966 -1.600159219657057 0.11425339672964194 -0.36298320210402
P 4.051008978765365 6.323618276630684 3.5037905929550637 0.12011499771674153 -0.5896598843331006 1.9102571437262716
P 4.593903030427219 1.2703065299857446 3.8267273006936233 -1.1431422903043795 -0.028257195073480366 0.4651624412779473
P 0.450267495489613 6.565171512851213 0.8765591958134106 0.9971288275543213 -0.5464028734166783 -0.294659478026957
