# total energy = -340869.8197648081 ev
CRYSTAL
PRIMVEC
9.31732528961797 0.00000000000000 0.00000000000000
0.00000000000000 9.31732528961797 0.00000000000000
0.00000000000000 0.00000000000000 13.63684737103209
PRIMCOORD
 96 1
Ni 8.645108174686822 4.587664601022249 13.735714538232935 2.9858483264535547 0.525991656750178 0.016300794042552573
Ni 9.384130460643362 8.888122651562126 6.9831703497354445 -0.8665224433879528 -0.047288757783634686 1.0783507477502912
Ni 6.209531405319628 3.906698568627936 2.3836392032892095 0.1474270552681332 -0.5302979974350157 -0.30923506184828675
Ni 5.917955029300313 3.6073515433595604 4.8322984290240365 1.0481372002813885 0.6627175235507232 0.8252852911150367
Ni 8.53180018245921 -0.0685494252460313 1.3230033482088899 -1.9673983688239534 1.9512202164021943 0.5400188242672054
Ni 8.553230030508178 3.9648573127677893 8.770988033858988 0.9825272755910629 -0.5430349853857099 -0.3903567090209664
Ni 5.420018533894668 6.140825449009586 1.9966795053364588 2.6975736689070184 -3.2769743374059566 0.5730294748652711
Ni 0.3962201875074765 2.4859834989084644 5.0941394932766215 -0.30969760330700213 -1.1532881204891299 0.8528027798090151
Ni 4.491435265957142 8.259464083057773 8.553848700904027 -1.4269902795381295 0.30871312790654576 0.27910276123928063
Ni 3.0026291833933816 0.7700750675120206 7.52065330038415 -1.8930250961187012 -0.4510488846947006 -0.1302168620374338
Ni 7.169849483020106 5.2130527883678255 6.6509089413289 0.01319310165150631 0.20906899644964638 0.08607333475100015
Ni 7.548580119322052 8.621982573444413 12.611656581985432 -0.3641733657573793 1.9369079135445801 -0.6058020413106019
Ni 6.896590968420039 1.6788981520833506 9.557916279262736 -0.21276470013367874 1.669106693361048 1.4659167813999978
Ni 6.5740810726083 8.710562384488563 10.16856073115062 3.2490943231662364 1.016366849848327 -1.0541350697360363
Ni 6.274221594451797 4.717715826703773 8.782961728523219 -1.0448161063279553 -0.1931266141877771 0.19255942883039742
Ni 6.698579172447569 7.747821802226028 7.646112016455527 2.842719384340143 -0.44008261549118405 0.6366290539937874
Ni 2.3518046981462044 7.629417233092856 4.037093603610766 -0.7789074751814457 -0.2565945528344355 -3.319364886557025
Ni 3.2604861593739067 2.9001665577435953 1.6429267545343709 2.365580744536926 0.4927074407757514 -1.4529849038296783
Ni 4.72198316166309 8.1221267090396 11.111207569803415 -1.7963855558160806 0.4361727389138166 0.3041818156950955
Ni 6.64151987268588 6.6364419304307996 11.746316522570506 -1.673047423176351 -1.0329635778647437 -0.3357351650213444
Ni 3.9881692605149714 5.736509437602218 8.191708493922077 -0.20492926324966 -0.04102272226926484 1.0530518639741864
Ni 5.593786649596089 8.61790158498987 4.148547448115881 -0.516446179153588 0.031674962505777705 0.4412529816502013
Ni 3.168589380544786 8.166272196020476 5.985239161778931 2.0389233734471337 -0.4798570671756446 2.54034582549838
Ni 1.2281166397106762 1.795821266503571 1.2242387689463368 -0.6051757205805126 -1.5440076121661537 -0.35245299199665747
P 4.965826880484636 4.155294123321211 7.119320696518209 0.15556793920771272 -1.181726578335481 -1.0027194342682213
P 8.582942980694336 8.334682849709653 9.002678233639198 0.7396493010117713 0.8597912953117064 0.291620176980001
P 8.698701429459721 2.5782622880723705 10.619790406867278 1.0436513965958931 -0.2402202252414702 -0.04020922522903398
P 0.3135494241296987 0.17865225759153663 13.357946381628146 1.684950345261524 1.2428776959235046 -3.2952019161575765
P 7.948656747745819 5.913184558778108 2.2474478602753942 -0.27093230961334624 -2.2165477782342538 0.15151305241204874
P 2.9651549012834026 4.944853581372363 10.854043802820646 -0.42267136199327204 0.7149091179526139 -0.9248949697895749
P 5.2043131372939415 8.943085553145112 6.57057403138846 0.03984489991107977 0.9117694881512104 0.313146481087551
P 5.003422287822718 3.6658177592322896 0.4406573067683226 -1.7233898801846448 -1.201405287711331 1.2258757620488694
Ni 3.243025491876616 5.078333582741722 3.0796499207464225 1.2563014255285783 0.5029522584322113 -0.011289713981206364
Ni 5.892481462097757 1.30740707749186 0.20412209786399782 0.3005807286073985 -0.5223532886666423 1.2699943496346386
Ni 2.0838943282331415 8.690194711516805 12.099838203706677 -0.07005999004187934 -0.4023326504359199 0.5596885347819909
Ni 1.3318091522919684 5.90029869797301 12.62810259276423 0.9639973351076752 0.7380387619915418 0.196587576153184
Ni 5.034122874484176 1.6506200699839508 7.637479514621889 0.8182952329504488 0.9327100949586195 1.6412161375983672
Ni 2.9190061893762107 2.6835201112937614 5.838480108479403 0.00232042060306052 0.41909135795149766 -0.661117783163771
Ni 1.5793891185342266 5.0768334933782935 9.126173789282785 0.5292286756302369 -0.7274039079855149 0.1583768694114176
Ni 8.425890146471112 4.027646767551268 3.6552071892504787 0.5403988333144435 -0.8691483110465742 -0.4680343635091036
Ni 4.546864033802061 3.3770458981098184 10.104658787733644 -0.044629208673600554 -0.2085825437315311 -0.782467167508246
Ni 0.5114652516522105 0.810021236007822 3.4575131140686475 1.7434447419529908 -0.400029199113724 0.13305253171401601
Ni 5.6871742004633985 7.591616844599524 0.18830407480628736 -0.17621286915157391 0.6871910832120552 -0.188697631882146
Ni 7.94137059940917 1.7889450804774238 12.577087441884874 -0.1283633537684628 0.5065852271991083 -0.21053272547936647
Ni 9.21695901121093 0.2633243824305833 11.083865878890503 0.06334838234965864 -0.18824460350512742 -0.8888527314540369
Ni 5.177488557931776 6.781913329382341 6.406167964086868 -0.9344782426026358 -1.332298606990499 -2.5714962829592554
Ni 8.248991409489495 2.5862565531271597 1.1881658125522554 -0.3984927078645395 -0.37259115750742927 0.8280227446508577
Ni 0.7301354211438863 7.112901991161281 5.546719249420362 -0.10510309768894156 -0.6242077975112992 -0.18711563210700677
Ni 3.668119138566244 0.3153281015177631 0.5590833057495426 -0.6162900853261193 -0.4617863257168628 0.3446450659164645
Ni 2.083335288718821 3.060778610207996 10.324716306953361 -0.2601704431111519 -1.2465029513809178 -0.44949233884085815
Ni 0.8075745064001442 7.082676588086996 10.338189159248493 -0.8285179391197214 -0.4983620679583675 0.9957823408287558
Ni 9.417672831502617 4.7034044151371575 11.185719151469678 0.11362219090354625 -0.798189206229193 -0.7554397310768086
Ni 5.477739363748304 2.9669438277292297 12.162295029979132 0.7924430477740352 -1.0187232658956455 -0.23563260587078771
Ni 8.237409974217814 7.130660813066209 0.5473826087148057 0.16774854043430465 -1.7517725450923958 0.5743363666021528
Ni 7.561866625112412 7.873279586564881 3.0644589536772755 0.22233383187935257 -0.6013460624217772 0.3573123769714879
Ni 7.344847485653031 0.6615822689677596 7.603224368381873 -0.035687426099280474 -0.5290042183242567 -1.0365217275296472
P 3.818146709559502 7.2934624369617 12.751434163483614 -2.049316543756 -0.815188569000667 1.8177884469718886
P 2.287347442145002 7.012209657306845 8.478328052914414 -0.560218696253848 1.0096858382837257 -0.417112636958572
P 3.486943749300073 1.0963230742095191 9.731990934964507 -0.5792841975257313 0.3120349931909271 -0.8235192003535494
P 8.642042774683295 6.798106840647171 12.089283537676296 2.1967346001630683 -1.1310449928202133 -0.7706758313002727
P 1.3931264696877346 5.358458966042697 4.280647553617391 -1.0815659122534793 -0.22341369520709264 -0.05968636011703914
P 4.101057973106843 2.9323113298170482 3.9786730426317067 -2.060354032517084 1.069640621570803 -0.570081962201173
P 5.7833755835527905 0.8306870633872188 11.655699944229182 0.34419743685608467 0.34042048631215566 0.18365801257570952
P 2.235934441477955 9.161977474977467 2.2154419163479977 0.5287280818447346 0.4178981089743448 0.24155025690680335
Ni 0.573523296404452 7.82450338894038 2.3542793797295984 0.7047697155257668 -1.5627573819698313 0.22917656583279883
Ni 5.155341275839429 1.5466014510193047 2.86937000263218 1.041514552758548 -0.752655226353136 -1.5077931099188095
Ni 0.22140200925165746 4.573362506780873 6.008544587398447 0.01766065050455668 0.7600335210950782 0.523620328304524
Ni 3.2152878146410595 0.7693445892133081 4.170747838962089 -1.486865615737523 -0.3620915435276861 -0.5257805691806364
Ni 1.2020840329937985 2.227260011680742 12.252843591846217 -1.9037468534115796 -0.8406630591226877 1.075427146345593
Ni 6.564968728524868 4.859152823826967 0.008623184508400203 -0.8445713930381583 1.8696943918125606 -0.4662302204208293
Ni 0.849878889913856 5.285327280244282 2.162149611180308 -1.1236718402845938 -0.32806633562217696 -0.29563161213223926
Ni 7.183042815558079 4.149871440032298 10.889758973925563 -1.2163382548720794 -0.3102344496470786 0.7194872242415996
Ni 7.864642426068623 6.233793720241156 9.715094897376682 1.4756748892280263 0.1990992868314442 -0.24885553231896498
Ni 9.511870989665693 6.379125359314118 7.7776940786737665 -0.6876016883869125 0.661015967478584 0.056154692814696844
Ni 7.002118994073351 2.857558429427103 7.035263515144915 0.1995857395495595 0.6099294332154142 -0.5668225747236109
Ni 7.589324782590809 0.9226127259245794 3.1810540982490947 -1.4793777920009104 0.8596719961250228 -0.3563525841613798
Ni 3.4537833887756033 1.348291500639197 11.975811560524484 1.2723394528280476 0.015718953397153575 -0.8574225379692136
Ni 5.19697108500586 1.3898747231794346 5.350212201473939 0.9186957829573985 0.13876063784238682 -0.2259395469527399
Ni 4.157977512989952 7.702865707949388 2.2367562295640067 -2.750953884300372 3.7329227162848038 -0.12430718142121817
Ni 1.7432901868078818 3.2795121375112952 3.185417401658369 -1.4336844037288534 -0.7531727894195028 1.9916212459270606
Ni 7.057501175292078 5.72370743272427 4.2408141247569775 -1.5123881854886598 1.0475795280057056 0.1955480791450761
Ni 3.012598721398771 3.163092158653963 8.130083704793435 0.5102559911824761 0.5951916127846072 -0.0018319110024161997
Ni 2.4203336252767107 6.424416877299351 0.9959997064345343 1.4486348543910987 1.0206153407120357 -0.43511190174947
Ni 1.6781248140885399 8.963965679004998 9.402169734037974 1.441005877090931 0.3968091495145295 -0.32723664063202995
Ni 4.737701489340746 5.205282139118764 12.073041576320225 -0.17702533775054027 1.3279858385477579 -0.28748584309665326
Ni 2.920245393632955 3.790436984299662 12.61158856551119 1.2588087653314644 -0.8315117316407228 1.0552576133762537
Ni 0.26528567939332587 1.4056582721337618 8.773743166932066 -0.893819588541009 0.7680846735343287 0.21516585337600364
Ni 3.08591675370196 5.53283270788463 5.59579826011512 0.5821422357998168 -0.2042623190896224 0.8373126545932161
P 7.512717734478365 1.7013994925347675 5.074639263284585 0.09815032052019226 1.3870294228744757 1.6187909758256314
P 0.9412734649126118 2.9715465863971384 7.423272343919541 0.19321994523253175 0.5076308948548032 -0.47899934716103953
P 1.3829892198280487 3.79631621652527 0.38652178366653234 -0.9425345372482089 0.3897954372008577 0.9129835630639695
P 5.849919920407457 6.797314868001883 9.503054936524853 -2.1556360303505455 -1.3488241154493479 0.32020030261053883
P 6.0363875504091995 8.985423479029683 1.9132223597085363 0.09086638526426931 0.6474549409646978 -0.6153174370002048
P 4.323434574578466 6.840845411517005 4.193698274490011 0.997805541906372 -1.571790695816693 0.7925664607257771
P 1.4776439269278192 9.283549934691791 5.51523228050876 -0.16006274175427274 1.339034640162752 -1.3963589278055175
P 7.934988231620673 7.037357118126048 5.770526992048647 -0.09524703083046822 0.23774142468367446 0.30617082110066624
