# total energy = -340858.6676524728 ev
CRYSTAL
PRIMVEC
9.35980359931946 0.00000000000000 0.00000000000000

0.00000000000000 9.35980359931946 0.00000000000000

0.00000000000000 0.00000000000000 13.69901867105113

PRIMCOORD
 96 1
Ni 1.8285031033489427 1.2836689502551606 6.888208751484333 -0.24686549847212969 1.8026186812099858 -0.0867546770887409
Ni 4.7275056356214735 2.643283344904806 3.176144437551284 0.18118666821708151 -0.9503082676563568 -0.287755294707956
Ni 0.27143616915564844 4.805004807372315 4.452084998179068 -0.8902154161295185 0.20485752947146008 -0.36920527175433193
Ni 4.46328774681054 1.3547379371034873 7.096762953783256 0.242437287497447 0.9352729705897892 0.45983460130713066
Ni 5.159292083835222 8.573579870020689 13.70559374296815 -0.6589418585583748 0.7868349575586384 -1.4211615886714943
Ni 3.6874349273937774 6.250439238952331 10.581737846840305 -2.0860018149921755 2.229598954991257 -0.878663449625861
Ni 4.601672439363222 0.08782584278860821 3.7897516177312567 0.13075345126719415 1.6538387114583841 0.5929413832978497
Ni 1.5900059541480724 8.520809298724643 7.444786649843306 -0.47378103618489376 -1.541252932239152 0.1966827069701516
Ni 3.6988164482692634 4.254264618363704 9.336113689268194 0.9124811695062542 -0.30137134282949385 -0.1328977513037066
Ni 0.8849085681673591 0.8371716991137789 12.319266469553178 2.9612361843318293 2.6466573416731256 -1.581726466873166
Ni 5.083964386461941 5.541696209566188 6.182517953971131 -1.5781508337067658 -0.41580445967010976 -0.6155048704206626
Ni 0.3312303368866966 6.149727754889642 10.359841244863746 0.5373752159967713 -0.7849940476951577 -0.04871623425878062
Ni 6.7085641737973445 4.550446235620183 4.5542519316629235 0.3846311193910989 0.8586031885408762 0.0059245930145510875
Ni 6.732590789000776 -0.10055517534671754 11.736511073180587 0.5907544029488601 0.2803849703858139 -0.6287265113172591
Ni 3.90458236514976 8.432415315872596 7.582132404223965 0.669817367820298 -0.4003469874644589 1.9170512838299691
Ni 7.232591484040629 8.29321632042833 1.1350811360689539 -0.15210312058756384 0.0037928913835289517 0.15240599653996334
Ni 4.1169469433931 3.252859257781266 1.0361414627807142 1.547255172569174 3.3913526897492363 0.32024966779123554
Ni 6.902106187500715 2.2483932415028707 4.305656490626065 -2.0749435002954844 -0.9125521319535057 0.006644759010027266
Ni 6.081663264917164 4.978526201706718 9.290235677160231 -1.7773246825298876 -0.45656544363755563 -0.7356846599370684
Ni 7.537608755660972 1.2654360533263396 -0.015536337583239454 -1.7192627453901488 -0.8031830598993586 -0.6095905618187566
Ni 6.981804913039173 6.940415862618614 9.853758549606054 0.8094827768651414 0.8987625343685812 0.2452390186123002
Ni 5.064851668018074 4.803441720212605 11.343513522016336 1.6693244657988089 -2.2959670980038456 1.072731858901617
Ni 2.3832680077987205 5.5317560984068415 4.852589111631265 0.0013639702270621672 0.524355920918968 1.458804595835249
Ni 9.413622220822386 4.193968765173013 12.108644686693896 -1.4153043585597689 -0.04944385645342453 0.15343160959100027
P 0.18594372534258186 -0.1362291298408189 5.105871006206245 1.9964302372799296 1.0493034526753475 -0.37384354185729163
P 7.400328519903773 5.575110707531225 12.191016572069557 -0.33086163897912696 1.094975500791166 -0.834929241962704
P -0.294698088425258 7.154380967235069 1.1300867450005665 2.3361616679448605 2.0174883435018094 -1.285775523728295
P 8.87466602423338 3.424059420884485 5.860467712211635 -0.4851160015817388 0.11234975194902587 0.45064290750553354
P -0.2042898758919569 0.5303489214269217 8.234054875403846 0.7695779702504036 -0.8345104092577306 -1.1543972943929086
P 0.3850623098828069 4.548864428853771 8.819003273701705 0.2469665428263682 1.785135436823558 -1.5662029173162704
P 2.8417018161543353 3.268808362692309 4.407878646949694 -1.2588951543976836 -0.18000396076289 -0.1798995739745418
P 7.666886359552594 6.435080079668377 5.283382484709414 0.13791885866738182 -0.06482702377771417 -0.866914536620049
Ni 7.45190103637082 5.750241988042095 1.129064654474577 -5.3066731069310284 0.5919707918544643 0.6287321677442139
Ni -0.30956707202953193 2.164548123079677 4.206256315012929 3.031627332460882 -1.8067771834630495 -0.6732870715364534
Ni 2.2548608656187925 0.8317860682652963 3.205323624499744 -0.06793857282350235 0.5539655162552847 0.1546739666385336
Ni 5.539309459711543 7.176835135475439 11.910789675606132 1.2414975277465266 -1.0115028368878063 0.5914460296992459
Ni 6.965809009111372 3.787304029154827 13.166578579618026 0.6522017116210639 1.114192697149565 1.8928255785133852
Ni 7.976742649505689 4.574697486104052 10.257016317204277 0.9143215651491028 0.1918094380382503 -0.25588904212697866
Ni 0.41244441458776926 2.923497137643539 10.179644438779016 0.0068514757041946515 -1.472748716720167 0.5110417203085651
Ni 5.461651171303725 7.843365451746087 5.765204569679885 -0.5935085686552295 0.04230801673959165 -0.4197361906243481
Ni 9.353101732351258 5.980511870096953 6.727711523513613 0.7420080310519349 -0.5082253339056925 0.33436990924270155
Ni 2.286075809796215 2.437030718250029 8.872224051538959 -0.38556648672117466 0.8589544012327078 -1.1875948641907998
Ni 4.2168254049575005 6.242642522760489 1.2989366614822107 -0.2042818594736482 -0.549485368996744 0.525217754698631
Ni 6.228453060879538 0.950235315659509 2.0918130912347745 0.3351846918345131 -0.10736952512561508 0.36394402335539255
Ni 7.702126019171184 8.573870023924586 5.90663307028249 0.2551236247158638 -0.191634860133599 1.1172463963742243
Ni 1.475245405254706 7.886607743230253 3.8223686604507416 0.15771661011959937 2.09814770632609 2.0657116972845713
Ni 9.21659836027224 7.823475869624041 8.719548811229132 -1.0234535814917793 -0.81045979606643 -0.5077077708393257
Ni 4.224322607442093 4.861903051946394 3.7662163922037823 1.5048638520871567 0.410326467274674 -1.5064111419696185
Ni 4.939477102124048 8.286280706144831 10.031023865281078 0.5626306481294503 0.9779121454165547 -1.5848783822385868
Ni 1.5775854951005643 6.089600378159279 2.6957197712212 0.6679780006187142 -2.1017817035342508 -2.2910614331721124
Ni 4.028365764474022 7.134023394945446 3.5492926537479015 -0.906456560578729 0.6065684871629812 1.1482397594319451
Ni 7.784211494564285 1.4613086580642465 9.559093220492526 0.25942045231900485 0.4547885542427909 1.6370244681145225
Ni 8.710616750890745 6.976207750634945 3.0712378896264303 -0.3095741903552604 -2.7642503442989623 2.0658078565428033
Ni 1.2439178654211236 0.30808822309998685 10.009571195999325 -2.073624524373745 1.597527695571481 -1.177771707452791
Ni 2.866383617592375 9.265512692587444 5.585637678360715 0.9399112406927491 -0.8945479820666014 -2.239277872841918
Ni 7.310277851858501 1.279934388717892 7.263027692579202 -0.5676494415002804 0.35378328077230686 -0.5357317668560774
P 2.7067615312350246 8.20891257164091 9.72213818693554 1.1511767305730818 -2.14525211601306 -1.0181990179610594
P 2.2305815357248693 4.780753556888446 0.9443620390564108 0.24985106346301486 -0.5340291823426738 -0.20378075146751357
P 3.3607403512112426 7.154867677009349 5.968402156520716 -0.8163617633731619 -0.5697024673745672 -0.9108516043226312
P 5.962016898674288 0.6801478941668192 5.614501439936228 -0.5214441465888116 0.5373214799407005 -0.7071407868611047
P 5.226682667966389 3.9739478677881044 7.66680586524377 -0.642618438808003 -0.9713612316719142 -1.278356862666721
P 4.222385128148321 5.793400041296097 12.938668303988097 -0.542459315387898 0.07798490131591086 -0.05638043567225774
P 2.4248442542863096 3.2731981104641865 10.8838704270677 -1.282111958833779 0.7542459678790235 0.5640424408753125
P 8.267055670060746 1.6826773671317785 2.0707713173201525 0.39019781484559896 0.4936950015000013 -0.16403972412414974
Ni 3.3639320441541214 9.0338107606198 11.919173251468115 1.518394796694056 2.175990425637181 -1.0951151116928237
Ni -0.06532300357080938 5.0290784996084446 0.7311326149833877 5.105338503011163 -1.099196995071681 0.08545729843355605
Ni 1.4439930218638772 7.958369355526594 11.480256505061154 -1.0531601074172765 -1.362302609551757 0.3271597646475075
Ni 6.979511761218042 6.089291504648678 7.367729260810657 0.6372684873499992 1.1817168081434681 -0.07246371438736553
Ni 2.2825658835393834 5.904135874748297 8.518213825255257 -1.2801890307794532 1.1224145708387252 -0.282686621935797
Ni 9.329084476951179 6.569243500909508 12.739114488592023 -0.2573705117685116 1.1398093692764046 -0.6259201522167156
Ni 2.803663575333632 2.786862728317598 13.063644142259344 -1.2850887820739159 -0.20242398032930298 -1.503432518957269
Ni 2.821437841898227 7.335942432648454 13.152920754567443 -0.4159836655604513 -0.9869750269497711 1.8721698499362467
Ni 8.541915655282391 9.152736422004606 3.1735695556492725 0.8856082563748102 2.7603569227818268 -0.2680801848765319
Ni 6.667362319443817 7.99334694065134 3.6705563940099255 -1.3546332659319573 -0.8299811539288093 -0.05977943405147769
Ni 0.12955746201183338 2.5678620494980082 7.790316894290502 0.4635673288766855 0.5465671669086845 -0.27966711838318287
Ni 4.728787928680635 3.223263559583662 5.399590995181266 0.7542701362487396 -0.7334845669619562 2.284357281679059
Ni 8.314828106367061 3.836948426131453 2.5873201446855476 -1.1171695203897019 0.045807288142101756 -0.055494690633194746
Ni 4.024050895128957 1.1288765224272108 1.3150430110895597 -0.3453971135911406 -2.5082687424581773 -0.0748314432885937
Ni 1.4323868657079541 3.0474583732314797 2.3081200186497877 0.26679540462683726 0.5916674016814326 0.11846203549435082
Ni 2.795361429760806 4.068201087538222 6.944032490633653 0.36251886087309176 -0.49877318735385706 -0.3849514788449951
Ni 1.8552253419176208 8.471464415455266 1.4849739848583081 0.34250205143153273 -0.034686238528275744 -0.14023825082917785
Ni 4.214784967826862 2.298664745304051 10.916720528890638 1.9334034999357474 0.7647083008629282 2.7753438831089623
Ni 9.392001075080305 9.124310699225948 0.079200784000154 -1.3888042553867113 -2.4785385623835956 2.7947742239194318
Ni 7.662983321554997 3.8782813177319015 7.583981901366231 -1.2478517520993282 0.377045336624041 0.45967622135239544
Ni 6.560248729888667 2.99272224323161 11.080231613540558 -0.24493357155673945 -1.8641068704224542 -0.8691786500638773
Ni 3.515317503562107 0.8066297247973329 9.523598974222777 1.537035808834011 -1.8446233077765457 -1.6442865489935747
Ni 2.016719388945281 5.135855136242939 11.914447486755916 1.7889172724634934 0.7956404716654104 0.9509566998736331
Ni -0.3585169715974732 2.9277558481684944 0.2547513837011737 1.89325495274132 -2.0371038037398916 1.2168445050845365
P 5.9959649054303625 4.486088227774919 2.38332791054017 -0.3771798053193762 -0.242289449065673 -0.11374457541402347
P 5.605932539967883 2.253222900032271 13.028738627620406 -2.7091629164065147 -1.8890352582330177 0.24695908662720048
P 1.9342782410248203 1.3970442482524976 0.8383706899231125 -0.979950258892506 -1.0323778805646027 0.2728956039873042
P 5.681475512818251 1.576780552012331 9.476295464064371 -0.6574048530885582 -0.7604168725764259 -0.9628853329904191
P 6.022733943015799 7.913292542585524 7.919553315047377 0.14842052952965407 0.3490385669984698 1.5249886478614898
P 8.694302613648992 8.062038537448373 10.787278192460029 -0.8311571765147814 0.8180507210398106 1.227090608292577
P 8.577127235490925 1.9094466827331553 11.683111523099319 -1.360362712216567 0.5006583201917119 0.5313590917096784
P 5.0140185760158 8.290099505912263 1.9936456017230375 0.47227668372522535 -0.32631284326617993 1.4877981548541217
