# total energy = -381165.4580417474 ev
CRYSTAL
PRIMVEC
9.21008210683568 0.00000000000000 0.00000000000000

0.00000000000000 9.21008210683568 0.00000000000000

0.00000000000000 0.00000000000000 13.47988613272609

PRIMCOORD
 96 1
Ni 1.0952813936803336 7.942793297057794 10.733427016116805 -0.5424104644278336 0.5626843841855211 0.22818257735064573
Ni 8.847674661714453 4.221201707649932 8.81647919234348 -0.7138361966034094 -0.6559151559169091 0.13540534821690875
Ni 3.2919780957766354 7.988447674451997 12.274312448119069 1.529447712074108 -0.3610304492530234 -1.6338206164652442
Ni 4.82336609102907 1.933969897668818 7.0715885979129185 0.34479521834108356 -0.5356993709562451 1.7105371925916926
Ni 6.143226128723978 5.136914128956899 4.901178391382643 1.0638677236427676 -0.7032730763755823 0.4123010745025415
Ni 6.546194854592158 5.728072464124201 7.798572620112903 0.45396194457643757 -0.8057341084559866 -1.197864364437608
Ni 2.7570012619417192 3.612737628055818 6.756280513279414 0.23200323664831657 -0.28890072116630894 -0.5031173232551657
Ni 1.9286464701655197 6.208921644954128 5.184431705977257 -0.40113220236991565 -2.615691746529547 -0.16217181767747554
Ni 8.495582429839732 8.425576595146705 1.1578749542303604 1.8763679471779944 0.3916970250989447 0.02587018289854254
Ni 8.510668544459806 0.8731867088312251 11.733108677718443 -0.43359983598031776 -0.6444845454824643 2.4127401758315483
Ni 5.2347344118505506 8.754910713940715 3.8082022812733753 -0.05555279756463981 -0.4277906854977084 1.1631593568562548
Ni 6.5372794950364606 0.24273540003533967 8.317062485827309 -1.1628863057005263 -0.23738095602046216 -0.1267597567267688
Ni 8.853246761436763 3.4789796044738104 11.447928613930596 -0.637897893403882 -0.29921495860812336 -1.1384579974548328
Ni 6.087845904541743 7.173014627982247 5.857765157429469 -0.5265148762434997 0.9929019339571674 0.25386686949062726
Ni 8.663288816357998 6.561953305211783 6.263698608753204 0.8242121126555161 0.18351300235741297 -0.2829982396389449
Ni 8.17644387202522 5.5902067438874 1.975706306101251 -1.7595755860765825 -0.4159715813755933 0.1195203015555361
Ni 6.439146069348498 1.5968164190992011 5.286069567936854 -0.9833343448733904 -0.2791017327980161 -0.45912960482030607
Ni 7.770297667802997 8.894075055765692 5.849326880130988 0.3471938004802472 0.10634468340552652 -0.5643530301371958
Ni 1.2611733940080287 8.43179340062201 5.246142940653899 -2.4713800969619437 1.5098386795939287 -1.4397360092395721
Ni 7.734636229580211 6.369416537121039 13.167625028542348 1.2561209340866561 -1.0155461537192445 -0.43954011272415267
Ni 3.4441102333189884 1.9459522145923318 1.039664470385927 -0.25524755188823783 0.4189036674207237 -0.6633443585014447
Ni 1.0825530600997832 0.7318865489473996 1.7355349929463928 0.2681796865688736 0.847589611039192 -0.9161835580585059
Ni 4.878488432910108 4.166208306919493 11.127053034615875 -3.4188928041510342 1.0135311801717446 -1.9784217165176505
Ni 9.069490281073335 0.20491972358933233 3.560496199882447 -1.9983518797826747 0.21495476580646206 0.4455094429337101
P 7.749621033296242 7.654646665797952 7.862831363522093 -0.9951372510455893 -0.1724246057537353 1.0986238961770305
Ni 7.49472279872655 1.497439632316177 0.4366592065032399 0.43958356436757845 -0.6778986021665356 0.6899537335588568
P 1.7267430484919835 0.1338261781901811 9.225445523730947 -0.026690879027625004 0.04576563627088892 -0.8351714398804971
Ni 5.863921176362347 3.141485352863325 0.5810751371904666 0.7101474348979125 -1.2072969706054175 0.2526893042427584
P 2.6468118386727575 3.948933258078128 4.3137252722786235 1.3782331647390844 0.09158989369385517 0.7863451624064134
P 1.3432260161998695 7.485153523335673 1.5646373129508038 -1.4446136490468475 0.041918751720972966 1.3512828614024857
P 4.496988408616649 0.900927476374364 12.61895280249739 -0.1334453962770605 -0.22324914460477033 0.25228204150201067
Ni 3.081131684300845 5.12435157685569 2.425557113318979 2.0641546372100965 -0.3522647872452514 1.4977876619666657
Ni 1.3706168006199542 4.606827848762557 12.645266007301753 -0.06987872726900869 -0.6605446842691205 0.6256342455451805
Ni 2.7876155751267766 6.396392867842771 0.3837389952727877 1.8858738297859003 -1.1970020164373127 0.9600463208797272
Ni 2.0114911594253253 7.480751104050939 7.046138377809347 -0.1110217771662217 -0.696242394781046 3.720833646330753
Ni 1.0720811966547137 5.0606270182132675 1.6900408709822197 -1.8181900532856816 1.5553235513996053 0.7271455121178058
Ni 3.4332699665864936 0.9521567165155332 10.717735799097134 -1.2764105375736277 -0.08305048876427633 0.04729955641691209
Ni 5.299591810601807 1.9897737856315931 2.8404142132723784 0.603804808374915 0.02901361362353068 1.1574502222866196
Ni 4.974282497722919 6.522055229183603 12.831409136339229 1.219608698093235 -0.9102895611715741 -0.1660446703693205
Ni 7.863043195412363 1.7664845531230073 7.209609047530439 0.8463418546750199 -0.8263533273682349 -0.22359187265616975
Ni 3.713053843221777 0.2766294234867027 8.331796775307893 -0.3490673633538762 -0.20465004144634433 0.16061218649983952
Ni 7.5641483982418825 5.843069550294066 9.815662588498878 -2.1814370505740497 1.1086933645978907 0.28689500359018977
Ni 8.209683058633185 1.8009763109082184 9.756593726401293 -1.6876939694449322 3.658676198965402 -2.262551498657878
Ni 0.5667599064493308 4.39783266380608 6.377819816107215 2.3751424200834323 1.1104373438721908 1.8844694932392063
Ni 0.18744082961743028 6.957664486317681 3.5799746026968506 0.0772408240610347 -0.31495448083056726 -0.32049392259155773
Ni 0.8257704427149097 2.4329076799113354 7.972112672687551 1.0010163355341857 -0.9412258457391145 -0.21630690895898233
Ni 4.7357229489505475 4.214220465353218 8.28498100655008 1.6185500634594188 -0.13769825801614352 0.011687206529941162
Ni 5.049317037289304 7.511457518057853 8.075247173002316 0.2143886088903469 0.30336960420644526 1.0699041596448349
Ni 4.540027122670131 7.202146117935417 2.0246652609836606 -1.7143215993347896 -1.2557738351598824 0.4808718815934041
Ni 6.663061587445707 4.234979990599645 12.048861609321515 3.36713444063182 1.2052172052582535 1.7362898760757646
Ni 8.825708615701707 2.658232340582947 2.1841194138635953 0.6781168888249289 -0.5401931450615407 0.5551281691048182
Ni 4.00664363305333 4.257332860064186 0.1358081878765302 -1.1669864439118287 1.0501966539135783 -0.0926155067448921
Ni 5.411162746198615 2.2980260263026806 9.756553202039678 0.11470925332013793 -0.6423538722927067 -2.051293464976712
Ni 0.9669941589165946 6.22333542357465 8.679496718988283 -0.4446810334951438 -0.6738149190154654 0.270571840950134
Ni 7.756786477236668 3.8151107639208215 6.168841209298672 -2.5869331863396154 0.016740966903764715 1.1392727800466445
Ni 5.401068496123156 4.312961756465434 2.6547960589194854 0.2862625122125134 1.283607569542699 -0.12473475587694001
P 8.02519590237269 7.894256163939487 11.86495560924693 3.286047503351818 -0.06857440663528835 -2.4926145808606877
Ni 6.419712795936803 8.685190391795443 12.692283476859432 -1.9574458855969321 1.5727168071753883 0.22329619579262186
P 8.174795267313993 5.2894607201976065 4.560326143807275 0.4062553825290939 1.000035459678155 -1.3559257594911356
Ni 7.477969659230876 3.074841198168055 4.032171217847261 -0.48527900952216424 0.7319079665034556 -1.966323647702536
P 0.21015012926255566 1.619252179303413 5.564415750742961 -0.5176486841021214 -0.7090009799982951 0.5789252715244159
P 6.315638867239104 5.24035256198379 0.666816397297655 -1.3218861534079234 -0.8494186938281306 1.1719023931562076
P 5.2324871517972555 0.01317225954189816 6.145116037588472 0.20978684845227744 -0.10220726419838526 0.5958233328313352
Ni 2.92889823585445 8.807260821083876 1.0711509783539643 1.0702695134040534 -1.4063476635871135 -1.0977679759346384
Ni 3.4507507025748323 8.122629361814544 5.635077343287605 3.0551524121660156 1.4857312450227638 -1.1211796699903593
Ni 3.2570903044574417 0.5653949722694194 3.06536678662369 0.3990421526101063 0.480723786051314 0.04696685566784169
Ni 3.8730790211972215 6.109959311869457 6.712902868201501 0.051190406830886034 -2.3796763033980435 0.7550828619580221
Ni 2.951416886798332 7.1663557385620305 9.637970630874944 2.056930608657832 0.9293753741584316 -1.5206967053543552
Ni 8.188720911578676 8.914171455094753 9.922490331770081 -0.4641879931798199 -4.0490503914878655 -1.7928124937528416
Ni 1.5715900039927413 1.7859270366168873 3.903249408420931 -0.7575292666159856 0.7319920415768297 0.05972981176046488
Ni 5.184106590076103 0.3563951822718498 1.2198477552410751 0.2825521532404618 0.21746570515377386 -0.7229399586768904
Ni 4.9560189047488015 3.71433404464558 5.769633880995107 -1.1416351096312338 -0.33004659927699936 0.17125963891135665
Ni 2.278601962973172 1.0430970680165137 6.328873755339865 -1.6073894188569091 -0.4396768954123331 2.4428488222914706
Ni 2.960903271449539 2.89529064595906 11.852634361298986 -0.2575929121919628 0.189809376889086 0.8295684918714229
Ni 3.02705929178897 2.8487244704284787 9.3582631979218 -0.1552457799816036 -0.5436541070269475 -0.24219791779313127
Ni 0.980965853592206 7.026473010326575 12.889696062459251 -2.2517713773232377 0.8401313549889338 -0.20385531345919086
Ni 0.30022289102164923 8.905956061785163 7.488832030160616 0.10951228250023075 1.0885006917000997 1.3115590604503025
Ni 6.5600191879528 6.575759218408053 3.347325163663003 -0.012508931100288135 1.6515046640085687 -0.17131337496742755
Ni 1.7819943315236202 0.22939643800588147 12.584201320394545 -1.394447569715418 1.4185945992752667 -0.17734518298380425
Ni 2.678835294432217 5.758428895008061 11.34734162234838 1.0907002704545796 -0.040421084129523936 0.06802161945561189
Ni 8.70964315999831 3.8147976211265098 0.2853596603904681 -2.661878272387938 1.8429047824235423 0.10575821477443723
Ni 1.1666411104546497 1.79362666532408 10.532819453006788 0.3506653039686154 -0.02428329802739689 -0.0018617357990871166
Ni 0.6054210684399797 2.056003486628509 13.077255702136876 1.6620497865142667 0.41253838732432824 1.0571098360936437
Ni 4.214183625024477 6.133675273497472 4.379466838919701 0.3880067207315511 -0.423730913606038 -0.9176354600136841
Ni 0.5265588187172435 3.887723051872384 4.207840641423228 -0.06780179013532193 -0.00827715240712768 -1.7006993805656647
Ni 5.028078587769225 8.760344662430242 10.550976209027553 2.2006992412377713 -1.9210879157931882 -0.5941269189655187
Ni 6.481291405429974 7.665993487050657 1.2798910440338989 0.41593738570354816 -0.9845867292232529 0.08566170113487828
Ni 0.0365953405564104 5.793233795587583 11.10043037105007 1.0427311987744687 0.045306180135967135 0.40578127110615275
P 1.947186365605207 3.472772009080691 0.8794375916106171 1.1749398944309506 -2.0698447456163382 -0.7582558603693651
Ni 6.277767009291765 1.9451233071956244 11.746399747320536 0.3261367226996319 -0.7645504351288253 1.242294312616209
P 2.778423913105511 4.760387549043683 8.59203869956169 -2.513127098991743 2.483631917746103 -0.022182192523994056
Ni 3.6005250590776625 1.9011820050879498 4.966812200062149 2.508547964261493 1.5020479799049165 -1.903366073033393
P 6.8991067837813995 0.26770945888991315 2.755949470556119 1.3090188105269522 0.4445108264658667 -0.9436018021704587
P 6.84692245811758 3.3102140585041964 8.22639751578368 -0.23518729080325304 0.7808957092560681 1.0155862629285606
P 5.1320696257272544 6.255340459169739 10.159035635568454 -0.014067790946975774 0.2812259782298705 -0.04271193704622967
Ni 2.705157709318768 7.605962171364674 3.519746191252096 -1.2888798736852318 0.24339219521154856 -2.289229007949064
