# total energy = -340892.25241918315 ev
CRYSTAL
PRIMVEC
9.06657701689977 0.00000000000000 0.00000000000000

0.00000000000000 9.06657701689977 0.00000000000000

0.00000000000000 0.00000000000000 13.26985192788581

PRIMCOORD
 96 1
Ni 6.552768603030763 1.9613997448587304 11.380530316419991 -0.1373835549892021 0.4073838397065823 0.758799391577661
Ni 4.530577461162432 0.3545920027988147 6.0692453457688575 -0.012968130124893796 -0.9743493677659606 0.10910630531106372
Ni 2.622099324707137 1.6002689269184804 4.699239361536897 0.45429130289139824 -0.5985990958042593 0.15749395258583196
Ni 3.365467951227212 4.18874938509145 4.884459551002879 0.3287674754542596 -0.3342189854871341 -0.3302916254082699
Ni 5.162390927532452 4.757522943421536 2.6266344263900905 -0.7618849724815201 -1.0394378727351776 -0.483882900505586
Ni 7.239978853252931 6.236363208125316 2.625958059765644 0.15891705818560373 -0.4156887600278518 -0.050450700451384084
Ni 5.280591888429418 4.336915382098293 11.727722179287525 0.19778571022634323 0.15820486260992755 -0.1544417960230695
Ni 5.760757792326272 7.8841772634432505 12.390577791083567 -0.6301753279486437 0.8909803193200011 -0.5433545735086578
Ni 1.865266831735272 6.546340400125496 0.3377898227931188 0.19826085009054886 -0.8679720313502859 0.1221435981109961
Ni 3.110216616400774 1.6941261292814005 0.2978733120586722 -1.4143962449232028 -0.2326349566950445 0.35823154635164756
Ni 0.45124987071524186 -0.1393931773578514 4.594261096150565 1.788782546657842 2.1096595636204314 0.3714025365159668
Ni 8.353662739946026 2.4060337345302876 1.5778119230030325 0.40701411507198937 0.9026724109459486 -1.6177239680136979
Ni 6.87627312751988 0.8384198970390222 4.967621819448944 0.5298035742971005 -1.1695899429729468 0.025618729009368783
Ni 0.7635073067643287 7.571008636432275 2.5501469717364906 -0.11389575627990707 -0.3011440573100362 -0.4692001016824307
Ni 7.52492322688719 3.8665776473824076 3.81610401469748 0.8216942313296688 0.2502657824029303 -0.2884392081488581
Ni 7.8492528098592125 3.947560310781326 12.543977016181973 0.0760246922657465 -1.035011718643024 0.9218883217527671
Ni 7.947906231315059 8.873349851831673 7.015239269113503 -0.5690422080827491 0.035532388578654935 -0.11376951511468793
Ni 7.034901954079159 0.6653434804521827 0.3192223802970771 -1.207951830580597 -0.1560155682680926 0.4933111357980214
Ni 1.686773135549143 6.437496146419271 9.21734483974237 2.074540865540427 1.4928588572064805 -0.9624770418084069
Ni 0.06574809451074064 4.907538522082364 1.3473141559790716 0.06733719179407757 -0.4896270020782149 0.34850274909965784
Ni 6.3891712924205875 1.8023175894626915 7.1603452964722125 -0.6084191672184747 1.3221252660019231 -1.4567250875984008
Ni 3.721820683228005 4.57120479151292 0.6541027386158662 -0.2535652790898085 -0.4550248386233131 -0.805023198431891
Ni 5.823172106571476 5.480174442101651 4.695629957338609 0.665724428697847 0.44070533667684747 2.2213781097433616
Ni 5.428866684357083 2.9710355969385263 9.27569279432183 -0.27991343006603403 -0.9200312139393703 0.6825016481561859
P 0.06321398631324873 5.750458161155072 12.592690826322595 0.9967231074754704 -0.3413679378270895 -1.6736570317358916
P 4.037138088925226 6.112658835150077 12.381965449842786 -0.13787669257553672 0.3503354314330225 0.1580200002926311
P 2.3688335701857106 8.451935365178995 1.254821473414801 0.6152734711361468 0.7034363414263239 0.4118475319048907
P 6.37884446151918 7.76530537586788 5.924948963712604 -0.7708074717821305 0.11570941244987815 -0.305434457155274
P 4.778938197670108 1.132886896218275 12.445064290631498 1.307346822141168 -0.6913367299493126 0.4223324905966146
P 3.981895436877576 6.087480951556391 8.163559292250456 -0.6286000130417239 -0.20177400545012994 0.8948878819045233
P 4.860854718472754 0.8680358699445938 3.934868916667376 -1.3416790197641346 -0.05793158220946152 -0.4832136423527033
P 0.125788778966665 5.689267834769122 3.5229199361262595 -0.03515160820046849 -1.1767689772198895 -0.1667776918806031
Ni 1.4294636878038118 1.0702549841314268 2.446615731997099 0.5732626739219998 0.5109087942751265 -0.35917925497689757
Ni 1.752161286963496 6.046844554629169 4.8147004029444815 0.6952934006042155 1.453653904872245 0.5177391869333987
Ni 6.051414109303716 5.6304076186041225 9.424925020752735 0.06730273901171635 -0.5119675745569441 -1.0183388859730333
Ni 8.636141004708307 2.297452411549383 10.115077375125479 1.552773788394558 0.4746878642698793 1.2751198437866622
Ni 2.0840614615094206 5.012456948062242 7.226164110281488 0.39303219897060054 0.7363839999969383 -0.5573187489982337
Ni 0.4724049142115132 9.226511148821672 9.02540994354629 0.5075535046496484 -0.2370492837126563 0.10583277676611451
Ni 1.7951005943814624 1.0345780046783657 11.477426635304553 -1.440327620076984 1.2236031639646088 0.8128789470308839
Ni 4.087856519182005 6.920771886136303 1.4785002680762087 0.15218899543315081 0.31011026536438846 0.33000340474388973
Ni 5.409464210143728 7.7238620536112235 8.119636261256721 0.5444971717535333 1.4450797900499885 -0.27056515608191467
Ni 5.406263708556198 2.867857953691808 4.87892621922138 -0.47215969853138684 0.17084671974365412 0.20884659602619512
Ni 0.5829328312174685 7.394301055862983 6.880484552413386 1.1870348779222717 -0.6005703605980173 -0.23409765728350007
Ni 5.094663599320414 4.34127640550793 7.426167353114235 0.7795957594977219 0.9622872943951041 -1.0635748749926974
Ni 8.56699022394884 7.151117334671113 9.743228956826535 -1.035405868757649 -0.06637739898396955 -0.6310474461409519
Ni 4.834534446210432 0.394795017358094 10.29829385113298 -0.21173780153106114 -0.44540916991042 -0.18597997584066678
Ni 8.25786529016177 7.221891032666182 4.76694220999175 -2.033109337868518 -1.7367979260604345 0.7134207063325455
Ni 7.310652818903912 6.274107367074006 7.261024191170707 -0.5794117242425313 -0.7158123464931737 -0.2015354070767626
Ni 2.209669815599055 5.358664180696333 2.5045647572002094 0.5313716901151687 -0.3550611190434659 0.12585627107589292
Ni 2.126211976751424 5.622057301430992 11.179491670524083 1.509070948189969 -0.939355625299595 1.94321380115795
Ni 1.0718144353298835 3.2823365091420484 3.6183166432188187 -0.057264638049423965 0.647960934066839 -0.33741589515787695
Ni 3.7754041517331105 2.437948084638236 2.6607111550493867 -0.06361911951254205 0.7118926997237933 0.15985911038389886
Ni 1.0872729486634207 3.0319992589060956 8.280480052512411 0.3421294985834624 1.1773734435731078 -0.0021083045922544335
Ni 3.7029984699257037 2.6348741313270514 6.7884442920282035 -0.7815022324918154 -0.4150351856042529 0.48804963028876597
Ni 3.848888756172008 6.749341053226905 6.056611977746013 0.28505229395449616 0.7739966681433896 -0.017880994045478882
Ni 0.9332862093925713 7.6444660411409675 11.65499010071765 -0.17436476019924163 -0.08624251333901276 -0.24793687715943752
P 0.0897736162013803 5.650743950221203 8.155836382187402 -0.3579628660712932 -1.1526453446988083 -0.5581602710629227
P 8.551033048894867 1.7602577399880406 7.80407949793369 -0.6245219863176084 -0.38611773123895443 -0.12708962926236178
P 1.8575965078172822 3.205352206083359 10.604349748695181 -0.7400143976606739 0.005302128939203772 -1.6123891860643456
P 3.841055233872785 6.034695341803984 3.9189987807500595 -0.19792043603199463 1.1134720169334564 -1.126725539509253
P 7.118205661122292 3.9571708821206513 10.436127577292377 -1.2677502907954683 0.2565940386138032 0.943306382417227
P 6.665348286351897 8.077784943046979 10.150600222774044 -1.4052626580530507 -1.32241965731389 0.1777107938533391
P 2.31311945614783 8.493025090942977 5.803052466138366 0.4080577258451553 -1.0501650293446947 -1.3453001614564897
P 6.979024641660044 4.219566679414437 1.609699073380775 -0.049507619811824416 -1.0494070681327474 -0.48657047464007813
Ni 5.395909677924585 2.773746887180302 0.7057903859256394 0.7062046482000806 -0.011132876688367923 -0.4488079111793238
Ni 1.3230855429695634 0.9905597746289089 6.755907068098547 -0.05955394830423291 1.0473131617181963 0.7975083781120845
Ni 7.091332327679121 0.9011343149741607 9.13661150720367 -1.2239950000863888 -1.1732848753260308 1.0243102730651197
Ni 2.6642861062560814 1.4974448801644353 9.268832115706296 0.21536922763606134 0.051937569409555705 -0.7918655780040105
Ni 6.3733138497107005 1.9017235367875616 2.887148002353646 0.15369206234123853 0.28719993642511826 -1.6570014254570815
Ni 4.405658166904674 6.960483492236534 10.337837725563611 -1.3599449079528578 0.5912629671541624 0.2420289963154348
Ni 8.021789765130308 7.3042971486125285 0.2250968072627948 0.5453194105445125 0.5366452798092822 0.1480646888521321
Ni 7.5056114184411875 3.767343965015507 8.386121084658086 1.3161155694727333 0.6245605528650277 -2.192013540538315
Ni 3.201190647361896 8.320225204946562 12.422358862513505 1.0137823769506022 0.033956559451102805 -0.05436803322791927
Ni 0.10040327076574347 4.74337001713787 10.233670012137408 0.048813421958277224 -0.10295365544610656 0.275408600217145
Ni 8.769891144706163 2.4919576822498968 5.641079886079141 -0.469186731945992 -0.30210307878919584 0.09112221002881726
Ni 3.8593062528407676 2.6215825298332303 11.077964144243172 0.08653639043034773 -0.3904994052464178 0.7520787850243756
Ni 1.466328388809186 3.7546598241629447 12.592717119395129 -1.0244596541587905 -0.1363581990484813 1.0752505115584126
Ni 2.7622595344567875 8.358205094890367 7.963662128365511 1.1917279125225668 -0.2751113806917004 0.04690489208165471
Ni 5.420262503035367 7.724242849834102 3.799834949403815 0.12007154607331579 0.5774006073497734 0.2043502508177384
Ni 2.997174537666144 8.423765511262689 3.4406470988579207 0.32063713303764135 -0.3922703811039115 0.7822571083799689
Ni 3.3264182052286517 4.219013618233589 9.265182818570372 -0.09606104209133133 0.4244526222634109 0.06685639550291711
Ni 7.14521499321649 6.036064394891001 11.486821422117583 0.7570335579264897 0.5493051346651379 -0.18392617863543162
Ni 0.46067276391614825 0.10127819542069147 0.3372703079461911 0.6122369983026682 0.24522153511080347 0.03652329173701452
Ni 4.721528633782743 0.2753038825917077 1.636398328550629 0.003048814128652814 0.11544973103058827 -0.14912449757521415
Ni 5.998864230546424 5.733784726539016 0.3411761892037207 -0.008352228619437229 0.03887276580579757 0.6057058820523696
Ni 8.233204201441993 9.095317783463145 11.315427762172796 -0.48796195567096606 0.1782738654456607 0.009846296666460462
Ni 8.950080290741775 4.951819682857142 5.838005026110284 -0.5061357983665153 -0.3122345107962429 0.3653223917601579
Ni 7.718911702713797 8.698827316255567 2.8447245831519132 -0.2732087643523488 0.6051397251362546 -0.768149208223677
P 8.623212066283894 1.5706665538780116 3.473396480683182 -0.6880035518110216 0.002971938144130365 1.7099905760596035
P 2.065819509118173 3.3189382794221016 1.3877474615874255 -0.5275525734793947 0.004127134794496118 1.5922379079274516
P 4.499134573044715 1.1773312553742867 8.191174271670567 0.7954638368782301 -0.5383874593113696 -0.0499508779968301
P 8.589076404875819 1.7894611836521601 12.549921970547251 0.46327190912345373 0.4415568860438654 -0.17998390615823195
P 6.291451728368467 7.799740234308216 1.3738937323360207 -0.9002234351848238 0.057999459332919466 0.5918309238424905
P 1.7597862779978095 3.282962102936778 5.973702666790862 -0.9526096620960238 -0.5977706863656931 -0.31590193234550107
P 6.865438568321302 3.9863743257847712 6.069683261425169 0.19560335786304375 0.23103573052872467 0.048251635917536256
P 2.362142436555124 8.527913278220074 10.151396268211395 0.21137013377899724 -1.037641442956387 0.35401647982903545
