# total energy = -340896.3949869278 ev
CRYSTAL
PRIMVEC
9.02569675342186 0.00000000000000 0.00000000000000

0.00000000000000 9.02569675342186 0.00000000000000

0.00000000000000 0.00000000000000 13.21001953004795

PRIMCOORD
 96 1
Ni 6.323953701802451 2.098627928316262 11.487908612645631 0.6884306120461111 -0.9697123832145816 -0.5040503765923964
Ni 4.776768767058008 0.3811479526677753 5.9912592995003395 -0.8273619711384075 -0.0684579356620821 0.12044075648727645
Ni 2.7133230046245713 1.4708275403450848 4.742740085218238 0.27066414355362417 0.6124447434381001 0.3158451109656367
Ni 3.7310695944432513 4.450119776430683 5.046253507398298 -1.3020680902407318 0.1281440386688051 -0.944431754270922
Ni 5.114041002745387 4.524789365540126 2.8267724023364122 -0.5358919465830255 0.11022499229653919 -0.8967820136034426
Ni 7.22348171575319 6.225772172691788 2.407776995539224 0.44017388965340964 -0.9597442162582761 0.4390523744544567
Ni 5.115458037133176 4.372904940841261 11.546019658520434 -0.2821898848050366 0.7676370444739489 -0.45515647910517093
Ni 5.713897833617224 7.805223973272839 12.439069929922658 -1.6128661257007644 0.03952916844287386 -1.3125553629253008
Ni 1.798983822327575 6.520894404614981 0.4638314579104562 0.40745480215383373 -0.5651791255829169 -0.8117952270484019
Ni 2.7151281439720734 1.4940687094441802 0.4159808240868584 -0.13102315998881306 0.1141981180116743 0.695652583715847
Ni 0.4590361052338157 0.21952480118913367 4.805501170052207 0.33807281201558553 -0.8572536164915172 -0.14828914615811237
Ni 8.53139542998617 2.265097878942948 1.4001301603698209 0.18581876767245417 0.4334329713851503 -0.027511832267023584
Ni 6.826459367663476 0.8974024623690533 4.799953074267658 0.040581263856472045 -0.519119612220693 -0.41297496064111455
Ni 0.6213325736890757 7.424772804393199 2.2955578002927064 -0.7430192459252688 -0.5489886318659837 1.355134116827776
Ni 7.319704668671813 3.913867030468098 3.74418212666351 2.0022033923182807 0.07186516157141817 -0.13230716890755922
Ni 7.405286325136909 3.9779314259109637 12.601183176734148 1.340600184877659 -0.7329541483797828 0.3821656885697418
Ni 8.04029824480136 8.931712157385073 6.674045134566119 -0.6424140361066807 -0.6544686532783697 0.8430140758533676
Ni 6.736915430330613 0.6469195213702508 0.3462410705354445 0.7565715306884067 1.4759060314022259 -0.6786483358483667
Ni 1.8546091913208664 6.418831825907187 9.390091191896397 -0.3225582613197541 0.27445986315063053 -1.6924206854966404
Ni 9.102685930683778 4.7416227039621335 1.4321379887100625 -0.5050435937436011 0.9383539235079581 0.5456156016286926
Ni 6.552565574466914 2.1154157242480363 7.003542635083804 -1.0320526360147 -0.5892212541337852 1.1011916569042066
Ni 3.331177074791009 4.296962728491828 0.3656742981809833 -0.1412857182570857 -0.2547418158964129 0.7806902781134812
Ni 5.955064450443566 5.672948247519129 4.766557996338861 0.5125530147467688 0.8398634460395277 0.08738999667989467
Ni 5.210688163410674 2.8752079013086007 9.381346194327422 0.015391394854405748 -0.4757106491074387 -0.6018463990969636
P 0.2912682594162754 5.540333685354854 12.388342806548817 -0.5374569770773001 0.1434215336531659 1.1103607249979845
P 3.9233079092555365 6.079862759233156 12.575647675524376 -0.009490970209570751 0.6151402879923922 -0.573278871871916
P 2.2900990589058585 8.526684016289186 1.5025600849348324 1.1827609331372662 0.0659156288562026 -0.6634793414174123
P 6.314693336949763 7.795945557026676 5.760506531569741 0.25537456438440537 -0.5091599299048198 0.6908016833814489
P 4.751478764799498 1.1219211815630528 12.52644047948113 -0.9593775769474768 -2.072615880603572 0.09413528582352819
P 3.9404928358437603 6.167998687874968 8.316553160264457 -0.09523571797655857 -0.44233978695647685 -1.2080963265782614
P 4.702920516351679 1.1256848971025957 3.7026097674905256 0.15633721327356945 -0.6247065915245886 0.022776117354251096
P 0.17573302318839534 5.556706299236702 3.691051460248467 -0.17995690957503846 0.4922420711035587 -1.3058938917447251
Ni 1.2510157219996985 1.1004219719342974 2.6758212346802055 1.0031009859773563 0.21409627446090868 -0.8243607224182383
Ni 1.7942092287534308 6.484448641188905 4.9190814403667416 0.6286408935819884 0.3146541759813291 -0.7375682501130266
Ni 5.956589793192205 5.6326755886763475 9.199457645964042 0.19503771516756088 -1.0125665022656303 0.6085178975798681
Ni 8.460381248055418 2.20786593593038 10.198940738434366 0.7761728498591021 0.3239607980942356 -0.05391397640963618
Ni 2.5217616170675994 5.097857928495026 7.019685093698845 -0.35197965190466474 0.8655827051825027 0.4629942299820349
Ni 0.5973197075189229 -0.05983405138199357 9.180500975106245 0.25979943292497837 0.2166825471308462 0.3306351247906177
Ni 1.5573659206643575 1.1664629949626784 11.454566786327584 -0.78779783569254 0.057147138634953194 -0.5558262236131072
Ni 4.122712627277406 6.795799075846146 1.5370256104966988 -0.5254784645591853 0.6892083707524002 0.5812438923552635
Ni 5.568647296020431 7.681842698871039 8.031903444265799 0.0009821614076112118 0.9699160145849554 -0.5081975659915505
Ni 5.403576328388059 2.90485731509133 4.820428769886379 -0.6856435362192772 -0.6293230072506775 -0.08099360623524761
Ni 0.8359013647996412 7.496879095629189 7.062089622111028 0.13040095302378185 -0.543004903478723 -0.07620955458304295
Ni 5.219966579656837 4.487621546375049 7.089936604255276 -0.583144451812086 0.5844652275060386 0.7803660620048432
Ni 8.189980399496271 7.092527881788617 8.963473584204381 -0.15511671060290705 -0.10388490901112431 0.5968067797905271
Ni 4.671790888303997 0.19483861804236244 10.252256431632528 -0.20179354583415568 0.31477784604338693 0.8676827822446411
Ni 8.055371158353006 7.336618824357912 4.451683929675294 0.3733948843556472 -0.25893142849772827 0.5481175421149399
Ni 7.239366942011212 5.993459764364945 6.9718516086990485 0.3904284427991663 0.9864788040396429 -1.0127688480844237
Ni 2.384056561943367 5.278750942508258 2.6381858844241246 -0.5828233210272413 -0.1997119807147786 0.21474676356071404
Ni 2.263121251357433 5.024090909059334 11.402875718542177 -0.15371905892443202 0.6743026572851613 1.0823161601559423
Ni 1.0858996258836393 3.3808093811505926 3.8195981408931456 -0.04564839396673429 0.025905664122168288 -0.07549838744863127
Ni 3.559003711839307 2.7078444067049006 2.6107883819774047 0.46397716272059447 -0.18814073093741146 0.2625525701900834
Ni 1.238145078452005 3.41097325964736 8.175997790110518 -0.7824183165481816 -0.6604930050955786 0.9407363076972056
Ni 3.742730794628118 2.709288518182903 6.913569074586234 0.540835920851862 -0.9192660536385717 0.6035016753121994
Ni 4.194033682897232 6.802035832291767 5.987097550734672 -0.34512174844256693 0.6181145401293677 0.33881354683635195
Ni 0.8885320076154257 7.437417805522455 11.341131829730525 -0.4291212313836738 0.010812003013839444 0.28625068513797153
P 0.35500502206756945 5.503761562174452 7.839341106940638 0.2568156677063061 0.8825650986731123 1.0099439770411187
P 8.581027736345751 1.527978252087016 8.029670486892938 -0.434282206759323 0.47236127301923164 0.6005009408126626
P 1.6476228880394854 3.1507985254918163 10.440010780305615 0.2312059375580018 -0.47186582144005185 -0.6588174171653686
P 3.998735656890931 6.27692982180001 3.760707274820222 0.10083429511025861 -0.41779346507568044 0.16553713460528263
P 6.9137559065087 3.8525283954399607 10.29349845030492 0.2075867554771651 1.1443450523632293 -0.05395614250148127
P 6.397097948163255 7.579744017376294 10.25686675752605 -0.8042783498460665 0.5090216045547427 -0.7850796654304285
P 2.373974858687565 8.449830208569265 5.686834281949793 0.14383368148992004 0.41257052611384426 0.5414527285002546
P 6.815438991946973 4.006326267847179 1.5069194964590509 0.4878747952737985 -0.2264977334490551 0.46675061170067356
Ni 5.198665935356306 2.853410843687507 0.4530240886369584 0.1149571076648859 0.40300550813322855 0.6762908913597836
Ni 1.4965507760469965 1.0508257683616646 6.977809471115481 -0.11337845032385635 0.44615607537877355 -0.012464965236230146
Ni 6.8247625366768245 0.4655228734790661 9.211439258383091 0.8555407475654685 0.7713075513470006 -0.8484833264980549
Ni 2.8092390838541195 1.4396798609039283 8.974292686883638 0.1417490310467494 0.796295588750906 1.2730416211013946
Ni 6.442849204925707 1.9110197959303215 2.486509050750222 -1.27239704553886 0.950504442827563 0.6090912535848348
Ni 4.042275617952693 6.838635032562382 10.359574673550576 0.5223394047095714 0.10306087044793219 1.2541501835135302
Ni 7.972731879024339 7.176620298292022 0.1069842911387604 1.0423452761899596 0.11451127837671891 0.706469728936009
Ni 7.805530846961915 4.0348745466279325 8.185958549030037 -0.35819220847327987 -1.2306855247326869 0.3857845162692517
Ni 3.1165189292827424 8.204060486406792 12.439743246899278 0.5698852728093347 0.6459320765622681 -0.06403666666593488
Ni -0.03625893150361014 4.8989586494904565 10.378610770539664 0.6932555442385803 -1.3499500015236752 -1.6071294803273029
Ni 8.616579955794814 2.293907902929089 5.920175619704711 0.858581077053689 1.3087948674416041 -0.4927053838932225
Ni 3.4777273127180046 2.6375071520294635 11.627935076970752 0.19393496902168536 0.5835213755355305 -0.9620857199072593
Ni 0.8642898887481402 3.289703998282138 12.857021063607316 0.7888962109630414 0.061140576065062444 -1.6510922590614987
Ni 3.097348349412265 8.381207836273955 7.764584871142514 0.6312119967432742 -0.7034517680452917 0.70408014565791
Ni 5.81287362404079 8.013329462949672 3.534803111177014 -1.5449483788128684 -0.1735720890946172 0.12310441936236863
Ni 3.08818726722369 8.348489685600471 3.5808666570465846 0.5983129320224083 -0.3760235802277459 -0.2547690695899225
Ni 3.3813238458646304 4.306385555885792 9.451861255228588 0.14760343294499742 0.003368659361916779 -0.8016226573907742
Ni 7.239863355331775 6.007395440127665 11.404593308631323 -0.5828960832467058 0.1711349404080343 -0.250265268182298
Ni 0.6530705336968657 -0.05600535082594064 0.14995473073638504 -0.5987741879295431 -0.34087762845423225 0.5350185428391366
Ni 4.61059666442366 0.21265985625058142 1.4965236989567838 -0.9453933468532428 0.7710717811871107 0.38757374695919056
Ni 5.847848198898652 5.630392087401756 0.4023854170911429 0.199916640526417 -0.24992871077848575 -0.1327501699822488
Ni 7.861138164561731 8.822609535222018 11.344408157646242 0.7690033286938562 0.2719471240311058 0.1749957089150212
Ni 0.3370303470148127 4.724428751677172 5.705512961348075 -1.123372306766304 0.018220636773084747 0.9765903412813374
Ni 7.796207302232063 9.003692088866737 2.471634702526801 1.2553346907399348 -0.4892642194221574 0.20010870193256505
P 8.475309750459264 1.8188223037566282 3.7116589310395565 -0.661303673922332 -0.14741651374517192 -0.7335470447687754
P 1.7770243021652066 3.2929261720174305 1.6396676389350417 -0.350588427984093 -0.672340648462784 -0.03525445232691993
P 4.898056079816706 1.06528493453516 8.177556527937085 -0.36145108173020973 -0.3686026051733265 -0.6459482745121843
P 8.491213028110762 1.5827461798902434 12.500812916164636 -0.47427340244027993 0.18872771378913303 -0.5940641840483833
P 6.264862465261955 7.8481772640466625 1.3179205042058595 0.21516791025853266 -1.4822635981891374 1.0743719656082011
P 1.8722273513524914 3.1570172305439628 6.092329051567008 -0.11072275786856414 -0.6569184003704428 -1.7939008417210136
P 6.928133841411558 4.002725014848911 5.96289695007238 1.2241160990452853 0.20502387984599527 -0.06135166363460402
P 2.5189185225952833 8.58781506029236 10.237804486016422 -0.3807114726217185 -0.506322974676657 -0.22022398462520135
