# total energy = -340866.0374915684 ev
CRYSTAL
PRIMVEC
9.31559749506158 0.00000000000000 0.00000000000000
0.00000000000000 9.31559749506158 0.00000000000000
0.00000000000000 0.00000000000000 13.63431856904695
PRIMCOORD
 96 1
Ni 5.127770630167 5.186449578662635 3.6923916981726794 1.0199764215764562 0.1865034524443046 -0.3132809497828863
Ni 6.223182421666151 6.706289306724667 13.084201007772933 -0.34908818928948265 -0.30330738350994213 0.4243924584494368
Ni 5.494944904647938 7.507589054740063 10.962114423864127 -0.5037117623060552 0.3871808823961461 -0.01670805678330026
Ni 1.574233501719123 8.491316148110279 9.388523698370786 2.843417438848432 0.16747883171268574 -0.12653838474458207
Ni 2.9251255539728014 3.3761588369245605 3.9546071359017025 1.4567963071559684 -0.8615908104142904 0.3499111994114103
Ni 3.26153972559097 4.1711798722417415 8.8275803386091 -0.588748942483057 1.5453425289274934 -0.04077923879989106
Ni 7.934616042998498 3.616054103103252 3.5403276112281903 0.13246066376628798 -1.9433467271913885 -1.097473070402039
Ni 1.5798228602041808 3.8681714331692696 1.6633055185370078 -2.0596456935961496 -1.515293789171229 0.3263822630515347
Ni 2.5985113908984347 0.8039928872454466 3.4148511710373746 -0.07341245145388002 -0.9560636820828954 1.1083809755637943
Ni 3.23606156649658 2.1277010945070454 1.7319400460542782 0.3874817014660165 0.13107998136867746 -0.5987811299080785
Ni 7.85398023125406 3.5957740473999658 12.551944098876058 2.254391588554905 3.0671226971540144 0.7737475282470611
Ni 3.386536412511818 7.369941786448034 3.4464422251949225 -0.4672275513370921 0.15014882507467045 1.1397368641672565
Ni 6.399191320360629 2.7139689060047836 7.6407536575270765 -1.2734627677992134 0.5381694297632925 -0.235733136004394
Ni 7.249966206566263 5.298981996161803 8.493812728233605 -0.935092479147867 -1.2288692974595545 0.2520586126372949
Ni 3.0125524362765845 0.004041106184696965 13.624474919856876 -0.18224184895447323 1.8630360059557785 -0.782267392792614
Ni 6.857369666575787 2.8058113815117625 10.683034028466189 -0.07958464170286295 -0.6788491390052632 -2.19178805479107
Ni 1.0398721993526236 3.348482196826048 7.825525738766378 -1.4199099756525801 1.0845769311656612 0.7738701698678543
Ni 2.6433753083385008 5.541979356299702 10.93713651235415 0.6552893494074521 -1.8763746320462136 0.7395099472204296
Ni 3.6021738628653575 7.216131956536712 0.32253113670103184 1.1317196502897349 -1.3998193755502926 0.9023646498975427
Ni 9.188970558617749 3.424031692349083 5.75473269767495 -0.2496055231111121 0.20952613859172303 -0.49705980420717616
Ni 1.7052760114013086 1.1543515767240875 7.985565840269045 -0.1345018625660329 -0.8222318490006936 0.25464514241754854
Ni 5.525071546882401 7.299562447523678 7.840959820663119 -0.8478027554912626 0.4233779011419934 0.7595113300430211
Ni 1.6065679405551836 5.148721408888493 13.26861909630818 0.5860680532167842 -0.6309453733454488 -0.6557205234075997
Ni 7.583129234665623 9.19253843245071 2.2147721209872797 1.0005198555137413 -0.8842409437136384 2.766098453251294
P 7.570674280841418 4.653820977426503 5.365282034951814 -1.1213421637101526 1.6935745965954254 0.0016149098956036705
P 2.089264939324796 2.514987743936717 13.411097433450793 -0.13889819186151564 -0.5292649281848111 0.3251262791572465
P 4.015208823716197 7.933255965767134 9.507578897222018 -0.4162096655283284 0.42379596251601853 -2.449261410686033
P 1.917271063142085 2.528840037382186 9.635359084668425 0.6230644279354753 -0.10852420755534858 1.5291646336160505
P 1.1866953311576234 7.6620416608771675 5.2078596163396496 0.5870139620698214 -0.7282374596304039 0.8101870020210176
P 1.7393338357702623 2.4121808102015496 5.673362816849476 0.7739059082017962 2.8026693103967926 -0.027586908479333136
P 0.29253770751046293 8.949159132816334 11.556461653052018 1.9599000035643794 0.619698596787036 -0.12758816616533508
P 3.7678703951549033 5.479015232965523 12.744461167856153 0.42822623037323027 0.3865321930685537 -0.36402552732560534
Ni 4.447638858510187 2.0498785932000874 13.353151622476451 -1.2988637243708212 0.4098811522071392 -2.408935200263161
Ni 6.793837291795627 1.823081057071382 12.926479558481816 -1.2964864823878963 -2.255453968381148 -0.1665997715418421
Ni 8.786676481655697 6.002738123015462 12.680121130774904 -0.8436221417510117 -0.2236713197438535 -0.4247850659021652
Ni 2.920747223159506 6.802566006629792 7.541155015562333 -0.06955373982942215 0.1119067508743363 0.8090312911500196
Ni 3.235362896685948 7.713855014033656 11.415633108222242 -1.05675013876138 0.860504519328647 1.7179427410271446
Ni 5.101584485664503 5.300118499053765 10.120454849787876 -0.27122670092531354 -0.3976892381266377 -1.3635678494174257
Ni 1.301053605761911 5.081835419017298 4.434589569567072 -0.2825058733835586 1.33117683468123 -0.9050812774977574
Ni 4.069174079889432 0.38577100172047357 8.041329938314721 -0.2821659735456366 -3.160394606535983 -0.7008734657951543
Ni 8.559375903263337 1.6234012251926835 7.176901180889837 0.36162540252454495 -1.6202889005273968 -0.8619317386934768
Ni 8.526398688201494 5.7272572744819 3.3845419430923993 -1.0988995184359205 0.75370295089136 1.0557039568850528
Ni 0.8383050274254705 2.4966173857158265 3.4967389990824644 -1.212058910770435 -0.5162065523389561 0.8300413177427833
Ni 0.2978103356813676 7.64839431057615 3.3136847140175716 0.6174393684392141 1.484835472681372 -1.125611223399152
Ni 6.445294212264882 2.676622675727121 5.131467059245118 1.6526097241472892 -0.23806949744705452 0.5369928929566881
Ni 1.2815187978566331 3.5108996388043594 11.534688307073475 0.15706252147536823 -0.9142441749439479 0.1353588112496895
Ni 2.6577399596450997 1.2658499629035205 11.559489222231424 -2.6365904443554267 0.9208771068794335 0.3041499340158955
Ni 8.046365950309758 6.672250113550664 1.1928622566861373 0.2030569859276116 1.7504283723596754 -0.21531009226335177
Ni 0.6182044743216123 8.313034243631877 7.232501324419952 0.7754781377849225 1.207949259477436 -1.4126324681545606
Ni 4.558671464815865 0.48282275933552643 10.801911299405647 1.4097384344362174 -0.1066403602690744 -0.7981192722232062
Ni 0.9601400005632708 1.198684505108073 1.5587705414702098 0.40402623608825905 -1.289416205804676 -0.7542883910811848
Ni 0.7893711254485349 7.047268121105634 10.859407167021942 -0.9169970550987369 -1.2663030168259803 0.6023624195014337
Ni 6.457367226592607 9.148466340796029 9.321061073015883 -0.15273921150966596 0.773069785453746 -0.7759535347594443
Ni 5.626928289675109 7.39691044113844 2.0580325356700393 0.07779695367482085 0.2363697411471284 0.3065120064901689
Ni 7.299199139222149 8.858332057434142 0.04643545873411471 0.9544138051842982 -0.5495583883265246 -1.4436376582868236
Ni 7.667742806531926 7.951244384491546 11.082219490550802 2.008890060309837 -1.1277807202466446 0.5863573023224289
P 3.1447687112406326 5.286853088249227 3.0908183600233574 -1.5815025237878182 0.6024629496350399 -0.4499309690401735
P 8.210339097066411 3.0254545387795932 8.662304871325427 0.3903785633978374 1.7402164648236804 1.5504240572154588
P 5.581328440034509 3.390681853388236 0.9412805734749373 0.8324368145581534 -0.6239756268958351 -0.593055797388527
P 7.77779727510272 8.71353972587871 7.434126253051451 -0.5157239562755828 -0.4137725168417455 -0.1578117409365669
P 8.776988260281595 4.549840278409473 0.872344220599474 0.738556839278541 -0.21676276554947832 -0.38387572928231306
P 3.5768820157204697 8.891737789979837 1.9777944999377888 1.240367270796825 0.3845228759480087 -0.2599938083239716
P 4.363966161988868 8.780388453360006 5.820176633057001 -0.7483517138817757 -1.5309947448462535 0.20613511063230305
P 5.333878224303515 8.982210872657976 12.68843809620067 -0.8793406781985437 -0.09741755611922577 0.8965043344620237
Ni 5.612489113588708 0.4774709485860834 3.6681636922594474 1.2756479483759904 -1.9434896805271562 -0.8132106193386899
Ni 4.5996042001214406 3.8754655459922707 5.700890407388386 1.0130035898030492 1.5259816079023782 -0.2507622624233746
Ni 8.902338939906498 0.18146318101614695 9.138251788164585 -0.5778893740607338 1.3140717995698272 0.8214859719736046
Ni 9.064663225910058 4.974286846167305 10.420082658536634 -0.8895091340911132 -0.46363597733109185 -0.9465837676169182
Ni 7.1951439154253185 6.711655090870323 6.316234061725396 0.7723791871446246 -0.14063780026044168 -1.127398911427194
Ni 9.266401804830753 1.2767398963519085 13.003268028469039 0.4809718975063781 0.12022298404951554 -0.8690976603142969
Ni 5.310822120552651 4.057184905938983 12.16238444366246 1.6322735836930986 1.377424809905176 2.7346394634110642
Ni 4.22160520137444 3.0157476862105423 10.657538169736597 -1.7032820536911764 -0.558069254011013 -0.040196883933859805
Ni 1.1584877020030304 6.117571493090979 1.7430796375149988 0.4365766592204545 0.9219101761296381 0.4897547859053307
Ni 5.518578575442258 0.6582978742946812 1.2047377803473907 -0.5800244181258656 -0.5167642246146391 0.8283474749801282
Ni 6.822892640320453 4.975507189436544 1.8164725722225483 -1.7140824867407898 -1.583165513312538 0.008848965750197663
Ni 1.9255153669075458 0.4855978758233577 5.71714239874344 0.9532668360640485 -3.6292519801670142 -0.015722810051895502
Ni 1.388033339386889 7.545708479608159 13.054300734557113 -0.6149731662869086 0.6421831510427972 0.5447699657989457
Ni 3.65200299375965 4.548638566335186 1.0814169694123126 1.618945499125625 0.3451921966691861 -0.20940812495661998
Ni 5.246758756716411 2.7075970373318174 2.9458853629460546 0.25442377043536185 0.48307197456851647 0.1546315434363724
Ni 3.6908024572434277 2.5513744676744454 7.281803192497154 -0.42660694960225237 -0.8215150254393271 0.16224972210326252
Ni 4.5251912074903675 6.420840768892753 5.682906646462713 0.14645723515569617 0.3724795716302295 0.18719919295974857
Ni 8.680851294338597 7.110148404062537 8.648970525099573 -0.4570117871463549 -1.1847648509411726 1.5666801140630051
Ni 2.473086186493732 4.382550778951686 6.350224813792529 0.05943799155165892 1.0339799349443999 -0.01969130778134028
Ni 0.603870564486681 5.986081834729989 6.807315098222597 0.05552760075365921 -0.6971826472071283 -0.1693649929918051
Ni 6.323902661566897 0.3433188924667102 6.186804081966151 0.6843284169522795 -0.062091627124422094 0.1922642661874818
Ni 8.577755577081703 8.875230551253967 5.03031364406178 -0.9969671051654767 0.12227446726190554 1.0602100722855223
Ni 4.482674820614026 1.5069748879489244 5.21730842685864 -2.9070658689370124 0.9023276260120202 0.5811482473176637
Ni 8.06821102638886 1.9613152080043426 1.3723896565469593 -0.6374569492117216 1.5736154077302575 0.5466486708788972
P 1.625469287832155 5.909507623484694 9.19670250452208 -1.2761757958550022 0.21992290844501478 -2.984420335757776
P 4.903814351268199 1.931710239228485 9.062909098905497 1.446849994576534 0.665502542495028 0.13437202185638794
P 7.838833069759554 1.3691785700972934 4.047238642514822 -0.17738657774470093 0.09138909053695873 -1.300093483012864
P 6.951131155162635 5.8737916227651725 11.02190099689955 1.3889263827868725 -1.6269076913954947 0.3947137004380815
P 0.21157026049591207 8.229231128745907 1.1133331379217415 0.0634558544618004 1.307446838054142 0.27884179426841005
P 5.138707141602763 5.007208167644298 7.604500146833242 -0.2884471785686581 0.5194623402720925 0.13309238381301594
P 7.78984234263802 0.7360095199916857 11.062190955979345 -1.3796444432643142 2.442903586788806 0.0167021432460293
P 6.796585393050781 7.415075856214878 3.938859118370051 0.6638074141807923 0.013994771617195253 -0.1382818984337554
