# total energy = -381175.3389670744 ev
CRYSTAL
PRIMVEC
9.18366626181912 0.00000000000000 0.00000000000000
0.00000000000000 9.18366626181912 0.00000000000000
0.00000000000000 0.00000000000000 13.44122387339410
PRIMCOORD
 96 1
Ni 1.4135039814142571 1.248978601645967 6.9213434923477655 -0.5133950510320899 1.2072812868761338 0.520551202460897
Ni 0.5855781071819984 3.0848577584050867 2.0468968466070625 0.08260003149041904 0.17035178238510662 -0.4794953129608516
Ni 4.996685834543707 0.5624315949203184 8.891719277171779 0.15087670437963047 -0.19398150598890462 0.03756458851733531
Ni 3.1798168667949347 8.912362322030454 6.525485234755789 0.24183282114422872 -0.6104017448661424 0.11805554408455152
Ni 1.7022935483801327 4.68434934747033 3.461733377985282 0.613602511191627 0.35427384725548017 -0.4094198963000046
Ni 7.701422465737557 8.398178035798423 12.565944323428269 -0.03199737884220296 1.2477165120730447 -0.10937318581920519
Ni 4.230529299095792 2.714498868352303 3.044531361804442 -0.9140968507328064 -0.9422961959851578 0.20636805257871554
Ni 1.7247384285450058 3.3520014241644946 5.42622243278242 0.6269419086130106 -1.033286508421801 -0.595041203249672
Ni 4.737789101021638 8.737716542122355 4.632316531579112 0.9064316208780647 0.016066566544559426 0.06432308755810212
Ni 1.9469555993099137 6.254554225060213 1.5915752688106932 -2.084758429503377 -1.4022848063716493 0.685429106215626
Ni 7.709338785992108 8.264904672069848 3.637787013920088 -2.510711804682031 0.6126938833344288 0.5798778652456723
Ni 1.181331716500936 5.62524349948823 7.720585103606634 -1.4955502879957145 0.2910905297287761 0.057338428710152864
Ni 1.5669538597591282 8.126516006274237 0.3791779646936704 0.10800098806202689 0.4193556673564777 -1.0783592323907234
Ni 5.145305104473389 3.0242731125590687 0.9455769034074523 0.8008430989122725 -0.29692076325730804 -0.0019542955128934087
Ni 9.100434621906246 2.658799932918606 9.933521716536482 0.9371169657770635 -0.42525892021479017 -1.216561426626479
Ni 0.4690630975143314 7.417206364533592 3.3298485845844183 2.0768954818155327 -1.1976069970111634 1.0315978078654686
Ni 7.0082485254902345 4.384805707397636 6.602437010483083 -0.5887422576148377 0.8332904208077004 -1.316100914184714
Ni 3.414101374931627 2.0023147390946336 7.698810631073528 1.0036584011427232 -0.07053795811956239 0.7588212459545318
Ni 8.33105461962614 3.9226101554591186 11.787348512127931 0.8527086774333121 -0.2217725600592439 -2.2701833041715225
Ni 5.465071177493322 7.8116080926680596 7.061857258499412 1.525814743307211 1.3089301074678876 0.19178886921296
Ni 1.0588124258791798 9.523737347536153 4.910307943840462 0.6270198130387975 -0.9684692548360997 -0.2074898248879846
Ni 2.902552800895718 7.133008630662002 3.69515370313363 0.9330037149396383 -0.24792402164363112 -0.39400356174493434
Ni 8.567846268632316 8.729607364877845 9.933897328483596 0.2889135766821153 -0.30856477525413956 0.9704988836716189
Ni 1.420786628701796 4.69889627471303 10.522852269723133 -1.016858958993397 -1.5901550572564938 0.9823056464985599
P 6.7551926036640975 1.2642051201866213 12.320319824281926 -0.44764500121947426 -1.2348993057037185 1.6238704472310679
Ni 1.425947849099774 2.824473270960468 12.973455735046924 -0.8166846939302193 -0.6371669287751285 -0.6236346986166486
P 0.02406763398039401 6.509373410794556 10.249591363915515 0.6659694548291176 -0.4864144086781881 0.061172200633946267
Ni 3.852639802768379 4.86883083386639 9.86416483274714 0.2611135237507116 -0.20498557040889212 0.29519246771229163
P 3.102490397487147 8.692964536785437 8.804673733936625 1.2410663537463789 -0.24943017387551233 0.4396925791416169
P 1.484787598369963 3.0180006685522733 8.419541998452901 0.5519793390631913 0.19560412919399214 0.6226165417647793
P 6.58543253416832 5.385145730654169 1.6739702034879538 -0.6360847514545431 -0.16396156258804664 0.4314658203564505
Ni 4.958849129846786 -0.09401686423890016 13.38021408603812 -0.34983920852289424 0.732880357719054 -1.1443730773876872
Ni 6.9047118728802594 5.857691274387207 12.399798026577695 -1.490132202303937 0.2801653981758401 -1.0238063368455077
Ni 7.115651501565599 6.984866911374127 10.065029979623613 -0.33804247299828233 -2.314234014633834 -1.0102049440119893
Ni 4.342120026953147 4.925549156247019 2.7256515125717065 0.1967130459874548 1.6198227595242556 -0.6146175827197028
Ni 2.085766713750199 5.775139299018122 5.485820752879785 -0.48354300066766404 0.7210124026368744 0.7979760617771224
Ni 5.586001693864455 5.567551708491612 8.240505507740046 1.0942013416293026 -0.6545316453058212 0.2984017186782087
Ni 4.7825778410233095 5.178871404392624 0.08637972743648262 0.10141202199059955 -0.3171543166953635 1.440003918188978
Ni 2.089403445560874 9.049850988539584 2.5219100414449707 0.1301124752490856 0.23127612867430491 0.1025672186409653
Ni 8.187017999124558 6.966995496971163 7.390979650632263 -0.29348422677193325 -0.09802639334781828 0.41447879888015066
Ni 1.5366936796677793 0.6469516299536149 9.773556945397438 -0.3441107906795493 0.0790781343800896 -0.36445207334006263
Ni 9.05888771606914 1.173479681909706 3.1392250622414406 -0.20860182700524077 -0.44106014891310497 -0.1241346603990959
Ni 4.0671518776010736 4.245636429975995 5.095984225207657 0.019501046147405127 0.6533743917729263 0.256557528948913
Ni 1.2844551041324253 8.146664969891967 7.974530004319825 -1.2206543657489302 -0.7773833252274353 -0.780707761614978
Ni 0.581274641206033 0.9718431070733908 0.8715400233284123 0.9746105918471473 1.0727064049803203 -0.9104194018812192
Ni 5.621744522670382 1.4038519482500667 6.510686675059522 -0.4871230047094385 -0.8874417100391234 0.3480677184447683
Ni -0.09625859715553088 6.705564071581047 12.643204670339498 0.8435537504069215 -2.2253072695944387 0.4659864798411394
Ni 1.1964663983797048 8.06959564323746 11.492932112888317 0.007679113811812581 1.5005829653236158 -1.2253538281071286
Ni 7.357613554635939 8.834558302080861 6.064894987667035 0.6123367571053261 0.3709345957406128 -0.6384941322269843
Ni 8.742886946186522 3.516875783247951 4.149211608462452 0.054217623692984045 -0.20783538115286143 1.0311118693679855
Ni 6.090074763622866 3.2789453596343945 12.160759134455178 -1.04809657685144 1.1334808559552159 -0.7080324454374386
Ni 2.617243843415312 4.022115178612311 1.2768932733927543 1.154951881344798 -0.12363355239296125 -0.5646931870854339
Ni 3.218645407440222 1.5946242459852997 0.966286989029304 -1.4856821369523834 0.33630517859220144 -1.137508231947054
Ni 0.019543760015902807 3.53902678609479 6.929313996232827 -0.03685882069956233 0.7594704495027567 0.9277861752944409
Ni 8.023668128628406 2.441009289256591 0.2110470775797461 -0.29495001268418236 -1.3431622891778803 -0.07232461770633995
Ni 7.022235249095432 1.5837599688842174 10.303208362224263 0.5676877509373837 -0.7027922800844218 -1.29480266692757
P 4.029609050222186 6.878960872887499 5.583820573144669 0.535471056995523 -0.40678271578747366 -0.8070111753961972
Ni 6.567166222119248 4.796371707638547 3.8826584524389687 0.2663886561067218 0.7274630433582245 -0.6799338874290096
P 0.6520687687538879 7.600200097007103 5.9289638709434875 -0.5821234667467394 -0.8808573719533862 -0.29503974418451123
Ni 3.6552736327097506 6.789603800872682 7.71761510596125 -2.941586528421702 -1.6301418820620763 -0.060845156311830705
P 7.1177270101242165 1.1366164458287726 4.197102590902624 -0.5429838204328002 -1.2423840441165377 -0.7860114332160786
P 6.852778240583877 8.782927730768701 8.476788381639373 0.5201850773707299 -0.36982953560189213 0.1461456174525483
P 4.792716608495494 6.996631187761689 12.59114705854957 0.7128676620425529 2.2649752776080216 -0.7607457166707544
Ni 5.295797842305539 2.858333448197738 9.53283836072903 -0.8704696009611589 1.924760479548769 -0.2682871586810154
Ni 2.840278360471003 6.348144967187964 12.007327623442684 -0.28459540892273566 -1.3020377512234287 0.5262078865260421
Ni 4.538659667054803 1.3801121711526048 11.212372947560642 0.26407080660682264 1.2078114483479907 1.5313266742643756
Ni 3.433616665582346 3.817475544932332 12.092356433582827 0.5568014430421829 0.22823194253134244 0.7102176260142155
Ni 6.427115312743505 6.726603850819069 5.193608433525428 -0.8468907851999543 -0.029781602137806777 0.4109818414704857
Ni 5.905124910251188 2.797969210340246 4.655219676686794 0.21666892028409138 -0.36527379791040965 0.5910215405673176
Ni 8.025771188185589 4.718586055021331 8.953924840100079 0.21768913401848963 0.579871437487769 0.32427061602517054
Ni 8.648056409123315 8.429081072522973 1.512325739803019 -0.1491296397815367 -1.885751188165107 -0.5184608955907716
Ni 7.255527921283759 2.622074451830502 2.501371690380845 -0.9892064873834514 0.7978922438140645 -0.12477717907910123
Ni 2.6824846080189366 2.5183082075658123 10.388923192228694 -0.3204147326141901 0.8304066715020022 -0.9748774723552887
Ni 8.298902604299947 4.620421847131672 0.3899889765308589 0.2895195856972304 1.3370644038102586 2.4135703850423273
Ni 6.788786454581898 0.5528208882539764 1.3261517037284047 0.5305877607612927 1.0708534109319814 -0.18044799027884406
Ni 5.924116731929157 8.615977863126629 11.053215420679571 0.11707029735314677 0.8509297311560183 0.903516761224115
Ni 7.059107668842553 2.516177597010063 7.915026275984202 1.0867734245963476 -0.45810553443116586 0.9922355040177622
Ni 3.0097904709796888 4.345462881445787 7.331085616483627 0.6433429756788532 -0.07274730706605535 0.3029728829886589
Ni 5.551333354002591 7.174647373160994 2.9679294837589336 -0.4191474080004136 -0.4170434742835334 -0.09683982923888483
Ni 8.67184210455172 5.271507045236763 2.7137834607562135 -0.25248592998270064 0.9606019362728812 -0.6284622019122789
Ni 2.156655433059796 6.562996837669636 9.622841044476905 0.5721948947791178 2.1081842646264852 0.13073751042759418
Ni 8.708879830290234 0.5430696714949492 7.944086150904704 -0.9540008860165957 1.3346041151952241 -0.6196949972426102
Ni 3.666881786772107 7.4911899793487375 1.2767775591987782 2.2498944720154994 0.5545368153777223 -0.34983740875068137
Ni 4.709273817506118 7.207478979785144 9.756795836236673 -0.3166418958353192 -0.8517177742749524 -0.5797765637811175
Ni 3.656495060312831 1.5721518148218607 5.191443843404781 -0.9254855521857221 1.2792631765310742 -0.5757818407994278
Ni 9.082535656504716 1.083948120237305 11.721110401376228 0.5764025051025622 0.5273252879599369 0.8484735563060419
Ni 6.448770397616162 7.4642267354190865 0.8105604798362855 -0.1864324899970531 -1.5227361043818872 0.5799907366744527
Ni 8.278900579341235 1.8735413717984588 5.750128502520161 0.10357843351429903 -0.633655058967128 0.8659238905720055
P 5.084463315974091 3.560039014334246 7.40885657523494 0.07127252229274177 -0.5644738719857763 -0.7407769868583114
Ni 4.683228940195324 0.5234671360154396 2.21031559459963 0.20000354381326846 -1.3409190016696584 1.6475292243005883
P 6.298240925119257 4.824317603850376 10.355737096089664 -0.22110613011983857 -0.19519095291597352 0.3242613600537899
Ni 3.511439052864316 8.535179967999559 11.125905975295366 -0.95939197512518 -0.0228157123429349 0.3015819161784032
P 1.277879599141407 5.000441954014834 13.178407613377317 0.5490909617718027 -0.002219890469454241 -0.19275971776666156
P 2.2583002504349254 1.7943965365853343 3.500874163280981 -0.5463938745556138 0.7126128657192695 -0.18098612217050122
P 2.401987891621343 0.7021124025486614 12.453643698174538 -0.5015252961776975 0.7950887129269985 0.37088831588370963
Ni 8.52179936636281 5.661766939920185 5.248461553303157 1.4144157853072286 0.5331233826989528 0.05357279102013354
