# total energy = -340873.3411246868 ev
CRYSTAL
PRIMVEC
9.23551709469217 0.00000000000000 0.00000000000000
0.00000000000000 9.23551709469217 0.00000000000000
0.00000000000000 0.00000000000000 13.51711280845461
PRIMCOORD
 96 1
Ni 2.581890392682147 7.236711066835218 1.1532722666596318 -0.724010823143566 -0.5781775947251139 0.22784807682936245
Ni 6.303175764047261 0.20005422985339535 0.13516179258517183 0.6437520381918139 -0.7067566640488085 0.5230086628624542
Ni 1.2377717067060119 1.5923786208228725 13.059868983122122 0.7429225724464044 0.9550064444629744 0.2146752868928303
Ni 4.074710139294691 5.504451304195126 0.2818116448763016 0.7534975197487733 -0.9029014962376192 0.0998539334748603
Ni 7.648375005522711 2.041815824400925 8.172824925994188 1.2780529582730569 0.3100943245247885 -0.4004593446726071
Ni 8.729364574140176 2.8554002312479043 3.443984353034668 -0.921736112445619 1.2876951093485114 -0.541483838848506
Ni 8.98259321718034 8.112413561617139 6.382266885286817 -0.6391932151765379 0.9484568162699148 -0.7874759335767471
Ni 3.5562928585851967 9.182736107997783 13.46415282010447 0.21398905945908306 0.4649721796440121 -0.9864196686669334
Ni 1.4599874833641477 3.432564636155163 6.29436508074516 0.3515510490076785 0.21092584715272705 0.05037948089381646
Ni 2.4054366031958265 0.024258932735460936 3.5240193441206333 -0.652163916404593 0.06655326244020152 -1.0363741462081892
Ni 3.044672918452586 7.186294379050971 12.178242827679858 -0.3898615145521028 -0.7563157059238588 0.9596105188938894
Ni 2.156761070080122 0.33396091566628666 9.399556495573018 0.036093146178131384 1.2934716068209722 0.3415689980943021
Ni 6.708060833192047 7.020507611801472 12.186596352886095 0.9105024485133286 -0.7172084555097519 -1.4345048427476197
Ni 0.4495295587489343 3.78638653131953 8.585163980980825 -0.1929587211513451 -0.8342000771061633 -0.012151804871185522
Ni 4.788818791585136 4.733848993876427 8.722457330909943 0.6310122220276423 0.1754965598108397 -1.1125492480088712
Ni 4.182276206820451 3.244233971693473 2.070659267818947 0.14487009317423438 0.39664871267726526 0.35454304175646684
Ni 3.140565292378916 1.6263006750876716 11.22657081643418 -1.5636508403183782 0.27009670108592837 0.5156653351235055
Ni 5.472736538514396 7.358656834467238 1.972187413969895 -3.1286268272060824 0.4237617668439734 0.8500853808778521
Ni 7.2814663826444255 7.185176881483304 0.8722327110119 2.376341068377224 0.032905749589085265 -0.08710126179488226
Ni 3.482353308777415 8.734093158889312 5.4782427538023555 -0.359072297085388 -0.5994812412988966 1.2561353322643591
Ni 8.105699340694049 6.825804440548955 8.177177625197837 0.33699731956321965 3.729627847583616 1.6103207335710912
Ni 1.5862554729934246 9.12252977210009 11.66717424791741 -0.4709258261242857 -1.4156378306397879 0.0079634778214508
Ni 7.436660011793809 6.275561567953672 6.061924663118726 -0.3439300421273109 -0.613718210833885 -0.059887420384251704
Ni 2.7711353733355635 2.632944331145476 8.494802758238592 2.044683415859362 0.23201763482601978 0.059093206617730494
P 6.704052618775786 5.116651941663431 10.940534846041754 0.9400981598925745 -0.8437638095351986 -0.27677565576800073
P 5.6362883106285615 2.513030377272851 8.472282873370832 -0.8608842712655689 1.310604152736201 -0.1699478620784686
P 2.9719986344858813 5.3255408671633555 2.179944988626522 1.2262277460716495 -0.820113002885478 -0.28727861218185363
P 2.9979596730206897 1.3410063167174262 1.3803948735467053 -0.5415810265480028 0.74695277665172 1.658353568609602
P 3.5780332658107175 8.266932998019087 10.509731221740767 -0.20568362491718123 0.33454885802272705 -1.9685857042638357
P 0.10344333269760679 5.852796537726217 9.642107957307566 0.07850529259575512 -1.0981184172955216 0.5900617477572095
P 5.025968399374821 2.8653838252202015 4.257376661126214 0.04264097459897818 -0.9768358816332402 -1.2619982188030396
P 1.3505558413865801 2.4179045512648383 10.111490183589202 1.3603418862809602 1.3123643299604173 0.4637964141683561
Ni 8.61285852607308 1.9886561880414957 5.887919209212477 -1.3236530155003592 0.1981063267905556 -0.7252683496997508
Ni 0.9692398118507705 1.619771164506345 7.554228144326042 -0.8935627353351967 -2.809956588086825 0.6604133008975788
Ni 7.590228189935677 2.3420255428685435 12.864425123399135 0.18576271762353816 -0.26898572740993676 -1.0325159488043638
Ni 8.764828959758697 4.039827591252724 10.731303282857859 -0.7198248100866765 -0.8664913330397012 0.5362040785068055
Ni 7.2805797730039625 4.829685954700229 8.323527323183601 -0.8993091509006704 -2.130795831378414 0.7096355282585004
Ni 5.187700774622619 1.7335250284811698 12.261223948716944 0.9611963753237704 1.2854857604020182 0.5408940277833071
Ni 4.486706556597357 3.4225163935632485 10.583710484272027 -0.5552454114089728 -0.5836278192064078 0.01727987012637024
Ni 8.00268638309275 3.8999279784013274 1.004031851825274 0.7782510725443694 -0.3680973834021338 1.8265037153576995
Ni 4.746898779521993 0.9250109205155885 9.638931862980948 -1.079569964869373 0.4565528452320654 -1.3949887869308686
Ni 2.5764414376001348 6.388068637121597 6.1927706985686015 1.7349400469160896 -1.1331715522449128 -0.4953230240217276
Ni 0.5714273016920955 5.063603131509058 5.012334929049284 -0.8670376924614744 1.967269042334941 -2.027823663989546
Ni 3.1229346902576247 6.877772695204012 3.6648812978526153 -0.4741821282780544 -0.14469242994578949 0.4122077434577869
Ni 1.3167907909122798 9.187049094477953 1.2618680943407212 0.41655599312415353 -0.16676149393068698 0.9857175003935862
Ni 6.8793981462115275 3.8620623583398856 4.94092406382024 0.6506917027344408 0.907397841446076 -0.34909256016485685
Ni 1.103080925492336 5.589168702444787 11.903710617372441 0.25316470121728013 1.3853695186735497 -0.8087140170199169
Ni 0.8392194316285755 5.109854601086547 2.323807561860446 -0.4728652092388437 0.5576360231283364 -0.4433648857868816
Ni 6.832611016642926 6.81039959804591 3.9462126958403334 0.133232508935306 -0.20169635813465905 -1.014885123096478
Ni 6.130416181396204 4.949036542030476 1.709630898670691 -0.18271827437025953 1.0843655864858035 0.5750961275863128
Ni 4.921385403868536 6.381049644134598 5.628147202315351 0.5236213567457885 1.6076701833221216 0.3431571685170283
Ni 8.732042874095741 1.5738614090611187 1.2766643162676568 0.036707125613046454 1.0506939052649709 1.6467982596718347
Ni 5.693354570716281 2.1325455442749757 6.341120809555662 0.8012889282004394 -0.9541718643768211 -0.23497106102738888
Ni 0.7862371171972387 5.704437191222069 7.421583953699101 0.08230101219276148 0.7061467983789516 0.20652463276123786
Ni 3.469063399687558 2.854190378509356 13.365734532254528 -0.6692887490103376 0.6266336333439724 -0.36009765302610885
Ni 0.7790121721791737 3.8174640463211773 13.382806385591985 0.6842422849963765 0.1377483945277886 -0.023174895454566538
P 9.085984830982255 8.96431612886288 8.48186656945321 -0.05170617012503998 -0.04541262380684437 -0.5137663183285797
P 2.8941524609498095 4.395053285014491 11.895045855240333 0.20498711307078893 0.09229103352593783 1.149847213128381
P 7.46927062263209 0.5594229765809097 11.462782095687707 -1.105441433319496 -0.41396972045421615 1.4356700667003146
P 5.113715047229396 7.652429397524411 13.244377990612733 -2.0950819229165725 -1.0588476447203572 1.7322586434291845
P 1.3265157904061087 7.538989541130584 5.014416614600955 -0.6043784214901978 1.5449290955391586 -1.4441961018934546
P 7.614277476433236 9.148426162015282 2.147031452827749 0.19255762905818452 -0.2050328787070598 0.14896997427522085
P 1.166196449272798 2.129442410533355 4.469541424537309 1.4692342758090051 0.521550847370005 0.069981314285144
P 7.089238329971534 0.0851671679318537 5.765927263995016 1.3467584911695711 0.8114643260715445 -0.6294106818684774
Ni 1.5471800001934342 7.329066237716784 9.943594024236768 0.9400796479498131 -0.26354553023097194 0.046223806854230075
Ni 1.8363440402236173 8.192993448211304 7.63173445083327 -1.394566354681469 -0.779988109840134 -1.6434486264733117
Ni 1.4627858450418592 2.902510603914591 2.1551411603828594 0.5082800984030278 -1.852571358979029 -1.274317916710657
Ni 6.130905663801876 6.892207808412802 9.676252587534188 -0.2972359805048817 -0.15722295831263244 0.7719050757216834
Ni 6.297745279999425 1.887176326276831 1.7837856360266269 0.3895061880952131 1.4686550062667676 -1.3817830868738719
Ni 6.894766046646221 9.254172832674675 9.337769962701541 1.2064973575222577 -0.6721390739749392 -0.06248346324620207
Ni 2.579895520991105 4.046948174927692 3.8900090330486474 0.19374162206395665 0.060362046027825064 1.1464315025786127
Ni 2.5805974202898048 4.8739702591379395 9.788701472944458 -0.9577750083470473 0.4026013307162744 -0.5343868227924087
Ni 8.197648148823736 5.294075460444007 12.724334335344013 -0.5060627790367349 0.4833974762287352 0.25740676432308573
Ni 8.68876524102064 7.669736756547617 11.042440465144184 -0.1533652751294391 0.37334474784400223 -0.29431057932797056
Ni 5.421507125226391 8.900563354403335 7.009149772886458 -0.6506947880582342 -0.5248626853520574 1.0352873409019137
Ni 4.735178908337122 5.578566328827582 11.465620170088899 -0.14534214771464646 0.9647959197495705 -0.2372364600227979
Ni 9.070496868825416 1.0843420613204662 10.208705083562554 -1.028781678572912 -0.5008940903516019 -0.33898786763068717
Ni 9.239673070846269 7.399487055513978 2.5387300506740647 -0.12246472889584069 0.48559114144594434 0.4526085158723366
Ni 5.45984375665933 8.852381661754421 11.381300822625738 0.09115794836275913 -0.8026145889903984 0.03925945972125497
Ni 6.600550178768815 2.52651423222156 10.41716548106959 1.739506069020217 -0.21791796219984405 0.2738016607413413
Ni 8.837198471661493 9.194215855738362 13.283996511817506 -1.1155322418965947 -2.421901273505526 -2.1729835204900576
Ni 3.2166474821511497 1.9780907564926449 5.151033924679219 0.39303065630870376 -0.5195091343496279 0.7336246920842462
Ni 3.6457480771010817 7.021745171091285 8.492896547511597 0.6785483199353927 -0.23568299949274896 0.315703700291766
Ni 6.940786628296505 1.3312813172235973 3.8531343839707644 -0.3147878733457159 -0.8944430810576209 1.5549263159611864
Ni 0.16646742485889623 0.3199016880029859 4.121746627824673 -1.666525305787117 -1.1819217250654224 -0.12452084009392105
Ni 4.945591694156594 5.0151813154158535 3.7763973960369803 -0.23729739516772033 0.26687176639072746 -1.0056723462489583
Ni 4.535894920608879 0.7951004429467426 2.8754006670540164 0.430447149283949 -0.13199812230757269 0.7042454675911808
Ni 4.361020404544633 4.1486866311708255 5.941527691702389 -0.19461862535227129 -0.24156851173924848 0.6522857866944379
P 8.033579187752634 5.076144963714776 3.0697501180020574 -0.7429649956485657 -0.0019728074556546672 0.09827193369972108
P 4.913876928475863 8.049067149909472 4.0598381861276325 0.8375096010953705 0.352446050018122 -0.7837828009958759
P 5.73399084590417 6.593521950264728 7.613770446545097 0.30449857560456595 -0.18709763438487778 -0.08005952445675245
P 5.833235712533501 3.5680219652871554 0.1227289394810954 -0.482451053155066 -1.0123407594080693 0.07202534129836628
P 0.22597924987155973 6.940334087959185 0.3109395422206387 0.6259394354904252 0.001866878005409688 -0.4874148249182444
P 8.424287738167099 4.353530400186139 6.498865288524794 0.158345759063166 -1.5408492690428301 0.5730395021676001
P 3.2361621297584247 0.5366232555453774 7.425423158152649 0.8285842735812827 0.9992011367023178 -0.10228028352816579
P 2.958588663673878 4.576032477874008 7.459810682478691 -0.8946338569121883 1.053336485094141 0.9370863696494441
