# total energy = -340871.1767282209 ev
CRYSTAL
PRIMVEC
9.22660409734210 0.00000000000000 0.00000000000000

0.00000000000000 9.22660409734210 0.00000000000000

0.00000000000000 0.00000000000000 13.50406773589368

PRIMCOORD
 96 1
Ni 1.2329972464453651 2.3612817623193347 1.0443168820879052 -0.9965559857699869 1.3045967701998564 0.9106777977489285
Ni 1.1041384927965756 3.0650409943515133 5.854229590935971 -0.5186845815658035 1.3560666559443741 0.04478270353232932
Ni 7.064801575979119 5.319534040164254 5.652749158632289 0.46630452530219046 -0.33404697868564404 -0.22082536565462613
Ni 2.332319451872281 9.475353404493823 7.532582102766699 0.06786683904530248 -2.2424020202931962 0.8501285754109618
Ni 5.285404831389596 3.038173123047971 7.020116209389083 0.18694362530551675 -0.1000706774713567 -0.4891693457155059
Ni 7.639296083779625 3.537295501494549 0.003958213183111173 -0.6517818504748258 -0.6042835477835463 3.2575396257201126
Ni 6.3822912133192125 8.248491849812488 0.34507868609238024 0.25283457157137107 0.22141800493330252 0.10372010129848588
Ni 2.981466413902513 2.337394084158321 7.589583140584746 -0.2195902076959444 1.262282839922994 -0.37457142116225167
Ni 6.346510442400553 0.5627084436510745 6.847075861737197 1.1025911083548945 0.5306666936283441 0.7890422496226024
Ni 7.217538781184765 5.223503544104066 8.154147976992096 -1.3502029980747456 0.24360791076678043 0.9265782710292687
Ni 3.8013147794309736 3.809138939755632 4.88112640770869 0.3157700347533272 0.9217026881045224 -0.35456026814764746
Ni 1.8232600207492209 0.6895502616312669 13.140119978372033 0.8551633096213919 -0.7183824212131951 -0.5181004269275593
Ni 2.7517239704072494 4.485679689526323 11.99849932885035 0.3495497023069335 0.48104028885046834 -0.17272928147834768
Ni 8.690999785155173 0.3795049915208753 12.912130589666491 -0.7386257448432634 -0.7658203029801843 1.0116154512062707
Ni 8.243721695463611 2.9791689894675604 4.3979909662839685 -0.9674215302978758 0.9102736203319742 0.8134013951932573
Ni 6.444091007959023 7.908749831564191 9.542865389766883 1.4610730801544516 -0.7370697132100532 -0.07168724123265717
Ni 8.130483582651667 4.6240233922479295 2.4448572654287504 -0.9424892858325704 -1.8288786433477793 0.3479067673868718
Ni 1.519990768731316 6.5431293769742105 5.450862755745722 1.4045442918297877 0.4734966721752555 -1.0197259961285472
Ni 1.8234630060406625 8.243638656026203 1.4587233491513323 1.159764986462725 0.5620362090785611 0.5688748292669493
Ni 8.574624626930042 7.60171612505046 11.518173388391265 -2.4392171390761535 0.5518492412432302 -0.14171869202944626
Ni 7.145128391765053 7.5248031528024075 7.149404922791561 -1.2345871737799383 -1.3109368534852712 -0.11322855500955337
Ni 5.626613879698766 7.778820791833255 5.419965626407063 0.31611430546662334 -0.0848911415174409 -2.120240424460071
Ni 2.6755122200750856 6.254641144814917 3.0000635572402263 0.11891274987852424 0.002358987150479808 1.8433025320825933
Ni 1.182435455668094 3.3541474089892884 3.4393375678260805 0.4552148431469321 1.6693355215424022 -0.6727939339501188
P 6.42136588192172 2.9606235151131237 8.952575858310974 -0.1672129796458088 0.07929153594247634 -0.6472289409968208
P 2.200895702268002 2.392107846805988 11.915152645524014 0.5664903881951727 -0.47029667718071905 0.5386674524456336
P 3.0928222994665426 7.010133946352234 11.633673864542367 -0.35141838008455606 0.2227927737936421 -0.6259201522167156
P 8.400915350476817 4.602184020209644 11.92853491219251 0.660481949351985 0.5660571573124962 -1.8811327155564892
P 5.481931499921689 0.9794593908306519 13.153421050923951 0.27754647249575426 0.7840838771760625 -1.577006692799994
P 2.731305495409056 1.9693725241705462 5.141106278345426 0.2889539430017475 -1.7245126809351785 -0.9705721601117154
P 9.261572986189194 5.108180218752768 4.541917687180634 -0.6846382348832144 -0.9669435622201928 -0.99689382872538
P 6.426975657248834 7.776560273814927 11.658588463745991 0.3427393642533194 -0.6796173846298553 1.3398581645053118
Ni 0.12918168479426465 8.017900558734832 6.878701892804214 1.9598187567044827 -1.2873840058659958 2.0276334023556113
Ni 7.813549729878081 3.308254279915174 7.026572064317341 0.43720709371560185 -1.0817654298587949 -0.030732653197166428
Ni 0.3069635843221418 1.3520296666675498 7.248497728771271 -0.47826683987038926 0.9463883637766605 -0.5923238043185088
Ni 0.7032139397265335 4.590946016347105 0.07824713920907368 -1.3831858807586694 -0.5158789937962083 -0.8207827752589929
Ni 7.166949310595025 6.738548853007531 2.4358364145450024 -1.3186905292887612 0.937817591388514 0.29773348896659046
Ni 5.077861597494718 0.8153125669251562 1.789275669659819 2.1180670709578364 -1.840707260551591 -0.6288792348450395
Ni 7.077866447464633 2.7597787958358184 11.197033126782758 -1.3468032283645772 1.5851277792452314 -0.08597460438960677
Ni 5.723105705966778 5.480279937777687 3.851292526165142 -1.7095210926223523 -0.16761381462865327 -0.39102211051910724
Ni 8.494168638685919 7.541032749513579 4.664925851133827 -0.45766073358426346 -0.7534630669664121 -1.0456221471690186
Ni 1.6319556101696706 3.027451809018192 9.955563089740538 -0.8286917456934244 -0.04482846916860021 0.17813219766147387
Ni 3.588180223417295 7.659566933111316 6.448367538985532 -0.6082844414128233 0.9284893720090525 1.2945486419352352
Ni 4.616725148360188 2.161239757603639 11.13187577089042 0.5825854939848224 0.030738823844753516 0.41629296927075404
Ni 4.713364600294701 6.25250979925478 9.670681537145995 -0.3258179059076324 -0.8098872113924117 0.20350281521577857
Ni 9.153188067163537 5.454085608577565 6.661570371869968 0.31540519521474064 -0.6798822082554679 1.9605985722933006
Ni 8.410058915195844 2.2818407005324177 9.484447145550407 1.6226625429658956 -0.5287473651184442 -1.0085833492481662
Ni -0.02858955563913352 2.502624111391782 12.229203184498715 2.003595901790433 -0.13132526461026414 -1.000975197883605
Ni 5.438880164927757 3.31670584932247 12.907552348684069 1.2754497163222551 1.001132806507392 1.1775351659619526
Ni 6.681537665924911 5.610596494883193 10.96615396565542 1.3778868371432593 -0.4673751326585499 -0.9759722480813643
Ni 4.185409083859261 4.478104647513889 2.208847189730019 0.3922991774593179 0.3610170795165847 0.19350868011754413
Ni 0.4575445321364292 6.177202256129946 2.3738262533304253 -0.12953989057506723 0.9606587576527456 -0.5636603749455453
Ni 0.8709314594405699 6.100446136152553 11.567733169957146 1.9411278651631991 -1.3110216998895938 0.14543984963477533
Ni 4.324924565308734 0.7547666677902055 6.10066480667106 -1.5568073350339835 0.8693177467449028 0.37732867219241467
Ni 5.170635102287686 5.6293080481124464 7.137642847812937 -0.049061790523657445 1.0133373189933839 -0.4020732261269463
Ni 4.239901408007173 7.144999219306864 1.6490220598778307 2.1521033346069385 -0.09982179468534422 0.11124006382461488
P 8.43241497706689 6.959931993137064 8.864258803325566 0.12191656970185456 -0.43992603530866176 0.18118795376866215
P 1.1237265734206898 7.963288288732886 3.456203800224046 0.08291293474514753 0.39019061575674735 0.6432236764921696
P 8.243758601880236 1.795072745051308 1.4558326540691207 0.48665454971345223 0.005392374660164907 0.23516697908827885
P 3.0293340362661048 0.968784209821655 1.5103757245398939 -1.3180019878621687 0.0052951869606683 -0.5418764463012345
P 5.0670849238399995 8.234725756411086 8.052110961626067 -1.0792166952950124 0.2938182130725843 -1.2608206535551705
P 3.663570805979536 6.054922071244697 5.165995043057412 1.457864857629799 -1.3786579109813288 -1.5702963706593536
P 4.766168455881987 4.369230718467941 11.159126546266455 0.3975480845630831 0.879715287929143 -0.7419373257149997
P 0.24503092658247883 7.613849109516174 0.22645500443432565 -0.7031036406772536 -0.26130404249496286 -1.6483918294111999
Ni 8.307726648496809 8.764932564260697 1.7300464069379917 0.5300470577664743 -0.15552782999839668 0.4741625878940285
Ni 2.1925733053188967 5.218447365026337 9.422531095698224 0.108910901470806 1.6578907700405705 -0.4389924677507988
Ni 8.892398100681865 4.778818130180461 9.702996795543497 0.8369465295030488 0.25455618224816806 0.578783603740229
Ni 3.661476366836025 9.045615089303647 4.12069921826851 0.14503387244560828 -0.4154745871345167 -1.277312994783239
Ni 1.547799753658815 1.1297330927265299 3.1207226277751907 2.6515655776080207 -0.9715916025151654 -0.5747693403745133
Ni 4.206860938522975 3.932184932785866 9.062026450116699 0.7264137761581038 -0.6376343553298502 0.4210590232008297
Ni 4.830597832706381 1.1781635379436641 8.90047691528124 1.7513513983945772 -0.2282447980471488 -1.404875707027277
Ni 4.76512584961231 8.930983759264082 11.080735472032542 -0.35660326671960524 0.7090074077561983 -0.6979490930595077
Ni 8.73587798777208 0.7907208988670066 3.758843797838481 -1.9267062904212302 0.09483719698655925 -0.31395894968651733
Ni 5.4037452563000485 6.161627748313882 12.779318236136671 -1.698142932692398 -0.1234887992849809 0.9494040106745326
Ni 4.04070825087387 2.288972865545343 3.002656233008185 -2.224913633700446 0.20210259243414225 1.8633957032880424
Ni 4.048089534199018 -0.6825528050390256 13.214594359141541 -1.8002676644793059 -0.25732731723540203 0.7931328747522083
Ni 2.4029491066898006 6.229950752092293 0.20232743456524468 0.4968469168654218 2.0114503648378457 -0.8380083951086599
Ni 1.3472041526937335 8.624300663708295 11.22946925369471 1.0618710049277131 0.3301332454535346 -0.7047905414613732
Ni 3.5758350270559833 2.9807559653824676 0.4168229146919976 -2.2393354655527307 -0.9344828705883261 0.3347576315994235
Ni 7.9304231247276595 5.949950995756921 0.31931708462719444 -0.1787394922281696 1.064208137701322 -1.037838903679174
Ni 1.232176078675442 -0.02521630915954041 5.193205221375159 1.3445666257245747 0.7338869446066973 0.8197299085144464
Ni 6.368534346521966 1.0697232592930683 4.355696212830864 -0.6389692720911899 -0.6839604920898995 0.12333196199214243
Ni 7.331127504954653 0.4828438807333776 10.930489449949132 -0.2770566773435293 -0.0018529940483387444 -0.007089045636297469
Ni 3.19401046725018 8.024063930311332 9.515871113986396 -0.9537430043695188 -0.42784519288472767 -0.6389116793803771
Ni 3.034851545551654 4.777867789952348 6.9815222468631255 -1.4683027651336713 0.5495385908321827 0.2712832651948618
Ni 6.295127483853359 2.903270943676716 2.7647962231760883 0.682652057691121 0.5737452699853732 -1.3885350608857248
Ni 8.085254769076817 0.07399921065545041 8.489696503651293 0.22157201401266355 -0.11472673682163467 1.482056624384654
Ni 2.960328263780118 1.162321458607063 10.066525921967502 -2.3408045660335106 -1.2055928434301173 0.25520307180354757
P 8.197883926014436 0.217094614517621 5.784102786044977 -0.882486422916377 0.8154893880705375 0.11305629109774722
P 2.0522366560995007 6.80972287747028 7.755831784917078 -0.58564793496023 0.1827046475235047 0.5507164131903677
P 5.9403091944134445 5.073488187124568 1.1373487317972524 1.124789755939121 -0.02048963531291955 0.5394287560916903
P 2.150057113366038 4.624180244518589 1.4942522337765214 0.7991839660422946 -2.0171211899703776 2.2243775586913177
P 0.9094433051895351 0.6280918513452447 9.282669616592885 0.032529082975956886 0.09100213951118521 0.48854148232351996
P 1.171188225201398 3.6222817523794837 7.975111259298943 -0.9871136094101646 0.7548131532364033 -0.42521469724041605
P 5.59230013884098 8.228387079355613 3.0742685211683654 0.1905565394677557 -0.016141128536236716 0.7249929845511771
P 5.958928481601133 3.3532801081985832 4.887892276536604 1.0351094205631528 0.20248285859169643 0.2296933575682173
