# total energy = -340888.99170300056 ev
CRYSTAL
PRIMVEC
9.08346987396957 0.00000000000000 0.00000000000000

0.00000000000000 9.08346987396957 0.00000000000000

0.00000000000000 0.00000000000000 13.29457633175804

PRIMCOORD
 96 1
Ni 6.7205594463690685 1.496229122269155 11.56798300546959 -1.4141913280012484 1.2187661475872815 -0.1573970219966515
Ni 4.660401277245639 0.10546271613157963 6.132987036338772 0.0352181997723458 0.26271017881387015 -0.8831579950621048
Ni 2.8273116826637623 1.6202003161783913 4.806574287695978 0.18753137948818674 -1.3444959203876392 0.040813434471936166
Ni 3.055751861123858 4.240036468355571 5.191266494540298 0.5718097435255572 0.12882949477160394 -0.8226977328935187
Ni 5.237537688984441 4.751608396094016 2.619709891948917 -0.17375180920559108 -0.28604242578190736 -0.08643174653168341
Ni 7.482826053232733 5.9696653435187645 2.609180333919932 -0.781907438350034 0.2966081171128956 1.0108459200300979
Ni 4.964288754695339 4.736302749718205 11.3487016894669 0.7047064663879993 0.20257104743012855 0.9628917607483225
Ni 5.609296851727942 8.091318602235212 12.298333933338569 0.24578254982059608 -0.2536030743062794 0.9104929354316319
Ni 1.8217352575078338 6.70948669685446 0.2156461114450636 0.27075567482616597 -1.3767131285501324 0.16137477569747694
Ni 3.1495931861734126 1.620536404555783 0.8419240940403249 -1.4555704051686673 -0.8015228985881163 -2.344578688363962
Ni 0.2956405953460807 8.735727190270307 4.6123533561361505 0.10409034015371106 2.550564417902595 -0.5616274036759167
Ni 8.557100759421454 2.402168968732937 0.957482178351178 0.9104618250833802 0.08021713308053927 1.5171637525004324
Ni 6.823793079046271 0.6960272210676275 4.825798542882782 -0.4869818511458838 1.093986397405019 -0.7226504524609296
Ni 0.7798413039603528 7.355530309428217 2.4050021029196524 1.5357345735240842 -1.035633668497739 0.6911151008568098
Ni 7.45877302557508 3.966433278749761 4.05888755798235 2.0381548707122255 -1.3074900325872514 -1.0831702806261216
Ni 7.111866235819244 3.7201531658789277 12.594297900204516 0.9047745448906159 0.18223876363067967 -0.7192635382665677
Ni 7.933402482209416 9.103362457788515 7.039610868067895 -0.41352671937952656 -1.0889704322476665 -0.4109720712784728
Ni 6.798958872997924 0.6385324915125349 0.5353460928775594 0.7974338161204072 0.13294763070503557 -0.6008801785289523
Ni 1.722007844119095 6.5019657490195835 9.127178406888063 0.7834940661108636 0.5902779775330737 0.7538790714579081
Ni 0.10463884543348705 4.795617806593008 1.3268823640241771 0.0740685969806402 0.5056843126513936 -0.37401863398257523
Ni 6.2357110863680925 2.174746138874675 6.898609076894559 -0.023425578012791916 -0.26382860868902946 0.4923742258060488
Ni 3.4343599599904233 4.112123048614227 -0.027767258401314835 -0.0940373267930832 0.39356904531067705 0.4391058534002115
Ni 6.118425326128053 5.696643495971145 4.854381496859497 -1.2855875760872053 1.5147762261048623 0.32166480297120725
Ni 5.598251352622313 2.8681872961303188 9.443323118295936 -0.709306684164172 -0.0852896625074402 -0.12647770670997574
P 0.06616035961000254 5.784253560834465 12.39417453006012 0.7716474511849226 -0.9025569684140068 0.39864388873042306
P 4.115874521583491 6.2745247522220025 12.880357251754036 -0.801660195496929 -0.5464563523624331 -1.947814790265071
P 2.555098263915814 8.508295276942386 1.3483756699318585 -0.9336740015337855 1.1630742533416163 1.3059350293953056
P 6.506843572226591 7.900393153467756 5.688442939562788 -0.6389345621985125 -1.7276882504496827 0.8486296222679319
P 4.9486106860635 1.236251137152196 12.973937881224371 -0.7932681147784919 -1.3185329206649743 -2.4680443477204914
P 3.780458320946587 6.344403884310496 8.281630008453705 0.36894147656998394 -0.30606823408453093 -0.5403224715505534
P 4.7566224713459135 1.536005635906944 3.800906119496491 0.7406939402262017 -1.400126879488382 0.4445555636608731
P 0.17798695458484207 5.2408713223493795 3.7494954979191535 0.6517890495636774 0.7129941603180882 -0.7003870130770389
Ni 1.4070021998064917 1.2284666036542318 2.646497952320966 -0.35186420937272306 -0.7028336748453187 -0.8630447692519976
Ni 1.6137147188416978 6.7394712301995945 4.5568751568454084 1.1464309883579804 -1.8278275763754457 -0.2632681081998692
Ni 5.892392267127654 5.364897017076571 9.137548095851045 -0.9477608186441547 2.0957192993902547 -0.1980021971125235
Ni 8.77189756645338 2.3619927824301414 10.363813774806845 -0.4591141782013383 0.5839353231444976 -0.06580969940595763
Ni 2.092259150899164 5.1171181317119645 7.1426037887991285 0.4363108071535776 0.07626637596290736 0.409952628875023
Ni 0.5536075002804851 0.29135228931995594 9.394758347762835 1.067639531980374 -0.44470057387916956 0.545484475367467
Ni 1.6200095633155476 1.3452073557147173 11.596339781051789 1.0242701638558036 -0.51284714894842 -0.6207578912894858
Ni 4.074326731362151 6.967239231904908 1.5981810773774403 0.37764928875662707 -0.3196511149752882 0.7220143615388275
Ni 5.608570174155204 7.729369586723684 8.061498479690911 -0.3378622386666762 0.7335640140496399 0.17347233029195933
Ni 5.3500727945927 3.3356771456124967 4.788028567692718 -1.4851522325908422 -0.6157696940462749 0.03565965818513858
Ni 0.8871179889828815 7.486622943550294 7.025066416449528 -0.5952988277864328 -0.3031518317686844 -0.3045340568281917
Ni 4.764570507297744 4.635993994271275 7.1270628805591425 0.37652365979261604 0.23992506259855456 -0.6289820789714909
Ni 8.439342658759134 7.463087673663216 8.969238669841154 -1.454349645387689 -0.8619749332265865 0.4610448195651479
Ni 4.8522259895093605 0.4430762080790524 10.460053135846437 -1.6558729682795934 -0.49326022795542795 -0.27294419783705254
Ni 8.347654116018818 6.859945288290025 5.074286847227775 -0.9661395782616587 -0.7920879784274616 0.11004347241335241
Ni 7.079865172209759 6.042324017322984 7.189627094531055 0.7606989225932189 0.03059972716372794 -0.6935594486322442
Ni 2.3711216694376724 4.9803937464011625 2.272481547367144 0.3036611673049351 2.0397687521665646 1.463911578044511
Ni 2.528029524331294 5.4024026632995525 11.341004357277667 -0.9706266674987347 0.4456822210661486 0.9261926055550759
Ni 1.2578516280018561 3.2287374573143253 3.840976029204273 -1.597203993683475 1.0109343659788461 0.69733794183807
Ni 3.492694002142029 2.892494660938431 2.6183137626622925 0.44092799421061485 0.6023400509039304 1.3541013046878871
Ni 1.2531918080666689 3.1741548881319837 8.369440817996493 -0.8122032611200981 0.3371862956455741 0.18878376383804904
Ni 3.651954475677393 2.4824032562329577 7.123274165364276 -0.08065344928700949 0.715534924462071 -0.8069271003228231
Ni 3.595909467879914 6.780673848573883 5.968852372984263 0.881442812143211 0.031051212878849748 0.40896481104045695
Ni 0.8088593561337443 7.427843811385385 11.228146788496502 1.0685903259294176 -0.29067272546506717 0.013612191466795912
P 0.07467247902767145 5.583145542579006 8.014448831896972 0.10946471709174696 0.1854449292728032 0.6154323653115144
P 8.484051496421888 1.73678664925467 8.241932521001951 -0.17859962421619563 -0.11464986083711222 -0.0023250485887508347
P 2.032826008918791 3.4376935933553625 10.53402346266945 -0.17837079603484118 -1.515467338634616 -0.47781869658937703
P 3.881657256420122 5.879893412876546 3.9605208483485645 0.2527643804550679 0.6079175449917078 -0.8765613156811937
P 6.97076361813269 4.243224766205963 10.457407121134702 1.0336181807296068 -0.9913325325875185 1.261883033381414
P 6.439253474492226 7.798703710632623 10.1862373930506 -0.7022112107699713 -0.11468251384726057 -0.5316246866662393
P 2.2199182334900502 8.485840939944758 5.629029781215665 0.8915133090053355 1.7424630947660118 0.3863380747798766
P 7.131840785599901 4.035667484492448 1.5219235328942324 -0.798729137893063 0.2790950479297967 0.6075007691692634
Ni 5.358238833816352 2.912832549505458 0.8048844298108631 -0.4889968246933836 1.2244919943274652 0.19554987891728903
Ni 1.1961203681976966 0.8874386354618525 7.139918715167858 0.6182973455641351 0.4190869870761234 -0.9278306553791311
Ni 6.819678267290637 0.7174496759119667 9.279095803550902 0.9963623817019421 -0.18195928471704792 -1.1389557630268579
Ni 2.8326345958840737 1.5983000708299764 9.16107973235026 0.36171564824550606 -0.7348292539153086 1.5125213686324144
Ni 6.6865418524952345 2.0059298552577967 2.522406856612228 0.0516640040331949 0.18527883600858414 1.4367116205909516
Ni 4.050618875551549 7.03178636730343 10.553407586922258 0.8471509808398766 0.2953145951124527 -1.04950785537667
Ni 8.28873873180902 7.011784567113794 0.7288003795981466 -0.13842408043857451 0.6620174121599051 -2.266668091929412
Ni 7.757110503062987 3.837239089786464 8.376114443155133 0.2388945644515111 -0.19610960807550096 -0.5212757393317475
Ni 3.1673150354785795 8.408586030492966 12.475124594969289 0.13260541687426838 0.6717433811984173 0.11373017723632026
Ni 0.16843386954422485 4.701040720501056 10.276694217305126 -0.3035218135135934 1.501673884394949 0.1723983805014902
Ni 8.477184393359506 2.2730565309965733 6.086483305071353 0.7398974124668354 0.5271213994792471 -1.0068802505141305
Ni 3.9203710041077806 2.533670358989679 11.324931157715648 -0.038375514454404874 -0.14437772691884812 0.5820481334241138
Ni 1.0884358353874681 3.611896374480167 12.459184922411264 -1.5862436380172293 0.3709651918682321 -0.011223636629961316
Ni 2.9775159369488686 8.558890202944324 7.8679697085191185 1.0400940182619376 -0.7510642277169323 0.6330919873748064
Ni 5.639626556920128 7.782380715654979 3.4854390349251982 0.3105481242327555 -0.6148824063453153 1.16071038109513
Ni 3.295437375022086 8.485741021778505 3.54289833894862 -1.1032544529705064 -0.1846856825092755 0.970677061120696
Ni 3.5324523488404997 4.386153161294023 9.358823233443937 0.1467804228230698 -0.23207008533051002 -1.1428779808993994
Ni 7.207996595222926 6.301411822413337 11.558410845142689 0.5311089233720854 -0.9635723317551148 -0.5932820544667201
Ni 0.7329260915173711 8.961133489864217 0.18265040790789322 -0.021498536193408135 0.2736211692994191 -0.47608962971341234
Ni 4.765397103036734 0.3599442937577357 1.9677438571573396 0.48897188499271915 0.12798128783869572 -0.5776461477016762
Ni 6.07963891068312 5.74833752180185 0.3541971825043378 -0.23148773046447874 0.5049420351687304 0.5808736535000384
Ni 8.087258291297534 8.725099530769002 11.315611517845273 -0.07288666085739705 0.1426131788192576 0.35301529225803074
Ni 9.0411316071531 4.693692193546735 5.9952289521807485 0.4032474489407055 -0.5186480719009132 -0.272577301415937
Ni 8.417278910956853 8.962695846645607 2.077530304846715 -1.4036397777376473 1.6243435302127445 1.8109436561359133
P 8.457600432774196 1.7218443416652287 3.759520015035085 1.2849124043970517 -0.5601955563253966 -0.4930848787198282
P 1.6838481880806497 3.3365764091087606 1.180446841300687 0.79288039242177 -1.895351687369349 1.0502866425242234
P 4.896725907369952 1.104449992396699 8.157432636149954 -0.7283187064903005 -1.6193447914465724 1.2565909317445392
P 8.702899530921833 1.525750398661668 12.408465552874993 -0.22729606098063435 -0.7230245479708967 -0.5875868038541558
P 6.379992918435378 7.8556661488656845 1.4678005872766478 0.4286517479464231 -1.0584843478436674 0.08202127616881358
P 1.7015882043251351 2.8271209298009183 6.205177003108575 -0.9735723803906202 1.2409347132645208 -0.3763012593691648
P 6.9010934058463596 4.054561101383657 6.162022347104516 -0.5220121032771398 0.8897415618168936 0.5691576506146908
P 2.484428869966967 8.613672608459169 10.346543373943742 0.13498625840161915 0.8754135752299956 -0.5637033123683389
