# total energy = -340888.37458078784 ev
CRYSTAL
PRIMVEC
9.10070828923798 0.00000000000000 0.00000000000000

0.00000000000000 9.10070828923798 0.00000000000000

0.00000000000000 0.00000000000000 13.31980649499611

PRIMCOORD
 96 1
Ni 6.733468338477073 1.7171034096793245 11.438517153430231 0.20192390076443292 0.710320727250983 0.08113861645354413
Ni 4.750960977428336 0.5254676072046367 5.8799356741744 0.8301153655138284 1.028503485210861 -0.7798852657136827
Ni 3.031209261681443 1.8467065942437317 4.510885206872152 -0.6453564065644564 -0.8989134581241487 1.5800976730204916
Ni 3.491359266452566 4.316884501466778 4.573754718817089 1.3467980861582547 0.8338681476880413 -0.10030979006535629
Ni 3.8595284140933988 2.7698915282650822 2.4405214296203477 0.3414743814979667 0.7671084256639885 -0.7591868568240667
Ni 5.347557899282118 4.494903453314568 2.4466616773996894 -0.11816507307922229 1.0646606518577084 0.5275741707459495
Ni 5.549675526273968 3.4185900041973167 -0.10945421675136069 0.23036698659647423 -0.5003562155702608 1.206507899045219
Ni 5.615273430518069 8.239444420109935 12.622527472557788 0.6515653635886456 1.1347826054857746 -0.515786176972086
Ni 1.7038982821740258 6.707267399753604 0.36629713197726305 1.7640745023882007 0.7015663780971207 -1.2778655248525992
Ni 0.8274090815983587 0.35795269268738833 0.5817627675921454 -1.0087453287473271 -0.09716198846499395 -1.3480602407001299
Ni 7.954655960410896 8.795170061725058 7.278208515301262 1.279458837481648 1.3365604675906464 -0.39251669278676277
Ni 8.75076770672964 2.584055068128491 1.4017502217056172 1.964290162212275 0.29348859764730745 -1.0329612638718983
Ni 7.249523993327485 0.6248555306867964 4.970471877809659 -0.10908547937545729 1.488402878317656 -0.8769528946926574
Ni 0.9957448799894719 7.618757923820228 2.4904706662246414 0.07492554566429677 0.568106326532041 -0.2532534042763445
Ni 8.130954878420987 4.130684013004748 3.547183920229445 -0.8752855342925636 -0.4979422068121296 -0.007694797541096425
Ni 7.834399203102134 3.9027203749067323 12.616720310696223 0.2687257888803307 -0.024651737110409157 -1.4615088821402895
Ni 8.217748331913771 7.129067020439732 8.91771655720083 1.8175567905770569 0.08941165509561376 0.4903947334821748
Ni 7.013888458270843 1.095534144700428 0.5251909456773031 0.022226929719000428 -0.5324422974715283 -1.7698142330854552
Ni 2.429861770180681 6.762799920799317 8.84260659281301 -0.8876895643838713 -0.18430927300646321 0.09295309258996895
Ni 0.1955232538765223 5.121878538926232 1.0051641129102051 -0.3899013666511027 -1.0886084209225573 1.2589920849868639
Ni 6.849493266502607 2.120856326131816 6.982282608985419 -0.685399024308639 0.9412703258238047 -0.13209582422770152
Ni 3.619624646920985 4.8443888471522465 0.10472639887472215 -0.5276309921258139 -0.3394766343416476 0.9410448400765599
Ni 6.295569565098407 5.788405302096841 4.706287421330466 -1.1753715826517306 0.35318087130161757 -0.1838143356479157
Ni 5.429509776046566 2.874049132881306 9.513831141523408 0.5307176014709376 0.3368767348249553 -0.10439373032674279
P 0.17495383334759362 5.6903906754724 12.108049880498154 1.5921304358153097 0.3441514141094977 1.2844277514511493
P 4.312989398384581 6.6079695732819905 12.465087952017877 -0.9606186484434295 -0.8842550847810255 -0.046083167511307734
P 2.682078795461068 8.621319234203545 1.2120277591949649 -0.45371100490789606 0.5579905782542778 0.3924423879054016
P 6.606349647233786 7.901680738351391 5.814388733895861 -1.8604168231653766 0.7123413572254377 -1.156931373668672
P 4.858194621394519 1.451053308032257 12.839746814630473 1.6649494766595647 -1.0616820288453588 -0.924351438581279
P 4.485957457216905 6.363906782491436 7.8910529313902 -1.1186581891200862 0.8005667053224341 -0.2482366677880434
P 4.986541908236162 1.3958939160201178 3.658537454768784 0.5488130255200677 -1.545613780311009 0.8440000939157207
P 0.42237842572357626 5.745449959695043 3.2902854906839134 0.4987042817891347 0.42141203566487423 0.48135910564246787
Ni 0.5052631250719606 0.17394547488612766 4.3406846733839775 1.9569141814631779 1.2890367109780703 0.3995190922465248
Ni 2.1346803017903606 6.8996199669155525 4.672574758111564 0.3777637028473042 -0.9516642674636191 -0.5925654880156698
Ni 6.368620949305871 5.7904711628437076 8.99979311366674 -0.6614157740201642 2.024807245760726 1.5375765118288294
Ni 9.014833854003065 2.7221674148000337 10.211469585527656 -1.515569668540435 0.5927686051654113 -0.7101739172604737
Ni 2.770182750925433 5.183726951418313 6.879253492178057 -0.026506273820644674 0.45888869245409364 0.024033901020752157
Ni 0.5538299641104 9.350067538899808 9.245397564415528 -0.8392846907179223 -0.530580561672441 -0.7074459768063494
Ni 1.477700181454389 1.341753803319208 11.137049825930395 1.3166956103459195 -0.7436833618718289 1.7973003543208659
Ni 4.442510676575765 7.382339727863892 1.6994871689405193 0.5502836965283232 -1.5649173657356275 -3.247441618054162
Ni 5.78937907786739 8.294039568217643 7.910366454196364 -1.4465648592359475 -1.0794210979963346 0.43339903282342135
Ni 5.981240206789997 3.0133536723186616 4.698122265990869 -0.4437248402294616 0.43951131636874635 0.7244993327442103
Ni 0.7547490278407415 7.821021162142252 6.316825179020788 -0.14960580808700685 -0.3494517432764885 1.3183917671014198
Ni 5.357040837159804 4.420113833853132 7.626708302447814 0.6724555767740935 -1.5042902389718737 -2.6658737667005767
Ni 1.1081204240524802 7.587615300578924 11.363419930033803 -0.8542089161279224 -0.24610445193638905 -0.8701369002120886
Ni 4.459820223450388 0.8300391862496552 10.78183735646275 0.6321959579230984 -0.922623914367211 0.054825432480312034
Ni 8.274591354931065 7.505827236560925 4.343668795581764 0.03346882118140687 -1.5456631454917058 0.29540715482625896
Ni 7.746568268881847 6.406370686653891 6.578692595208561 1.0102836197687246 -1.3797791690699657 1.1336695749272538
Ni 2.715906127602484 5.583493757707248 2.4632313367028575 -1.309638960609454 -0.6313287248267965 -0.8189688619787056
Ni 2.683662318676727 5.5821559536112595 11.206685714374428 -0.3513484460785691 0.1671358465509702 0.9734188855318912
Ni 1.4808672278857082 3.572246360365104 3.5322132553457677 -1.0351567288613206 0.09568797502262874 0.007335871539780914
Ni 1.9638964129106704 1.3777471039969855 2.4626452510989005 -1.1074155263267316 -0.5241857138896908 -0.782997071869787
Ni 1.3348827686765474 3.3682084839565642 8.148977920813469 0.18299158263630422 2.0998549188251836 0.4094957438432625
Ni 4.1024900191995 2.6966854320193065 6.678976938442115 -0.6327328042631748 0.5388798255667558 -0.12459231676180478
Ni 4.301222182764767 7.396937263713994 5.8772182027249995 0.049095986195702546 -1.779119055426149 -0.19912679763526994
Ni 8.430896017166422 7.369789851344383 0.1125894107042038 -0.18075446577566934 -0.33913133518708694 1.309661072096641
P 0.6948172244820975 5.929766601572927 7.590158038432116 0.35471222034447947 -0.0071486952296393015 0.4945776612152709
P 8.893193789057635 1.894166787172837 7.996465523658374 -2.5047105927932733 -0.5449936517739776 0.3847018247280342
P 2.2486484697771645 3.5661306844977294 10.216491356277086 -1.1501824849806128 0.1480492622331644 0.8519504591110488
P 4.43583075680396 6.268895389551867 3.4234961959534207 0.4838623316802957 -0.2881998384445424 3.2330773789126894
P 7.18935921184056 4.1602977172792075 10.196738269267955 0.390143821679212 -0.5721776683879372 0.25850513959358706
P 6.592771390694913 8.012982398854355 10.055600847212014 -0.22928789459968252 0.7546336902357456 0.7673863619157235
P 2.488406625619403 8.925555907189159 5.716048301920152 0.763234544530879 -0.1367196961529581 -1.2927678958857283
P 7.11564347593917 4.096601861035525 1.3248947414973158 0.6308800673251522 0.9375836210008368 0.5634487731553716
Ni 2.9116987624398307 1.9333271342819331 0.03650385040420578 -1.0194994819400378 -0.15607881740586024 0.3558998128946774
Ni 1.5950083093270957 1.4250161820552352 7.001449610390594 0.9119826326032809 -1.4554235951781578 -1.2857842654790437
Ni 6.993229850802182 0.9822576305319584 9.043189840413133 0.4503467164213534 -0.4933985533055051 1.6484224255388191
Ni 2.997418332372571 1.795278492567342 9.314047846168435 0.12588789564477673 -0.011811390812631271 -1.7084805671729804
Ni 6.699968631828553 2.332839120743061 2.517696344684222 -0.8213854418399983 -0.9148656105780308 0.53998000060947
Ni 4.382236686591209 7.197040209507323 10.326206763351951 0.8889787155089399 0.8564390910100219 -0.6808314595426146
Ni 7.426660176486086 6.334766315040047 11.39831750545201 -0.6149194302308378 -0.19993515246917826 -0.9800484750332669
Ni 8.066585569775242 4.447152037725112 8.037610735211928 0.6949244473005709 -0.9970923178894311 0.13744320458254394
Ni 3.036733391519979 8.51833562093686 12.22309375218663 0.7615018781104884 0.06772285726827046 0.9793460496496036
Ni 0.5702294401714254 5.122761307615422 10.030693119114668 -0.30703368332159375 0.27861450874895244 -0.76647542006568
Ni -0.25271392394461084 2.6454575459219076 5.736987211199401 0.3746724655164902 0.24017677359804443 -0.54056775479214
Ni 4.108933320559769 3.238523393018933 11.437198460821332 -2.20754711739754 -1.3885743987640924 -0.2953179375465624
Ni 1.1801525289487154 3.6636902757153718 12.305489743508113 0.7486437912008977 0.15075123454535974 0.26265927097127667
Ni 3.276837374271384 8.870851550583819 7.8232417349274295 0.4527185590876397 -0.14288494442340555 0.14052107217691925
Ni 5.8646510348600325 8.160750596858165 3.5713863434462545 -0.06975659986884761 0.2294503883194758 0.34252647691156496
Ni 3.3909784557127716 8.561782401578002 3.387666708022091 -0.5749400616244227 0.7622292431948163 1.3287952218229309
Ni 3.8398435823952872 4.747693823207522 9.314087889284233 0.10728904959666685 -0.27276396350544635 0.07966408879054666
Ni 5.4372544786702806 5.006472459053946 11.256141692597753 0.18244907986927286 0.5561388697575197 0.11642237935650272
Ni 8.10347984055848 -0.0542156485784386 2.3328837142129273 0.2635110774486107 0.47578855353322574 0.7169387467881331
Ni 4.8777520431787265 0.5832152406106469 1.6142408358308498 -0.3776150930845819 0.4168043616895338 -0.5022554894755027
Ni 6.221526203704121 5.768110722953618 0.2099160237935654 -0.11488100301131181 1.3083775773985273 0.18527523646415833
Ni 8.069943731077416 -0.4295616146553006 11.641816962408944 -0.3292158758455878 1.9362178294560912 -1.3159415057887145
Ni 0.4040850922994548 5.037924506371872 5.41531358142526 0.5688601739789301 0.4172180521881847 0.8292563599476428
Ni 7.277936404127996 6.29013644234123 2.52959097021794 0.37413099119072335 -0.440902283179002 -1.3303828780250249
P 8.749247888470933 1.9727058983862935 3.483222323308192 0.23607612116610954 -0.6731484890760601 0.7058526641773005
P 2.097394700557275 3.524221923531569 1.3744171548900326 -0.6965442422921809 0.33428891949312106 -0.7246217172546876
P 4.979315945976198 1.3150068221075801 8.093473611962978 -0.041632073718489586 -0.33546957006478356 -0.0724644857183139
P 8.856627143767291 1.8281593510626166 12.388645643958949 -1.001884854182068 -0.8473872652203986 0.4550868022095001
P 6.584972083822383 7.966477780279526 1.227616362161075 0.22611541040897187 0.2824048290293201 0.43425598150707795
P 2.0476866327185843 3.3484326451770925 5.956004853199754 -0.31947962239443045 0.005184115304100749 -0.8409489657942226
P 7.091790519914782 4.311706198537409 6.057088238607646 0.2996286491067743 -0.8370725135579519 -0.03253808183702138
P 2.4683850677202597 8.703598736460886 9.920764755469422 1.0489612388445806 0.11419066181250657 1.0489918349721998
