# total energy = -340873.8334141318 ev
CRYSTAL
PRIMVEC
9.14963026095083 0.00000000000000 0.00000000000000
0.00000000000000 9.14963026095083 0.00000000000000
0.00000000000000 0.00000000000000 13.39140874570170
PRIMCOORD
 96 1
Ni 1.341957938664068 6.327874985832839 2.8911248039484185 -0.6085621205542422 0.5559869175606876 0.37464418338171607
Ni 6.0054145743433685 3.8749415188571614 0.9558737447674712 -0.6115371440221662 0.28501449873802526 0.33903260482569353
Ni 5.976135758216298 7.523676734242593 9.629172214683397 -1.7614046688655214 -0.1471005251666499 0.6709435110049412
Ni 2.3655910986166138 5.90780632107975 0.778144926135132 0.51996524805044 -1.6775856773663367 0.24681021975416204
Ni 6.82020742863955 8.325733303523501 4.614210581916573 0.09954617242645437 -1.7437967259757712 1.2508632852321426
Ni 2.9147793424900788 8.143756311663724 2.861690444110674 1.760244072898517 0.18909538154119693 0.050920698109267144
Ni 2.79361079187421 8.252453916535469 5.271635289307782 0.8295276113311585 1.8002761491197383 -2.079235185692303
Ni 6.793856494125189 5.7980016109732 13.236094535750361 -0.19964436070163682 0.22538958798654085 -0.024786720026376666
Ni 5.088328856203235 6.885883473064584 6.918336295852428 -0.5847755596576059 0.30867250447659744 -0.6928657649993293
Ni 2.3866992951182224 2.965861727001775 12.657786679312517 -0.12627356111896962 2.2832668768283577 -0.9730856705621885
Ni 8.601914886272123 8.197153552575468 2.5208520857234427 -1.1787587539564086 -2.0419217939538252 1.1068969348191
Ni 6.653656713026725 6.043531933088797 2.506054389060221 -1.3721183100905983 1.2245986951086587 -1.2070378034067601
Ni 7.50800341798457 0.7430506051548235 6.11857445378548 0.4563638691497108 1.7932164140594795 -0.059480928974452396
Ni 8.233468434203074 2.7264250584926253 9.787472708889418 -1.082245197708691 -0.5454348530764542 1.228932289487006
Ni 6.089664367749011 8.621275503436147 2.439994975136525 -0.43972934591682333 -1.1038419500428602 0.21107908490113972
Ni 1.5290038255658434 3.672341260887881 9.962497811845024 0.33280436452779455 0.5927043275863793 0.9663316396678067
Ni 4.902847556038251 2.1577572522646196 12.614331426401924 0.010152257942653483 -0.6874625917058871 -0.25634309894526175
Ni 6.07327738034789 2.2778186976456833 4.401581414460767 0.7224776743284912 0.9923586598591877 -0.39838240753892035
Ni 9.17085718140132 2.949703480351648 12.070480161730618 -0.32336610193303017 -0.8933639890608291 0.8260375959000289
Ni 5.909187915215747 5.944871472370612 4.553561344235357 -0.9107924689499218 -0.6354841417560668 1.9015102507715769
Ni 4.1708039558211984 0.6446316946696875 1.1349228550145405 -0.6243556359430731 -0.5588022755222957 0.5851943923625792
Ni 8.801340222617624 0.8117853709021308 8.375361811821888 0.042093843846256536 0.16401401309253688 -0.23785969542909358
Ni 0.021646194747944013 5.322742377820586 6.478830157042982 0.4812313218153519 -0.004683007297966129 -0.4778469787241512
Ni 2.4835572787185844 6.90015689592653 6.9713794460816345 0.15806268060510842 -1.5516234768401989 1.6603582577444564
P 2.5781187051789787 1.6967165441937127 2.4100921542407474 1.1829154564372595 -0.9864564354421398 0.4102310793473902
P 1.3037948317684411 1.0399286510532675 6.51704907668185 -1.033122214929795 -0.6850807217372717 0.7256920675007308
P 6.628403734117128 0.4146777027336922 9.516242905918284 0.4507233830344818 0.0455792312916957 -1.2386495167747698
P 7.333840210178706 7.6461445323241 0.9125054133422535 -0.21685686792518136 -0.695108538286919 -1.3569269470621406
P 4.756865208754691 7.655385658664207 4.353935630991986 -1.8509585059659543 1.4057226284086048 -0.480603715533682
P 3.8949883582741642 3.4765300284080647 10.997894651139623 -0.6399226371433947 -0.5581276180527743 0.13929234197614074
P 0.6146840405867153 4.5244463064859985 13.513672352043043 0.5884272974775802 0.891664232760903 -1.9792190156079659
P 4.527392487358784 5.322998567461697 13.20252271320866 -0.42638814872322695 0.4668737675420992 0.8251006859080564
Ni 4.998278197352419 7.39347749877753 0.795102850450729 -1.3421611016068755 -1.5359891127370513 0.07715032122975746
Ni 0.9372698020077305 6.241776967159176 8.540344280845908 0.15027558046052183 -1.5954612999607554 2.1216792137891267
Ni 6.639923118337121 3.7276782233680423 11.932133180715198 0.6096967483793178 0.20491357952037614 -1.0671196549211623
Ni 6.698572246891658 8.33548680914583 7.633089840183443 0.6225648625912376 1.4546916021081397 -0.6483483993132447
Ni 1.2577264445185052 3.0436152830792236 1.4768985124157072 -1.2404107224402507 0.1099632539947203 -0.29991044201325123
Ni 4.014592322153243 3.803482908247033 4.917820925598235 2.466493458293604 -3.082079061353531 -1.362728384235266
Ni 8.873439307330532 5.098356850726757 10.981450021069254 -0.27870089781517166 0.4039372759188785 0.5057848427849999
Ni 7.468843001414616 0.9837041744592546 11.366935829161251 0.7486260505890849 0.33037492915069555 0.7252894327456736
Ni 3.239527161489477 6.995907774292087 9.724519594364203 0.5902352972205964 1.154000316064806 -0.7505942300590492
Ni 5.58656281038556 2.135651746088682 10.230955276914122 -0.4368846773791767 0.6575354651291514 1.0186916413267617
Ni 3.2432785098057577 9.11767038198049 7.378385184027031 0.16520134853241872 0.025622071443478455 -0.08038399767570671
Ni 4.457882747947114 0.9019394205723974 3.5322119319407226 -0.9168523019907564 -1.0249836449830605 0.07430308158894947
Ni 2.4971993771077905 1.7283102167208286 4.62243335443326 -0.39144428565819034 -1.3896969424043097 -0.039700918134047754
Ni 4.683128340264675 1.798332335414723 8.145900069982028 0.034955690139578506 0.036397821902743765 -1.0014392820042173
Ni 2.4353112795191976 7.489054534172333 12.589677748259927 -0.26281945069822477 1.5870355377909056 -0.757817744390682
Ni 3.74566639602611 3.0006577700427894 1.13266930113576 0.36197018745847337 1.5358996383470387 1.3794968619428565
Ni 2.2399209300212077 1.8803679183507556 8.617786749502006 -0.10386331174456952 -0.7055575015343849 -0.7435499216177581
Ni 8.396450794100414 5.188499005877972 1.628368807797085 1.9949284559234226 -0.07833534267679412 -0.3875398083974616
Ni 5.057723343720409 4.472824093801958 6.855249596728633 0.27908090686240966 -0.33358212323408354 0.06936990595339021
Ni 8.401620335072849 6.226140249421312 4.242934149276241 0.4214225771878355 -0.26048051815240303 0.013533001489428305
Ni 0.10848258856581207 6.76550179063213 13.15332240759613 0.4396977213479395 -0.2000012298204233 0.8984437175765817
Ni 0.37815237961517306 1.0959792846765262 2.7176789271376673 1.8678390837713768 1.0988190429069722 -1.091566475109617
Ni 1.7911132773133924 3.840099727665949 5.32407547891737 -2.75887571025061 1.7062840737422935 -0.47055764415158957
Ni 8.97452442000924 2.88421042852741 6.882112910525219 -0.3970549469767485 -0.9480187002912317 0.9150605001976564
P 4.0459206554092075 8.94716702619051 12.571840544497514 -0.5459215629048856 0.524832089224438 -0.41789862319497706
P 3.0569920421972787 2.6814637764774942 6.512362636175512 2.550408094830388 -1.7417185032905036 1.4093054606638569
P 3.8050017468336246 5.587926105261477 8.172883243932135 -0.30959784450434424 0.04290451267300998 0.5499579377577882
P 0.7304314354040564 7.0551058806490055 10.935986424364943 1.2877886975035822 -0.929148088638974 -0.9973859378704502
P 1.3132189507093415 8.229314502165044 1.5766102656254541 -0.03308315570721399 0.10411116608931746 -2.261179043790383
P 7.418117452474468 6.750597043297444 6.237383314814108 -0.8954864347204706 0.3228074012160828 -2.931320113498687
P 0.19989013755151883 4.194272756873052 3.365756372480309 -0.1338714280708856 -0.0380708387297925 0.4025056856786745
P 7.603809194130365 0.8569378801850916 3.6281476328330817 0.41992233849322524 1.010678541214298 -0.09607878270314421
Ni 6.1740788544953675 1.6462837834148356 1.9828391999804789 -1.239457357388046 0.31584588229658506 -0.27011804124216704
Ni 0.3898199878418102 9.183849656057708 4.854238316526288 0.17441772492436414 -1.088640045491441 -0.05517227429676949
Ni 9.198580560421638 7.9595102115541 6.953743534180095 0.20238181423745794 -0.01067239211218162 -0.6555346326490388
Ni 4.964479463985732 5.24550120102536 10.189107614001504 -0.9165373418534989 -1.0649121057468822 -0.2424408870418728
Ni 7.973280404763862 2.8743928754948023 1.9600602810336187 1.769565864520075 0.48721633575419315 0.5715163806548544
Ni 1.5248773424179343 8.510757122186499 8.865862498694648 -0.4869448272603613 0.18367781007005138 0.9884027605352331
Ni 6.475586613193904 3.5742206283420397 8.569631331640013 -0.10072605166716846 1.0488326836865163 -0.446021092462806
Ni 8.404776957436548 7.688415823107556 9.324612139403612 0.3687589282455327 1.642047889471043 2.154538426410993
Ni 2.137939153598609 4.189396004061887 7.5900225315865315 -0.5092835999668777 1.4765711757900506 1.5853838611200954
Ni 8.51639329429096 0.5651150048835868 0.4501069001734541 0.21632156424700166 -0.6337453046880892 0.4190360792335299
Ni 0.3018087815268435 -0.27848637455562475 11.813404836430918 1.2452999322117522 1.6821498996982516 -0.8372979993051967
Ni 4.214804526682159 5.904997384657559 2.5196470794472137 -0.5632202020843332 0.27783340760855374 0.045162198358935125
Ni 2.897834227656537 1.2391618451679354 11.230409624523732 0.08830068141962212 -0.3633534409592452 -0.45936666053177666
Ni 7.525250470609422 6.031436122176301 8.115956990714077 -0.30874835201985534 -2.383898054788875 0.06962264539414462
Ni 2.3922256716622075 4.32083043958231 3.1325853706223517 0.666260246596659 -1.2428440144720918 -1.1189137567743181
Ni 7.439307995646434 7.5894076764478635 11.80441898476892 0.017328206865802415 -0.5400663896756892 -1.3158965114833918
Ni 6.126235439017727 -0.0887980744983817 -0.28591495918486465 0.7642897252682709 1.6948884303108422 0.11099040970765402
Ni 7.200429454569706 4.242189369391009 5.34595773412034 0.8154829603126343 -0.36206428983417643 0.24556811981694485
Ni 2.6174072165694904 5.501114415444716 11.278070047400579 -0.14228433472492916 -1.3298881977767933 1.2838937333245501
Ni 3.2730788548450906 5.739846562440809 4.7808537087928 -0.6687673292892289 3.9562862749802514 0.48249553323975614
Ni -0.11663216404218105 2.4546078492729446 4.709517703225204 -0.6709255132828122 0.017710529905885626 -1.7499766295342378
Ni 4.9790273757488706 7.064411054399389 11.804767585673432 -0.8745514843400163 -0.12235082902579573 -0.34988471704884905
Ni 4.846540732773881 0.8425628964297046 5.902677953442493 0.23566757287378123 -0.45312787871091637 -0.05700444240950183
Ni 1.8530654223122633 0.896886079901466 0.16972563723660555 -0.12955711696624783 -1.3891505829825366 0.9667399308498189
P 6.474818044270569 2.6117893437251087 6.570280709289875 -0.1838963538387607 -0.3538331601736358 0.7832472402073801
P 5.181554436677833 4.053286107591173 3.0720962514668306 0.9108878568772054 -0.5966982792371207 -0.2052503940345046
P 3.505095173392036 0.0944772498640292 9.503239451705852 1.1151897709555116 -0.10460893166134243 -0.11355842754514636
P 7.156136095547474 2.065794320735502 -0.019840972741109388 -0.9461600498159383 1.2851797991258254 -0.8074382356312868
P 8.970214944260537 4.153090272064321 8.544709569337853 0.9574153110147833 2.802840545867334 -0.8358481542325475
P 0.8030383245841688 1.6148273553383155 10.276593631552192 0.024195880519913168 -1.4794199580927554 0.9946122317800548
P 1.273784045238195 6.716825758820877 5.142501985742347 -0.658108564023802 0.010043757389247218 -0.2108219745850111
P 6.989686025865085 5.703623177113601 10.09234112670154 0.21960074921890566 -0.5180955418315528 2.2163359193337633
