# total energy = -340858.3232037009 ev
CRYSTAL
PRIMVEC
9.39136485184198 0.00000000000000 0.00000000000000

0.00000000000000 9.39136485184198 0.00000000000000

0.00000000000000 0.00000000000000 13.74521175438037

PRIMCOORD
 96 1
Ni 8.139768453839519 8.691022800588586 13.61427501453263 0.18621780288308576 0.6747991373056056 0.4601377343698463
Ni 6.674039324979586 2.261900885211865 10.621090131631709 -1.3764796723830874 1.6850135943992914 -1.994280280816462
Ni 2.767513197731478 4.892412849334439 3.2061397206320743 -0.5281416132136453 0.12740304673772251 0.4208350801154817
Ni 1.3589399166741072 5.176050857111798 1.1908110035480184 -0.20117005331754387 0.873045074997819 1.41622609904309
Ni 3.0475073558625336 6.898154860957297 0.6437677448953477 -0.34278564411022255 0.5896963939979909 -0.3613958030122421
Ni 4.760032167338889 0.9673857329027888 12.441039011572474 0.5990505815193812 0.6635060808902895 -0.7364372218323768
Ni 6.847807752828882 7.3272932877299075 1.5947336151136147 -0.5316529688010134 0.9348975895282415 1.9095925135590788
Ni 1.820872990263435 8.77926406676553 10.18058345744454 0.3288003855747241 1.692148148561544 1.1898939446376218
Ni 6.194149961380646 4.273747284128785 9.20232346292976 1.6492230670632435 0.4350843909456442 -0.2941758535223191
Ni 2.798241744233283 1.6754383108236577 11.22170079749454 -0.3452369338641925 -0.5741216794881854 -0.6540585623241445
Ni 1.4778627725275169 7.718246424136887 2.974793772688672 0.009153898585126172 -0.26319894552483064 -0.17731458685618495
Ni 0.04044203539141891 7.370333913835584 9.41786186519106 -1.4499543445334706 -1.6094933525737893 -0.2741865548845859
Ni 3.967936263426379 1.8124865012578997 1.0401143422607588 -0.6377269150436565 -2.4544126158696695 -1.2763665717095696
Ni 0.8008120298319257 2.8582243929212505 11.321037961499076 -0.2758757696615507 0.13637388277776513 -0.7929971205052924
Ni 0.7608170234177334 6.386635379810046 7.3174145108151 0.5806777354391484 0.8188835013537511 -0.30659788133575583
Ni 0.7751923859269977 4.633962482668892 9.59105178495218 0.10128295261190298 -0.05953543636147166 0.18983714480322791
Ni 6.531422055060145 1.3013614574434942 8.054941888001224 -0.5394590951089935 0.09323977059245231 -0.011905750298650463
Ni 5.125731923078586 8.874079288489925 0.6010999559828628 -0.9127431649183894 -2.537604772418133 -0.4760538913794704
Ni 1.010773839515973 0.3306201898019844 1.49554765208667 0.08113244580595703 -2.410346478788391 1.8664871977291726
Ni 1.5672591766077986 8.004946016926343 5.566439572478204 -1.2060049912668713 -0.07040888874086583 -0.8790398591286732
Ni 8.645531028200217 0.9723725477537847 11.6009861019413 2.2743865436195927 1.1050681091404775 2.9904295180663336
Ni 1.5945504834947926 1.7627686145890258 0.06403032703218405 -0.22173373640150842 2.9557443079793226 -1.9054874902517702
Ni 3.3926681961989757 0.3285324893474149 4.905391715858124 -2.4398879398909337 0.4985019359703414 -1.510511023070605
Ni 8.772614980297536 0.5099276447682624 9.498477342932958 -0.6448784384867733 -1.2964504869436382 -0.6849639936537493
P 1.0299040501590588 6.348910266332737 11.077197741469487 -0.531879997210155 -1.072277802083334 0.1834834346710582
P 8.680401166696917 1.9804416741302346 6.955709841775241 -0.282192713018514 -0.8436439961278825 0.33700246176954224
P 6.408432738132382 1.8668906790956001 3.8550097941687516 1.9797468630869774 1.1432173665166891 1.654076795611119
P 7.765203249475832 6.276690668961442 6.557579824183458 2.9805986480188413 1.0400454244121895 -1.164621286113762
P 0.030162247188217292 3.984220890453924 3.3062591853467573 0.46297263271548006 1.24774736531098 0.4741803285058414
P 1.0280163857804334 8.769553395285437 12.438248837010834 -1.0777663360017309 0.7789594114653036 -0.06821445219270833
P 6.556318563854854 5.123158689050011 1.2317714422911792 -1.9560243226590572 -0.11949998984056191 0.5557022964407333
P 6.517034483776293 7.931327106159947 3.9092890668510507 0.2581477562541683 0.03087046432661135 -0.4660764684517844
Ni 5.609706530482013 8.221924115452536 11.817720964112237 1.1276030570182 -1.4385170492308064 0.0883814140588865
Ni 2.1914280817431777 4.469942291759962 12.964910016056882 -0.22547340594959875 -1.4671966765536861 -0.5945580929656664
Ni 3.796402980463216 7.706864089674727 5.9845966760770475 2.3195042618938375 -1.8560366918198101 -0.7418005430268192
Ni 5.553780951503331 3.455055034344296 5.094442712082233 1.395881473948467 0.8946078887702592 0.8938321869464992
Ni 4.792122461775524 0.7976105134803164 3.261408843192519 -0.45346032234967065 -1.1561369027918347 -2.0569208384658184
Ni 7.694157572738009 0.5115326290583475 5.2834805603952475 -0.578119744903985 2.994847187518055 -2.3514756725941113
Ni 8.541221136392286 1.7129849883646773 0.7856008358316281 1.5288072502766317 0.3245405818571056 -0.09131992786192014
Ni 8.344340559111163 6.279921298544761 3.3251452204980807 0.8564378054584412 -0.259844684340617 -2.1584534451946826
Ni 7.845593334456103 4.050007402753785 11.085774875185898 4.634279236632806 1.4682593134902457 -0.39915785225236416
Ni 5.463229409519712 6.124325162101636 4.586089999235839 0.1331198946168417 -0.9899729332358306 1.3002462065406446
Ni 9.147950276596783 1.8526345869226968 3.358986065383351 -0.9835834847697189 -0.3856896425626003 -0.42512470862977103
Ni 0.627894459657771 2.713700675893049 5.42226615336703 -0.3729166591676481 -0.19270083950426814 -0.6762412690687709
Ni 1.5049286866528842 0.7597351381619242 6.657919985977234 -0.7694676699247845 1.8142755487226239 -0.8301115088590865
Ni 5.923068208698922 4.454944281746703 11.809391762433615 -2.166904404175513 0.20896409544066594 0.4533204543376967
Ni 4.287392937572283 7.689799979346555 3.520987112802708 -1.0026291885472602 1.5240527663107817 -0.9854426494656449
Ni 3.52142381127836 2.882792203938586 4.733122149873647 -1.2284077844421037 -1.8295227046896814 0.4793284483656841
Ni 5.227787887270246 3.6901866415465245 0.2877054079882167 -0.846740118554703 0.5864652886552029 -0.3519248874073294
Ni 0.6099597697878149 5.865799664515546 4.963602213957799 0.388302397595099 -1.5159388789543957 -0.4485153196395695
Ni 8.499316865459814 2.6851509260869704 9.068472093164594 0.5243433225134776 1.7241954068050755 -0.6979727472085915
Ni 6.762299373886665 2.7053705350779196 1.9256083109089361 0.057247411658243354 -0.1962664453683394 -0.23510552972272414
Ni 8.144548658659023 9.10829054191551 7.2227927512111005 0.3129186813474611 -1.3618182137161707 1.2300221801170752
Ni 4.572589911950892 2.718255487950926 9.672491824547032 0.28165535245780526 -1.4906819041598198 -0.3224371623608576
Ni 8.415677368166087 5.2920342156989895 8.361762480448418 -2.2359830041407296 -0.32805862231269306 0.33707728087153566
Ni 2.0834273834636066 2.381603224365901 2.9885802966081862 -0.550808972904174 -0.36809558362992095 -0.42035376960368903
P 3.9023000129676024 6.728330806436473 8.041663436931877 0.6003052798620887 0.9816348456837805 -1.4662571954585522
P 2.900062924298249 3.647578018233967 1.3155790450196196 -0.030994134388669204 0.3026090718913369 -0.8756298050058597
P 4.132951939032496 3.0775221586191868 12.115620698881537 0.28535259880373437 1.1110659785951251 -0.42065561711482397
P 0.15253642970403924 3.451439358793198 13.210564647817568 -0.7337661027581169 0.16329898930338327 0.9302261521945011
P 5.848604075076425 3.2404623425453223 7.306721502548916 -0.7752364540877617 0.4158741365657806 -0.12224644223744753
P 1.9689372519221933 2.951311603473173 8.707082973991012 -0.48564256350917007 1.1916145268731544 0.9388704581330605
P 2.848588852361699 6.206903435142703 4.879880072651476 -0.8971543093411969 -0.3897568706534384 -0.23246963476177382
P 1.1923464917366016 0.38072030502911736 4.273125575761298 -0.6383077272477911 0.4117937958488198 -0.8239308339696714
Ni 3.4955318177864663 2.760000105677247 7.1688844374489795 2.0418480032930963 -2.866059344617664 -1.2348077744311765
Ni 8.553570781456429 7.815362530302891 4.872086178781718 0.2535935612245826 -0.13907971174470243 2.2167814915116146
Ni 8.529547669613025 4.542809893320934 1.2800655980157762 0.5347686316118596 -1.1106070366808356 0.04390570024401471
Ni 7.26234260692108 6.310584105491091 13.388647468779006 -0.4033034989896216 -0.45285277067265883 -2.561834334389459
Ni 4.788056000701171 6.09475175350317 9.807704003110521 0.6306520104747462 0.4327434015172934 1.911352433672979
Ni 5.878196266405027 6.223253801725724 7.203288764238317 -1.6209651006588148 -0.6322363242427306 0.4586354387927069
Ni 4.471285256964655 3.100700047606489 2.758897559418289 1.6555232982496586 2.134144950356305 0.42782796649354704
Ni 8.21535955127015 9.151969780845796 2.87881120428635 -0.19250466433306201 -0.5757389033766344 -0.8448501006208416
Ni 2.6530794143804717 8.436948810044628 7.640111205909391 -0.15814804123006312 -0.16878829455272865 2.680820617818396
Ni 3.0857583857836373 1.1483385550289433 8.57360350228253 -0.8026305298299984 -1.6282750040566667 1.2323199750123164
Ni 4.073861470025968 4.648932318586948 7.965488196594029 0.15906515372769378 0.6077524801687533 0.813307035707238
Ni 3.9192138614546903 5.632771723088503 12.22075796995194 1.026871863144709 0.5956140450340065 0.4673283385810145
Ni 5.950782127013967 8.485126512842385 6.050188787120004 1.2001534175821007 0.07189935724346326 0.008745093182481713
Ni 0.21570650769601385 6.330747366291634 13.03142342001299 0.6485965107683088 0.5325453987082958 0.871261500734835
Ni 3.0106556393365302 4.190051438644652 10.375298385941033 -0.5753051582733253 0.44548373190209734 0.5789550963210868
Ni 6.85147038520532 4.653750088866723 3.428316878859795 -0.3737635805489757 -1.3015978354725324 -0.6834642691797713
Ni 2.953527965629171 9.357593719005031 13.355879117784477 -0.8304421527256278 -1.5758101013887311 -0.8332150874850746
Ni 6.824056990572444 2.0009430240732176 12.890245846358441 0.3032006827287488 1.4450589641143823 0.2797679056271053
Ni 6.794774714291078 7.377969093635695 9.176606148828126 0.49136043982955374 0.6352823101579059 0.055698579113884726
Ni 8.306962926141363 7.924311756454308 11.405323584709466 0.5815513962933532 1.2720918555936156 0.42644754120625267
Ni 2.3134125226086866 4.068198476890092 6.039343638739722 -1.5563540495466486 4.333259106495143 -0.35285511253108265
Ni 4.439523660305393 9.24318810974923 9.88214747572987 0.47702885369823006 -0.38412872583338364 0.8790637703880733
Ni 2.4007803918343256 6.668282418193031 9.516524729183729 0.2422537107317312 -0.9554605012812576 0.08036137196788741
Ni 4.670851764655167 5.969048332070816 1.99965358964941 0.7836555313893924 -1.2436292293775484 -0.001273210285468775
P 4.376695428001886 0.5380923486065611 6.606168868771182 0.8061400856451535 0.7105420992331699 3.4752678405066533
P 0.6218013420017897 8.897811268016229 8.15541916372499 1.430302117520182 -0.3402708481081688 -0.3966628537446523
P 6.59345202133289 0.735794670331117 0.8289325942544056 2.1118015496640985 1.4670015298237444 0.6623048614933368
P 3.5981418725171266 7.535997593631378 11.470998339765021 -0.011582562631276827 1.235324566166595 -0.9309640588017902
P 3.3497778319343836 8.946336451321493 1.746920686037132 -1.800585452830041 -0.5751436929947965 1.1817373769687585
P 7.30876412445116 6.249934669883312 10.920172239263046 -1.860577517112957 -2.650844640281596 -0.08591032681057463
P 6.8270434446640005 0.3682917724984056 10.924515745606898 -1.7461269167708444 -4.1049371753531565 -0.14453147888789303
P 9.08777980060746 7.480926628873864 1.3972970690204771 1.093964028807516 -0.3183984735151097 0.7820784167102596
