# total energy = -340891.3644548558 ev
CRYSTAL
PRIMVEC
9.09085355651107 0.00000000000000 0.00000000000000
0.00000000000000 9.09085355651107 0.00000000000000
0.00000000000000 0.00000000000000 13.30538309751694
PRIMCOORD
 96 1
Ni 6.398742526913334 1.9541425461063746 11.290336126607011 0.35225090328818043 0.30724142845702573 0.3532839725383851
Ni 4.628453397315634 0.09270761255012955 5.966812451893056 0.20498402774699534 0.8271997345289303 -0.02352585103608206
Ni 2.5412025776471543 1.4917181128811579 4.826846724542465 0.4648636790906059 -0.159287554151145 0.9125739863303768
Ni 3.3778156222703926 4.298064516966802 4.920836147403499 0.1465906754097669 0.6404882798388777 0.7423780127968441
Ni 4.894760852972534 4.576390080645085 2.550348885120917 0.611712750368082 0.2415271169783518 0.48713457467366433
Ni 7.282555281708301 6.031244783521165 2.5964522383884256 0.4570264424343742 -0.5181605907415334 -0.2929473804318568
Ni 5.207495296273312 4.687053037486467 11.505882984866782 0.08047347206571946 0.5870936662678211 -0.8551121446684822
Ni 5.779955417464362 7.878951619556161 12.901510778696482 -1.0875889785191075 0.5986713438030916 0.014702082096865002
Ni 1.921206384713429 6.48720562007225 0.3958666601028566 -0.8679640609304857 0.6944495645466814 0.26492184175320826
Ni 2.80583731630259 1.5252815431496518 0.3413033587833813 0.12454655112553388 0.4880491160681336 0.5239324602283041
Ni 0.6679377167321898 -0.012469923428844438 4.635103356481779 -1.7797263499928446 0.24924891110264172 0.013067888927551686
Ni 8.742037228898212 2.2584770409867603 1.3527844205443904 -1.065353049939043 0.9735636386398717 -0.08216422950458108
Ni 6.775049307122991 0.6248543449205841 4.651934162223677 0.14522233430733053 0.35382159020940995 0.36476420526384273
Ni 0.5879727532089694 7.558453587563809 2.7891674186635496 0.2949919216657113 -1.4556902185759832 -0.9816839537541611
Ni 7.546517297221844 3.7441588272974196 3.7378815931152976 0.14368198640340415 0.5053474981372652 0.5875425808797817
Ni 7.479463163511006 3.97825738982288 12.411766513227798 0.13200583561705653 0.540275677473018 0.04869797942633548
Ni 8.383248522937576 8.88200909667828 6.854574273348001 -1.0304282130373996 -0.19689122343653187 -0.2379432562818354
Ni 6.804140037583225 1.0435208650216488 0.33678611379410317 -0.28394260583008524 -1.1148604126405508 0.47145444493424615
Ni 1.96228795063524 6.666604518479201 9.162964644207234 -1.0641130068843543 -0.8186736993357902 0.45426019254314665
Ni 9.37212426896033 4.884260917447043 1.4774300187985487 -2.047545053677874 -0.30150838262799046 -0.46899029966446976
Ni 6.4435331609688244 1.775434552547853 7.09158281800481 -0.024303866852687178 -0.609229578934912 0.14119058744011814
Ni 3.408615433145165 4.306309920881624 0.5382976036921401 0.0448058434607809 -0.10860879684935489 -0.6093673900643569
Ni 5.968708803884933 5.714474001369031 4.854349282936635 0.1366073389448099 -1.089391321835169 0.36912762443886105
Ni 5.232758777507371 3.193934933201911 9.263380391243997 0.46185214595779167 -1.3580384349587642 -0.010663907471749376
P 0.1481590902339689 5.592811112072373 12.579068213189927 -0.08709226293381775 0.41521567704617524 -0.3927213525984011
P 3.872994399823179 6.287643209115048 12.689197536944429 0.9335498172510954 -0.5075164807641259 -0.04637653038201045
P 2.2890132171167368 8.399784785033566 1.7924608116350318 -0.07844230056830362 0.3447895619141288 -2.234910339901841
P 6.496478290406449 7.8187428983567475 5.799629842108748 -0.7799752543243277 0.3263598944540315 0.6544992494059889
P 4.784879709512271 1.0134846858214577 12.82221126563254 -0.1572628104116324 0.27279867339812375 -0.33132418043784234
P 3.9986299919983117 6.27087058483407 8.175971613896452 -0.12677364068383973 -0.5550062988149732 -0.19014850539605962
P 4.652880520048962 1.2068562257025908 3.951605735294671 0.2553869056795795 -0.9887537161167487 -0.8680350233777374
P 0.3860285386953364 5.45264833637366 3.752144232808754 -1.6081748908726818 0.17634219564058662 -0.17512349274213712
Ni 1.4092731645862022 1.2473832495750032 2.5944695232904955 0.43670161483409303 -0.45167777652795116 -0.22469513302267755
Ni 1.8995156088140175 6.745658578504886 4.626227956435427 -0.18760105638385757 -1.0406971990635754 -0.11200265302225228
Ni 6.1316441670220465 5.517093395196346 9.04248447492085 -0.4467793107850692 1.519514512120796 1.6176257518729367
Ni 8.660301367158226 2.337058376642466 10.38065989426224 -0.06832963761433393 0.42785676284895346 -0.4568024993490262
Ni 2.306249474914425 5.170740976507461 7.056323034516353 1.1464636413681288 -0.4008774060466322 0.3943079803592306
Ni 0.6424760548968704 8.908627115049393 9.101174114539043 0.49900972884469547 0.2863226760264876 0.12313887214472984
Ni 1.473572769756587 1.2672831273804568 11.371884716769658 0.4174257973236166 0.11853274083128618 0.6755573556278688
Ni 3.9425394273296743 6.827276259152379 1.621646405969829 0.8470949307909604 0.41731035479167483 0.6462053848283128
Ni 5.67755604624434 7.9001514893790565 7.976563747444821 -0.24659193309576888 0.5048870135610788 -0.11251867342672234
Ni 5.3901396292972334 2.9020912707128876 5.003329277220779 0.28420357280095565 0.6652919691461188 -0.034471551414308375
Ni 1.0179937490427937 7.181110450081506 6.784946519076758 -0.7874317106023729 0.3424107772693071 0.5300717403568226
Ni 5.347285346988002 4.68988029285307 7.0175778178846295 -1.6212816034579691 0.08625973973019338 -0.1939694218040466
Ni 8.095413926740104 7.3069369501752846 9.068656132396464 -0.5343809092551378 -0.6092259793904863 0.9004049550680105
Ni 4.593017251273762 0.5394621419958764 10.620330240756163 0.08039736741214541 -1.0449883702397615 -0.9099393769210071
Ni 8.172631634405487 7.1926012886132975 4.661261377677489 0.4868365838172712 -0.3763573094180809 0.13136640226084473
Ni 7.317409613140968 6.217052733482639 7.027370485025806 0.8656575242844962 -0.564327576215899 -0.732620419189448
Ni 2.2655133614168297 5.130050317276209 2.6067639932512514 0.987250906318977 0.11110713779117638 0.9034542834172957
Ni 2.2549225173586507 5.427939397188999 11.458596002503674 -0.02482065858810564 -0.6965092752891876 0.3226215104575218
Ni 0.8993808410178264 3.2875979944305938 3.986545520748065 0.8653988713064709 0.06299434144434957 -0.3455881465560242
Ni 3.3996791243819118 2.8127918190532397 3.1932122103670393 0.007568813486193417 0.10343753706106057 -2.4305214110743694
Ni 0.9648849842463301 3.520942016134741 8.300044488394674 0.5960259357604445 -0.6062632972177365 0.0032447321895427987
Ni 3.9838391737299363 2.7347559345936636 7.056190308058628 -0.9479099426275094 0.22414980204216878 -0.22432437994682008
Ni 3.802449378457112 6.908739395294301 5.997347718937706 0.9862934275017142 -0.4923510858775972 0.5525884334021
Ni 0.7592326106843442 7.566671718918825 11.48668310276303 -0.10326475892862216 -1.3627430395232853 -0.3314172543722808
P 0.10102756146175632 5.7250012094543274 8.166111674441087 1.0050871631694498 -1.2844179812591363 -0.303369089985813
P 8.82021856701009 1.544790514264546 8.168533477751902 -0.9206665335305242 0.6899791874801536 0.1341974439517366
P 1.996324105273713 3.3417249347931652 10.694587057511889 -1.0857596386198527 -0.47152386471960084 -0.42211934614454405
P 3.925148625026416 6.1110079301018185 3.8697644196567658 0.6186642419852507 0.26420244708868046 -0.5887476569314765
P 7.05796575170203 3.9684029048794756 10.250000696570757 -0.4950070354432055 -0.3925604015405046 1.1030343665399005
P 6.123326036281074 7.694907295128841 10.176222967782298 0.5384854183418145 0.06388214336594158 0.5303131669436673
P 2.3476855841137203 8.616047093445596 5.787003556003681 1.0814710385468278 -0.15948552909456404 1.2512535786920256
P 7.068838412211542 4.058484169920242 1.501007146751241 -0.23338417615624324 -0.04349972305484767 0.33310466937703276
Ni 5.561502213414546 3.063744823539097 0.16839169326906125 -1.0359537708413191 0.03641324852171148 0.2697709423153935
Ni 1.6466807977015137 1.122120382383892 7.161289662699491 0.1741063643315324 0.2410506915625655 0.02951060786460724
Ni 7.285064357210496 0.4844661160608051 9.313461901901944 -1.3092558662384226 0.7524518520930782 -0.913202363942995
Ni 2.742437705605819 1.6155991703754082 9.340511735803325 0.20501051010955662 0.41410830291460937 -0.26662056961186986
Ni 5.937372632667301 2.290704115824738 2.4825847557697838 0.8867757943203501 -0.35969887492579344 0.31153594206732155
Ni 4.071429544975046 6.837276197748084 10.418127846009696 0.4674399244582143 0.5773455857421219 0.06973500260229282
Ni 8.33318519398617 7.257855433376909 0.5158268325822636 -0.11203787713556188 -0.05666762789537338 -0.3200316382431585
Ni 7.6358258397347605 3.685913730404071 8.120155592996532 1.1409465682046416 -0.022208417776239175 1.688840938565182
Ni 3.236752852098067 8.42214828407487 12.333969718209193 0.3895730367774065 -0.18261363047159518 0.915208081519114
Ni 0.18449886709076174 4.844642978901513 10.290156813629801 -0.7272038761595669 0.2159868066154022 0.31457344334206466
Ni 8.793209641948417 2.1488231688582182 5.988246865730288 -0.384829351444834 0.7185356589616078 -0.38779640449295794
Ni 3.8931124581070837 2.803173696294825 11.651550272219769 -0.6009272297168038 -0.6161229636206357 -0.2790009455540937
Ni 0.6138516852093278 3.323225048391111 12.71039286134069 1.6645761524805458 0.031106491596817398 -0.9531411091194616
Ni 3.110580899580073 8.409311999259293 8.066681375898662 0.7056161226864622 0.5624164752361153 -0.21598860638761508
Ni 5.695910478994095 7.634834936728458 3.612890542436924 -1.0801824016423913 0.9282469169809432 0.10657428291782935
Ni 3.2206620418122505 8.571392822189138 3.6488285035792347 0.7206946142861395 -0.5275636292229882 1.03001709364191
Ni 3.2543709257330455 4.3997457107785864 9.291587490766501 0.014678427947781174 0.4258934684749955 -0.19757642242901458
Ni 7.224592001266286 6.433342314454474 11.71907531212993 0.6050340527963257 -2.123971609367729 -0.9664216282784519
Ni 1.0625116575002198 -0.12086743963563552 -0.030150723951378192 -0.276622160909272 -0.5706506902204496 2.317423982326041
Ni 4.646235106309453 0.20712509179153518 1.8066716334648556 0.22005043516181455 0.1322832576481593 -0.7701068461706801
Ni 5.742755645888339 5.491429916418459 0.3932030400950915 0.47276030822986326 0.9928024322648257 0.10097056357780675
Ni 7.783988566310037 8.617492539115338 11.352352109436266 -0.1737890902014297 1.3665937807279431 0.7926281672016479
Ni 0.25241390460615737 4.717707394708938 5.943634412398866 -1.0396834130870802 0.06997205831376337 0.00829540723957281
Ni 8.206640516484153 0.055456023110473755 2.0953053156646573 -0.4798760933390381 0.5797115148711371 0.7709743363772981
P 8.386339413048976 1.7156621923053423 3.6829301123612437 0.6972584947503863 -0.6460022676785713 -0.6041490790882111
P 1.7016713691246237 3.2052984997879395 1.4466674804221789 1.0424355219109207 -0.5501307158902268 0.5368635664676754
P 4.632144283742776 1.1423111674939475 8.279300979405875 0.8173174424182117 -0.992521153578981 0.39307590772434237
P 8.633983346944984 1.1504838445826195 12.554959270321008 -0.20511026891221448 1.603278224902013 -0.5122989897544338
P 6.476742047959835 7.869215315705253 1.653074394805477 0.08535496852773687 0.12189240133213847 -0.7672806895757946
P 1.9989877252814783 3.043617674401923 6.168668485129983 -1.322664940555477 1.726265401960227 0.2804101671967945
P 7.05402941223663 3.7989584908018843 6.17904660322167 0.13011993144825335 0.398013711345592 -3.088080273242288
P 2.3184130365881104 8.569583742388641 10.392621638993358 1.3596937111740002 0.10228234041069481 -1.0265908415691805
