# total energy = -381168.6125738039 ev
CRYSTAL
PRIMVEC
9.27433519471872 0.00000000000000 0.00000000000000

0.00000000000000 9.27433519471872 0.00000000000000

0.00000000000000 0.00000000000000 13.57392702163518

PRIMCOORD
 96 1
Ni 7.593093162399867 3.74490244446126 5.799501614172819 0.5075231656323452 -0.17461492853683477 0.044724596600884264
Ni 6.167368128268085 4.704740513534134 0.9049098901650042 -0.5778204684960113 -0.7960269084705517 0.8104394843514559
Ni 8.170949178881243 6.309284008734132 4.2441056046187295 -2.231825016108298 -0.9263954655945014 -0.6470265951780276
Ni 2.5660602189823454 7.808489602330853 12.637353183844162 -2.592780132038696 2.1251484032846495 0.19915070889466993
Ni 8.712839322637006 1.5769894446925736 4.766281293590367 -0.6602366661103984 0.026392888171231962 1.1090893144847287
Ni 8.521825110502729 1.7428331105201686 11.8135380825169 1.6205994897892801 -1.681013472100963 0.3310215615957589
Ni 1.5472281023572223 7.492791224925008 10.241147780754865 0.10619247409837841 -0.2631122993482953 1.1988033313121096
Ni 4.256725192813094 3.586190742565072 2.4651202072311778 -0.6474726815765107 0.4010460704140125 -0.1270006690929813
Ni 4.761647835618807 2.8176265670179967 6.149273899880341 0.019990069968681703 -0.1262347374612342 1.8848592724784572
Ni 8.0617531537468 2.386759492472733 8.506807179170965 0.6617399901288024 -2.65632803199367 -1.5179034588799343
Ni 9.009135790362093 8.278837522722672 11.627711006178249 -0.20738132433457832 0.05889883121873727 0.8834827253913752
Ni 5.583057174340339 2.0315988178911564 8.195502981883063 -1.5406088708972498 1.0710734973625875 0.3567765590726759
Ni 2.6251377355532983 3.121574361457532 7.52864302332506 1.1408910323763577 -0.1335901493850409 -0.1645050937963425
Ni 3.6348346317981406 0.6748961701920276 7.142288121587063 1.2542424861170205 0.5921548828408123 0.5297002159500167
Ni 1.105408037691033 2.2919943332385104 9.111037550695428 0.4231169341711229 -0.5570125306117246 0.3315679210175322
Ni 3.33372478399451 6.044529555743396 4.239517590890684 1.190782260779846 0.06547365622277757 -0.5940011920209318
Ni 7.2445543633020675 2.1978598288122666 0.2390515598314371 -1.4189247289211757 -0.09950966276156412 -0.11593721218996808
Ni 7.1028146952088385 8.538509639907932 7.880208038067615 0.17904648194562714 -0.1284849669479916 -0.4760065830813027
Ni 2.4754406876770423 5.408848057971613 11.999283544703932 0.46776131235337504 -0.5394279847607419 -2.2945349935430097
Ni 1.816731015078623 1.28971690532283 5.944511412932126 -0.3336633700939802 1.0273151213297147 -0.0022378881915832427
Ni 5.348982222890687 4.414500186832725 4.632821752152483 0.13406040415324008 0.5170874122820127 -2.9271484986195007
Ni 6.9121343591493725 6.703600927422862 12.159551480082161 -0.23436402357100927 0.00604800596629281 0.035474024536893745
Ni 5.643952460651936 9.394345311676775 0.4743572155901885 -0.38218265785060634 1.040544475535795 -1.523157508190022
Ni 5.253892461917062 6.974532087797627 3.0703540618471616 0.30976342354793107 -0.25653361768951305 0.7690750624720561
P 7.3969687914538795 5.212834979050562 10.689820651856577 0.423461204884419 -0.7168942667034428 0.14683518732040518
Ni 6.970423557210352 1.438347404626769 6.295465248971068 -0.09931683002446766 -1.4515160325936356 2.3871289030213467
P 6.657155055682307 0.7954560385061231 9.356861230244307 1.354656405860409 -1.563972742434171 1.4675136935734727
Ni 1.1888028617108144 6.051105059550115 4.793198197255027 -0.5608169919594794 0.980390431753718 -0.7128141830967981
P 0.905164006955278 7.3388650801011295 6.940348742338094 0.4547530730191652 0.5001543839720999 -0.3062399837757048
P 5.858940829824818 4.676732020591547 6.644545669256896 0.02559841729439462 0.705015770098302 2.2695112178051624
P 0.1139648884030116 2.5851468012591146 6.721441966453873 0.6427757903214737 0.2149380536359137 0.016345274127242817
Ni 3.318292289869853 8.46992592954024 3.5106382965692147 -0.08492636563075051 0.7287082286192355 1.555534896079463
Ni 8.541449604233362 5.94425544127477 6.352828868357984 -0.2909498903858538 0.7980454815624772 2.0383736715912506
Ni 3.2191960159984823 3.5872758398082114 13.335080912952105 2.159740539437222 -0.035359353335900394 0.8244789931636575
Ni 0.2914320788017801 7.174969024709939 2.829892803033184 0.7972492109134269 0.18997264193982766 -0.22184995026439858
Ni 3.833574365330158 5.757646538460933 6.600403542432547 -0.35568281178786487 -1.3674934097240772 -0.36756285105490244
Ni 7.779572224517945 8.50887813826834 5.415711993609629 0.0990679472384552 -0.5957405433095417 -0.6655925311056731
Ni -0.10464418131450175 0.26032132066406244 7.129162154679234 0.5438857634217794 0.08080154482909956 -0.23830372494504765
Ni 2.341482186994021 5.758388485293849 8.626135415742418 0.1938084707461501 2.9303250965752694 -2.087716226580121
Ni 2.927555264649944 3.738976144133342 4.597516212108165 -1.3244994226610545 2.0545186567822293 0.5082705853213312
Ni 6.7570118250574165 9.237850175943924 11.661062443751373 0.5756537998619957 0.26454517514007986 1.3636796924049417
Ni 0.23105893757384727 4.946587358058582 8.44268442413618 -1.3276942754492682 -0.5435024119404317 1.0406992559461046
Ni 3.040442475278145 7.936234298288202 5.905255933436071 0.997819425863443 -0.46157883769174696 0.9877676980543957
Ni 9.19976048040909 6.734642128044993 0.011295213097608097 0.3635951246564061 -0.5326484999450632 -0.6095568803673438
Ni 0.4691914107660094 3.648866701275668 4.539107375120378 0.07267454484659097 0.21296935994531707 -1.665425644965035
Ni 3.7051340942169513 8.125644050396298 1.3410401500562674 0.6725221683459708 0.34907199133956657 -1.638989048040061
Ni 1.587506541049161 2.8612159434518234 1.8753466697460854 0.24785228786543118 -1.022097324574201 -1.4181420851188804
Ni 1.1284547611884927 8.562131372200902 4.920684139254395 -1.1944877346558913 -0.394800603724933 -0.3281231570020413
Ni 1.0778076155065501 4.583311639991985 -0.0686857280572178 -0.16075822515940058 0.26990849633452224 1.0045716569856118
Ni 3.8514923813450848 1.8545053832094691 4.403110375513919 0.2868713494411059 -3.166005010744225 -1.3391662806446096
Ni 1.4362792278300152 0.6083546684819376 11.20728590587274 0.2575090942289049 -0.8718543971238275 -1.1869924547201105
Ni 4.223903319791963 6.479124913124064 12.776445956610964 3.078276913998621 -1.0677925126184706 0.26578496108445193
Ni 1.2669113145460682 4.580427321679022 6.416924727820075 0.6624023063031496 -0.6008097303023331 1.2491838406471905
Ni 1.730312757714708 2.8751645439106484 11.715955380184678 -0.4654884571587983 1.297893904258384 -2.0613361939246952
Ni 8.51890369484812 4.0537656366688655 1.704762891089697 0.3840405369949515 0.370251196520343 -0.9301341067013272
Ni 8.437196799873224 1.8327941640112586 2.182090676312174 0.12229914985225389 -1.4620686112985013 1.4949838739692833
P 3.681252680532461 7.455768077962489 10.74031569843777 0.7517080319485182 0.3334774793354192 0.1085388628433679
Ni 6.393318761897304 2.0899343876291927 4.322969915790017 -0.07039757588695618 1.1221659451630288 -0.2766255033433816
P 0.6081942224793195 2.4324263200387253 13.5014430141292 -0.9676215621238238 -0.26443847435888657 0.41779912150263526
Ni 6.0117355057285 4.103234941753553 12.245732314459541 -1.4389775338069928 0.7929135596525506 -0.3847015676177181
P 3.1090169113104253 1.330227202400055 2.4059518021731927 1.783254160640445 -0.6342541260037077 -0.9817592870767865
P 1.692204513509049 6.6718270543032245 1.1159844897942535 1.8692470198624969 1.1258984156222673 -0.2379861937046288
P 8.880296722826193 9.193806357074937 3.44928393065475 -0.9896823985786053 -0.6540714178399509 -1.130200642542047
Ni 8.314339678677712 6.964450885205377 9.691308604117946 -0.7226319405181684 -0.02408609441492626 -0.7638968607052263
Ni 7.662641403650349 6.2645075173676394 1.835656223919233 0.08170168804586574 0.22050552042136218 0.5993385450734452
Ni 4.275385155660936 0.5310132031852112 11.599531865464089 0.3584182084411569 -0.5914907668942524 0.9310609893909708
Ni 5.831377504981981 7.024520755665355 0.785941497807514 -0.5925534038308118 0.4728700943348501 -0.47239881112538645
Ni 0.33616034362413366 5.841996619028094 11.314696621440476 -1.2369333054146117 -1.060284891387516 0.45315770350758733
Ni 6.9690509555694575 4.208461551331894 8.794045403499684 -0.7147386538130206 1.1311907743694583 0.029160166503723974
Ni 4.2199617272420955 7.239240169111306 8.442168771087303 -1.418173709687764 1.614441697718 0.17710324217632722
Ni 1.5371283510941505 8.806352446590683 1.8829071079735016 0.3128713730492934 0.8863541334018994 -0.5114821502800933
Ni 5.229640074816115 5.8332045490580375 10.18541366209974 -0.2394406667629683 -0.2678405580619 3.0709299867152464
Ni 8.288019114780008 4.000670066438299 12.707490345393271 -0.2334919053787011 0.9247682144037236 -0.34834385492429043
Ni 6.181641330466311 6.304591195015937 8.215401995941876 1.9294105767262708 0.014873317567406643 -2.3371276314025553
Ni 9.038507610610163 0.0432323145204862 9.481591767192935 -0.5459171920295114 0.5380226197727831 0.2529710971492353
Ni 5.660599892715493 1.7714444352645 2.3500136481390164 -0.41702444812013983 -0.9260488808883599 -2.340525601340511
Ni 2.1507554792574988 8.583879688740758 8.498323944570108 -0.51364676203158 0.7042382685023291 -1.9427062653939122
Ni 6.439940846010676 2.197702165110272 10.982990741114463 -0.7489248127764264 0.08714831298273379 -0.5842199442644519
Ni 6.68303045148026 8.76924583060946 2.3850882572315886 1.7550684422348484 -0.11396157652083601 0.9054191204531503
Ni 3.6861031579526506 5.805752516240137 1.7147402211253377 -0.09617545618200855 -0.4947396407144318 -0.548763660339371
Ni 5.851632653520594 6.605033290669944 5.480419031775334 0.48528106640469326 0.9110675769881793 0.23119385337314377
Ni 3.312115582485825 1.1942376222619258 9.635398273090004 -0.8518594420591393 -0.8818490464426941 -1.9263422222135924
Ni 8.757708557357613 3.4594754978383953 10.364684710736038 0.18096940999995284 1.7230191271087874 0.47748522450935826
Ni 5.52336755163223 8.933883832833567 4.623076280502128 -0.37580657912093346 0.5552634091311018 0.12787895793287654
Ni 2.4371933284402116 1.1719792172744397 13.172491611420387 0.5830313232729896 -0.5748585576542099 1.887202833009969
Ni 1.3609067039411402 1.339946705911257 3.5371072498335003 0.3195235882584884 -0.1619612443285662 1.1364263117367848
Ni 4.074020785207478 2.9029040811263034 10.718122213798166 0.3232501451804562 1.660900760511488 0.8728974936763612
Ni 4.56515249125636 4.367108332880202 8.65580865189136 -0.9914574882011571 -0.9664365406767872 -1.2761148607100796
P 5.004653972069686 2.242246798091479 13.19042353893843 0.2561433242296299 -0.4786332220708725 -0.7111645633085172
Ni 1.3277416805097857 4.971767178700676 2.248032128521143 0.6373304509361863 1.403587327233157 2.6481750638692327
P 2.459572299788047 4.145665026260949 9.662777038658152 0.046774794261693634 -3.7577850267441217 2.344136201509905
Ni 9.234669078897797 0.30386989002207915 0.38274533039585995 -0.045730155047263174 0.47418984158753813 -1.1005090290148851
P 5.193256856996986 8.462089116117562 6.741151784070293 0.16576724833821777 -0.44510089464138186 -0.22265187734040365
P 7.686337330626611 8.16275066637752 0.11400847777944542 -2.392602010320776 0.7978588194729679 -0.1502750662398896
P 6.871883743463669 3.9591488668012262 2.957351849459859 -1.440201378911765 -0.4229546975616458 0.6304990298366497
Ni 5.949319228409424 8.028115139209461 9.964361732434849 -0.5361050910350961 0.5397668561573994 0.008998346843868375
