# total energy = -340897.65052303654 ev
CRYSTAL
PRIMVEC
9.02118372081126 0.00000000000000 0.00000000000000
0.00000000000000 9.02118372081126 0.00000000000000
0.00000000000000 0.00000000000000 13.20341425063589
PRIMCOORD
 96 1
Ni 6.37557739247473 1.9056258688685836 11.40532044151369 0.04828865980305878 0.46816703243222596 -0.19702980589692518
Ni 4.512946486141605 0.30254705340677257 5.914799675329879 -0.37129249330066383 -0.7211540704210613 0.1258236180657446
Ni 2.6976226682549638 1.568170442187113 4.722016031828609 0.35319501236900464 -0.480137831640857 0.09816086204315351
Ni 3.5216807552726945 4.307245450528193 4.885936356261423 -0.10270425843946183 0.1891403758465194 0.12009957109777379
Ni 4.9951648510955255 4.5970690261422655 2.800430786497272 0.9010891256192288 0.0754096843895669 -0.7510200047425581
Ni 7.219815867908705 6.055361448253449 2.584370725395093 0.2485346586444365 0.7103646931150411 0.3402628776883688
Ni 5.176382393565581 4.519180124226372 11.63297362606411 -0.42589449691626 0.32222504635005156 -0.2181668449858565
Ni 5.598763245616083 7.945642283283842 12.371638990386051 -0.2816964901083858 0.4955258840611531 -0.1329535442423065
Ni 1.873384157558947 6.399059534203601 0.39730647136076064 0.15456340920259834 0.28698833463494444 -0.6581736129337826
Ni 2.604857834064423 1.493213425043361 0.4079397408405225 0.17713229564204977 0.17003219426215876 0.71011838143219
Ni 0.5051944182652004 0.08557495061085965 4.750707005149584 0.4642214175209166 -0.39527574358913864 0.612598495407145
Ni 8.671026660647179 2.50428967578803 1.329808210212051 0.7353316474730239 -0.06639719647831147 0.16721529363865395
Ni 6.6890184275763875 0.6132357252961829 4.812037523990817 0.9021808160215109 0.008803457224242903 -0.5838327361283622
Ni 0.8239606582314569 7.340826028934857 2.383124350398553 -0.6351097891357836 -0.37306912558511235 1.055938184383046
Ni 7.603685285829146 3.843637787989432 3.6873701338711005 0.8960227668399148 -0.0763072565031718 0.7773655846156226
Ni 7.379427674904061 3.9369168296630868 12.641516728365652 1.2552192482079931 -0.6101418063365363 0.1752762162699175
Ni 7.873292388291317 8.820435508635484 6.8578002680206085 0.24502767393244254 0.21029695531947656 0.4214793985677
Ni 6.855865224070995 0.834858248399907 0.35332729766025445 0.633853033910547 -1.086699891045935 -0.41861364698413067
Ni 1.903514911832642 6.502550556068221 9.180717236975257 -0.015553888574199022 -0.07911438693466374 -0.12526748845195845
Ni 0.11951805720672941 4.9224180240107716 1.3953236562711178 -0.10127729618494816 -0.24821301363895962 0.5171069526660385
Ni 6.30378681088489 1.925905490307885 6.956932253817847 0.3981682346455852 0.08721747565777238 -0.3149814774137608
Ni 3.5665521240623232 4.5815525898097045 0.7152220136839006 0.4783030924249634 -1.0679642623096448 -1.4316023243888443
Ni 5.996678646891058 5.468109438985567 4.848319823575658 0.21911378228015815 0.9272542140503708 0.3189216930084314
Ni 5.317482731168834 2.77754133655157 9.171804307267948 -0.5318797400998388 0.5823728637533842 0.2065305462985088
P 0.20957563410459476 5.4959217489932914 12.408965040949775 -1.0166455574310105 0.0959106325563961 -0.006361166331337431
P 3.921553753457068 6.2490372457091246 12.443121949604414 1.1114439307598343 -0.08409949885408097 0.736161599573487
P 2.3990575654279542 8.389087599774188 1.3585253449663786 0.24045779517357296 0.8396973527753087 -0.5359554528311091
P 6.381847115295154 7.617686163264109 5.7883244810884555 -0.9917025143324276 0.2390097498731368 -0.6215410493124135
P 4.560343786427232 1.098473480506213 12.417058847157668 -0.016459431107603912 0.37891555706356034 1.0385246168922888
P 4.037322606629022 6.025717837911125 8.11835735991469 0.08477672742676366 0.5466689825938714 1.0053051927175267
P 4.743582074094086 1.057418072512325 3.799031642006883 -0.37100555818786424 -0.8117232361598858 -1.2623908262557677
P 0.25407533011695493 5.555452541643625 3.660409423624883 -0.2257202318530822 -0.53046640469208 -0.3193739500545016
Ni 1.356001217707163 0.8485920987910068 2.622198353784452 0.32601793773358045 1.1144356663983064 -0.23334920915324975
Ni 1.8783909146313722 6.354558033954458 4.87648305763765 0.43279379513925464 0.6495295641055394 -0.17507541311302105
Ni 6.097355059374421 5.535831466630066 9.181786247269098 -0.548953407752674 0.21434258614375987 -0.06357206832469052
Ni 8.586561315657775 2.101656195325887 10.11674625873703 0.19208943117251434 0.8903498848248538 -0.10337300237171229
Ni 2.2544570084659608 5.220505004090325 7.079565325830178 0.5969420198168107 0.09471944046177236 -0.34900822798116665
Ni 0.5222895617827609 9.047615983148797 8.98436936484417 0.5439896359894953 0.2486624424715524 0.03668707100838843
Ni 1.481540013058283 1.2036424425788887 11.457315839240426 0.10233376247392054 0.045349631779392864 -0.48163087124661563
Ni 3.9992892952464185 6.790064708600237 1.6021812076623403 0.6766603588840604 1.5670228421144046 0.19071491942249091
Ni 5.645204300406796 7.661276523937909 7.928940463384944 0.0838578151569201 0.6630862197440516 0.27159256890516453
Ni 5.398186242465982 2.8073653705721795 4.7656406730012835 0.1517922742153644 0.8946906782920526 0.2611317785831567
Ni 0.6955377903829417 7.2776506779831545 6.889700076459893 0.2373588445332751 0.1255500526893838 0.2594973283035273
Ni 5.1043211764583125 4.403681906571846 7.055733162165433 0.5771249850908835 0.4816550396163318 -0.0069674324567686454
Ni 8.122574763394615 7.2736993994287 9.03747346607397 -0.20097104993286033 -0.8649774674983361 0.20804724005335137
Ni 4.5297168670382515 0.5097943199430917 10.307773436595475 -0.42910194810996416 -0.6927320676349424 -0.06606552417050558
Ni 8.219732914151411 7.18574285626447 4.681151872933703 -0.3335898365435674 -0.5213934958565343 0.06847207672946917
Ni 7.42697833531623 6.086421384470315 6.930934103895284 -0.7475166195749899 -0.6845886125922016 0.3327899663500914
Ni 2.4457782769200103 5.234487839157459 2.6402867296509744 -1.2966227508554444 0.09906049103928746 1.250060329714873
Ni 2.3982005529560975 5.238186524562313 11.353576734818164 -0.30451400222353364 -0.3141270998332655 -0.19134278281447692
Ni 1.1067819908912648 3.2000304428090427 3.814004100949414 -0.09942918723261586 0.9275758590558477 -0.5197557031427952
Ni 3.649889821062441 2.739634321743765 2.7700501454291517 -0.41682210230134664 -0.8678231644772473 -0.6322818327686852
Ni 1.1152348402189451 3.405686372502883 8.28308327607105 -0.5330984429982883 -0.1735047261917915 -0.38159284678540734
Ni 3.674761225114111 2.6058862490306507 6.972300742734214 0.22571354698486287 0.16735027655462145 -0.39159880895818366
Ni 4.145288135715125 6.822901818048216 6.085440781778833 0.029474869530665363 0.011000464875561701 -1.0166159897446554
Ni 0.9080362880757632 7.122603590048424 11.239591369706062 -1.1026317317848429 1.390958839835869 0.2856960981860821
P 0.15898844318687852 5.501009696720946 8.15210470681962 0.6057313359736665 0.11784831316975189 -0.5072683693090618
P 8.59997581613831 1.6246340323065915 7.833573017635134 -0.8229106202352731 0.30120602089622317 0.9941201226349846
P 1.7653825437371873 3.3116675937482576 10.453684771580212 0.2425419313961113 -1.1861984980639055 -0.7505767465575526
P 4.084331996006336 6.242866755911758 3.872336880375931 -1.0387701572441916 -0.44165870172905225 0.06888499589717169
P 6.840475084313233 3.884142903764549 10.378319094805144 0.39466896324307515 -0.3035562662959546 0.0427535889174425
P 6.353628852011287 7.801375510126677 10.124985306005943 -0.6835910245656227 -0.3827020206891861 0.5093329651475744
P 2.291606243824966 8.469691878048279 5.926088784880208 0.5967558719479336 -0.33119793927262314 -1.0246671421839062
P 6.847710073812486 4.096844378095442 1.6348992374826505 0.23853846666367304 -0.02818263308180308 -0.6032885308601288
Ni 5.366413632719888 2.8110369924252914 0.5768045761767547 -1.271130520121611 0.5272502117476274 -1.1772749703220307
Ni 1.5575976146395771 1.2776251718598988 6.88612227491949 -0.5227114433370095 -0.2763516808567047 0.2123342974644795
Ni 6.726862294096791 0.7741366594728887 9.140498994848613 0.36707357012330977 -0.7828705735942517 -0.5076015842787645
Ni 2.700022303176162 1.6701278627863052 8.956377533276552 0.16764878163164676 -0.7258589320958984 1.6542192347262543
Ni 6.57528836196906 2.002161557935293 2.3691676767647705 -0.4516425524146415 -0.5062173023367281 2.4049371348473616
Ni 4.288409218515176 6.999491493170246 10.320673729592894 -0.5314987026113362 -0.4452194224971171 -0.40165053676723084
Ni 8.251406290874447 7.147709544881865 0.3906335016193678 -0.7472258278074486 -0.2883934425125872 -0.265297222814756
Ni 7.6050474846002025 3.7094476772645173 8.21194312184143 0.34851817571862553 -0.02518729789890501 -0.17022374144767458
Ni 3.0575047581473336 8.314085476710865 12.370292127627648 -0.07458256050258123 0.36326448078986473 -0.40896943902614735
Ni -0.03331342795865302 4.70432188169914 10.185140364583145 -0.08817032648934492 0.3055056767128416 0.985335177353503
Ni 8.562826580779305 2.2211147127187822 5.685284518419551 -0.09982950799482807 0.7220251601721048 0.11641518026765113
Ni 3.495528343105197 2.994338428379546 11.763687874626854 -0.10206045420787585 -1.15102477837625 -0.17385902420741672
Ni 1.118707996025943 3.469799926581671 12.68788741792183 -0.3901268523983475 -0.1372511431763959 -0.27309897824736196
Ni 3.178695342851771 8.193661692639141 7.966015725035852 -0.22117812100835454 0.7475752407270674 0.41198482881370335
Ni 5.500396256214775 7.8743929727288595 3.511091689594113 0.39872770669348107 0.25492564977244486 0.34564702481841764
Ni 3.0123176479207054 8.233923236448572 3.5318340977682166 0.31390315674791747 0.2762876603879887 0.7011256910152764
Ni 3.3721997378130757 4.278287450163354 9.16124230514111 0.3356526326098671 -0.4380807545698068 0.40134406127040556
Ni 7.054656032806068 6.076137234808035 11.509416784818958 1.2562155506829913 0.6730698133193247 -0.8485080090884032
Ni 0.33318660245323306 9.18085886956271 0.5312169253843323 0.4763462258089086 0.14975570340130984 -0.7733199537913391
Ni 4.70244547544497 0.5390978316518473 1.4734218496538223 -0.6982046607137395 -0.9452925596093205 0.5921055176601158
Ni 5.910075281313969 5.79907863443267 0.48689675093186635 -0.007797384557231732 -0.1810578559487011 -0.2989110542144594
Ni 7.927915656892282 8.772524000866742 11.197116027364066 0.7542223137299398 0.24729127315563862 0.6946403404012488
Ni 0.1567358535634828 4.7664327329489575 5.929389636074443 -0.43378238430476906 -0.7110663471677561 -0.7223750873123559
Ni 7.869990634978691 8.692018955615708 2.650453603922368 -0.04421063307894321 0.4020565139563979 -0.15150251088908748
P 8.526344913029957 1.6269885613082187 3.559931477187633 -1.1890832758108683 0.0431618800994547 -0.7174905055265449
P 1.899428315519473 3.373264237514961 1.5968866748230492 -0.338519669745017 -0.9945101589845516 -0.24983897927815682
P 4.6553368530445995 0.9182663106345568 8.033855028071237 0.3601043378943282 0.18073543961227584 0.7980138569935934
P 8.512028294157995 1.7078273903640813 12.340809094358999 -0.2901564479502809 -0.19989735725270735 0.5581196476329744
P 6.271418803000454 7.862015908398467 1.3760074972738616 0.2420125412552026 -0.4445977297527182 -0.16880140717885125
P 1.883569074198169 3.319461896650195 5.96893399576269 -0.5520772980936363 -0.37604414905303624 -0.2922485545926193
P 7.009956066510811 3.8673995864196455 6.023899167234005 -0.16245772434901054 0.46970866588773297 -0.5271669080052017
P 2.270253101499865 8.56633582132196 10.141701559799102 1.0401760364527828 0.051320247540530974 0.12053974395898594
