# total energy = -340869.59462706983 ev
CRYSTAL
PRIMVEC
9.26697756540169 0.00000000000000 0.00000000000000
0.00000000000000 9.26697756540169 0.00000000000000
0.00000000000000 0.00000000000000 13.56315838740948
PRIMCOORD
 96 1
Ni 8.628084485801544 1.6795655780211558 3.333580245040889 -0.8747918824855965 -0.6093457927978021 0.48338976291925134
Ni 6.3571652577971385 2.5214797719099895 11.601152422849808 1.107886552425879 -0.5006588344123442 1.1890243975484749
Ni 4.223693843507048 5.2781554386466585 4.061975815113811 -0.1864916253697627 0.7746062767029305 0.016873635826887067
Ni 5.603732167289121 0.11600588063905957 10.738834197391652 0.06143599581829419 0.06456271437273398 -0.2426817994080853
Ni 0.9962835089409543 6.3453498611894155 4.696094713932605 0.6211831517523624 0.02340423785655324 2.379418935971599
Ni 7.657692912642534 4.184327722103434 0.43651357246236594 -1.6181201750108518 -0.6240519886597252 -1.324232285042597
Ni 5.8317461543738505 2.977822823322321 2.328835058733258 0.6750647322621663 0.4673951872632079 -0.7183348558047112
Ni 0.34681386150985066 7.1139437272662445 8.940142547329225 -0.7266186930800583 1.3517258624771753 -0.8046066797197626
Ni 6.02933665356591 5.876635394505469 1.7188594169984643 -0.5722910540373498 -2.231446549722957 0.4265246743010912
Ni 6.737009408035545 0.7989691656852959 2.060867423856734 -0.2313686883881112 -1.9624040009331556 0.4402553936236224
Ni 4.224092323549505 0.4058713838952306 13.15574817267218 0.9541104150112666 0.5074393476692874 0.2904269280028482
Ni 2.4303297789424874 6.115399075758792 9.345342075338918 0.047681365236363044 -0.3110255780898063 -1.5930256939360694
Ni 4.864866765775097 4.968119431660001 13.182874469887965 0.33535515597410626 1.1349625827070646 2.095260357475966
Ni 3.6013143520785778 2.9588069850171856 3.669783417048117 -0.6760420085737712 -0.2231200752260738 -2.0750435162084586
Ni 6.810070260471066 6.391860822424053 12.93412654682667 0.25355679444937623 1.6208573714363568 1.4063288945340362
Ni 3.8797221640674633 5.922117721211903 6.746070658861451 1.414032433825881 -1.242774337576421 0.05939042614317514
Ni 0.20434427256281051 5.489044050883488 12.886533202592988 -1.8820349156557845 0.08318521456992771 -1.4747377221257376
Ni 3.8514208140753166 6.21879074630967 11.221764207915795 0.2776914827140508 -0.7075686184271426 0.6522449061541735
Ni 8.189589633500173 5.5828258655267495 6.534689043409304 -0.2997978276947869 2.300243613892013 -1.478583578234389
Ni 4.434814130187166 1.174042675787501 8.414936584393763 -0.4169905095584109 -0.21389829951748968 0.22490776325411588
Ni 2.978610516429503 8.67896019354774 11.63110051478485 -0.0890856392147627 0.29323200155181117 -0.12132341620254589
Ni 3.562179905118252 6.588098342867307 0.9142568555501605 -0.21541782148580962 0.663898945453334 0.6395094608653761
Ni 1.0451760834525996 3.2879236991531 12.905019896469653 -0.6325469135046138 -1.2832946662879705 -0.5440533993478953
Ni 0.17466214288866347 1.1233245066627409 5.771151240382808 0.10461561652956178 -0.5455610942416733 0.6813438804026588
P 2.6256684025457795 1.4921131524674103 5.838844659316217 0.024677705252338145 0.6527845807077274 0.11652008127663159
P 1.1735422589899975 5.3831873642560195 6.795807455044441 1.4346557665031872 1.4120627116940196 0.5974099605921648
P 3.1792961861838984 1.9515791753752736 11.319757863938046 -0.5311135513577756 -0.739322770910288 0.6059709627882983
P 7.319855972461233 4.672539909934558 11.897995960337834 -1.1463109178403483 -0.9547303079834525 -0.11482238185923452
P 4.02981940238534 7.379711381629299 5.031199749078645 -1.4293009299491772 -0.10961666928857895 -0.2413124298643844
P 0.2952375702471492 8.624989315239207 4.173356547167055 -0.17087525898874442 -0.06695615430557501 -0.5194841946489633
P 5.939919585434207 2.375599008459967 9.437463247572687 0.06199521075587387 -3.2222764316424444 -0.17545773615310428
P 8.975410811179948 1.286423314737979 12.219076351384949 0.3600076644154639 -0.3660667261253502 0.037196920765271424
Ni 8.146136774916945 8.120884260598478 11.542112507722118 -0.7241334647643594 -0.24645103664253043 -2.1467785799599155
Ni 4.454877136975967 3.670075326846661 11.562334906527902 -1.0276748186619784 -0.5020050640275935 -1.0238271627811142
Ni 7.811191131787889 0.6143876498327838 7.924125936006713 0.7401460381425318 -0.6980748200040946 -0.8928371700230817
Ni 1.5696870230581956 0.5862568122308979 8.153926596398085 0.28829831169561965 -0.45750029674699916 -1.980683258858318
Ni 7.983380845017775 1.1345375497179135 10.205639172953823 -1.0464587841377009 -0.28372020540663395 0.5468795559427808
Ni 2.451375085370832 5.28163982227372 12.722812580311963 0.273576946325045 -0.6690228969434607 0.33090843305666234
Ni 1.7564351583043436 0.5650270929456954 13.538677299797417 -0.2509337550042323 0.8964909647255851 -0.26194553273370375
Ni 2.187025278600704 7.402823224091779 6.988268682062088 0.2414003615925004 -0.1434215336531659 1.0236381866987596
Ni 1.04643639242409 1.0592804235600153 10.334543759897423 1.0460612915889662 0.5161774988732337 1.6511040861360402
Ni 4.20718008918943 7.737092377846434 9.553332903639093 -0.6982229155461847 0.3766190477198998 -0.34806437601065865
Ni 1.1653409836975779 7.1692027154794635 11.204362677131494 -0.06764623839406415 -0.515952270236305 0.7010357024046313
Ni 4.091148261012722 1.5277539488229426 1.5698677291239609 0.09543523558187435 -0.3900016396743929 1.313423110242235
Ni 1.7526727653453351 0.9129863529031653 2.735038200431278 0.1521080056835703 -0.5258366192295525 0.4060702631014813
Ni 4.619968345263488 3.5667855930508314 8.107499964660803 0.6921821086687434 0.8389818147655228 -0.5281246439327808
Ni 4.321136114354271 8.906900044810618 6.554952216917107 -1.3535042945338365 -0.47087851782611806 -0.2919539061703359
Ni 8.64369007630147 3.2962732460892243 10.910883052560019 1.5536867871271305 -0.05181904155382043 2.853924509027343e-05
Ni 6.561103636735307 4.270251139630344 9.759384153500054 0.3678323026662052 0.8791576156534601 0.8944466806020466
Ni 7.345803510109566 2.948020222937664 7.603805437133584 -1.2396417054847102 0.7297765219827497 1.7466084843929532
Ni 2.277702655703898 2.990286908371253 7.687937547864985 -0.5342893779825959 -0.48777400802987614 -1.1196622049045686
Ni 1.128977363078985 2.7294122182504554 4.370090777616718 0.5416283348461705 0.6317172185144669 -0.049401176140947176
Ni 1.7258448648125049 5.0023701813558015 2.8877589201449565 0.3542859314403382 0.2673070541559332 -0.47470740465390504
Ni 2.4915845017480174 4.168935272091333 5.463552448539547 0.07783629155318852 1.1037825575598346 0.9962466820596841
Ni 9.321930909495709 8.125128536399528 13.295028994581793 1.5708676697817912 -0.19908334599184424 1.8483796894951843
Ni 8.4215976879872 6.717613623643416 3.4524885431054693 -1.6406911183328325 1.455951699767486 1.0439987526329826
P 4.6846796507628845 5.4572305163310855 9.226609849851238 -0.780631656961404 0.986224779047308 0.3441465290134912
P 2.237789782614122 8.447693497279237 9.716918228045236 -1.5678849330043836 -0.2166048998153753 -1.7792149575740648
P 7.7071693067512665 8.260009397282204 9.49273242946141 -0.48848851759839745 -0.5060278120337414 -0.5159913510043566
P 8.641660608178261 4.806475539088615 4.435939141283776 0.6315102447099834 -1.0670245241041947 -0.6135927409996143
P 5.951141895467111 1.8076074093379497 4.184939342633716 0.39725934967807064 -0.6446411256649865 -1.8028413387437532
P 4.915390328367495 7.6734282408307015 12.424043364851322 0.7149515411547751 0.1342519513387559 -0.07983943802614636
P 6.200757207644078 1.8890641435982534 0.2770909744532326 -0.4752123693147816 0.4055647842199725 -0.09310864433122674
P 1.6150025441654636 2.975543146800361 2.263175741411924 -0.6652019805354737 -0.33862174254052 -1.4917586821637663
Ni 6.621283390123978 4.606188349376676 3.8062971194070916 -0.5563733543658289 1.4742697813503833 -0.08018627984260383
Ni 8.648332832144975 1.946120925491392 0.7344302259717056 0.0016287938526746142 -0.7074058675970333 -0.2774783382619802
Ni 3.0440724471251555 3.313565426536292 0.5540605514981819 0.0017462932671453795 0.7159221325981605 -0.020787369058996457
Ni 6.639604205099247 9.15404107393326 12.964588956025814 0.10160794005148953 0.24075038671332735 1.180394746897935
Ni 5.762725704229284 8.367144926836625 8.238262580639582 2.7737274305514616 0.34175823128697275 -0.2834633522008215
Ni 9.298022106948316 8.006010804638214 6.845610973467098 -1.8044158823197247 0.7311878005079795 -1.2764539892170534
Ni 4.142876530710222 0.5145433783575434 4.259971281232738 0.6133150618581954 0.876294435173052 -0.4739826106727385
Ni 4.943015188985239 7.735915471674527 3.043111461534394 -0.5368460829661786 0.30512746743781644 -1.3059599690959702
Ni 6.174652131374308 1.0281619123374783 6.138604514696361 0.07842970216281331 -0.27471723057707526 1.2009910829920478
Ni 7.311599095302424 3.029449156264773 5.328299981849836 -0.44537625978995554 -0.53685662448914 -1.1114591002684857
Ni -0.04546935293761161 3.6499752521469344 6.32507093381947 2.5640940769579132 -1.7896232973915824 -0.25985676852547507
Ni 6.091221530857185 7.0186977301413975 4.918001762692245 1.2665580702595802 -1.411597599132143 0.7603114573468132
Ni 7.491332128405791 9.025572961640815 4.5133582533464445 -0.11571686864904587 0.2698015384430128 -1.0120553669571666
Ni 9.020096177801472 8.971203603289826 2.03767495868799 -0.8197687321721817 -1.156421009691157 -0.2787872868813908
Ni 2.9202934255648736 3.817272001134564 9.832842559280259 0.8782860116817841 -1.2095317734732072 -0.0511667526818022
Ni 8.493175823985673 6.268563683705811 1.3408538351419974 -0.2058479184091874 -0.6151400308820761 -1.1323128037890435
Ni 8.53226393605734 5.681454309523612 10.475491711100943 0.030982821534759543 1.1049341546657745 0.6706774018277482
Ni 6.579285447044604 5.815000725612944 8.021346726086152 -1.2199054033980474 0.6027398574455104 0.5274641275306464
Ni 1.9602067316433442 7.559379545888545 2.8675504218057704 -0.08572237916948464 -0.22141183428571548 -0.8881274232522383
Ni 2.2244268007252304 8.688570049455354 5.0052800123635075 -0.3547561862085374 0.257007472002138 0.9396237913593173
Ni 8.630290026501651 3.740031741742114 2.3607486766451617 1.3540537392794034 1.1053995243379673 1.6778582143014331
Ni 9.29941215360805 4.696050232439494 8.560455009014483 0.7703531578535314 -1.010584438838595 -0.12873230707210734
Ni 6.198199521790171 6.583020039070417 10.671723671357556 0.3591705132261491 0.9054810840393375 -1.011038238546562
Ni 4.6209043100143745 2.846639486554533 5.668179363923169 -0.32197642067435517 -0.29584038570893567 1.448781150160976
P 5.780666573117561 4.540772753569682 6.341739446665204 0.6534965191730875 0.8893330135245651 -0.39785610272180516
P 0.12609391259762232 2.3872661334239855 8.130584932887864 0.18607767776079565 -1.324042537629294 1.1806184328729667
P 1.263747020228882 6.394010761257772 0.8835553583255432 1.753711928206954 0.40707222200343446 0.4023208233613781
P 2.9945682520832277 8.882935640396836 1.506134089775242 1.3837738920516554 -0.2577278951079303 -0.7408003838970789
P 4.292250944765038 4.4706402660973295 1.965084868721231 -0.192888530035042 0.7855897722976277 -0.05444773742591913
P 6.9233683302169675 7.677088697034663 1.7288140044776927 0.4055568138001725 3.3414043828555675 0.09341434849710363
P 1.3585667363780776 4.784800078174526 10.741248245090722 -2.1877331679954066 0.7242321951257527 1.388011584282087
P 7.026407855614045 8.241178898531698 6.43820127126843 0.45755403280307005 -0.5111893016300229 1.0476052390373185
