# total energy = -381175.6207141511 ev
CRYSTAL
PRIMVEC
9.15660146264225 0.00000000000000 0.00000000000000

0.00000000000000 9.15660146264225 0.00000000000000

0.00000000000000 0.00000000000000 13.40161180403657

PRIMCOORD
 96 1
Ni 2.236692185526387 5.261804379742156 13.27144166515215 0.03391053670451579 0.928064368656492 -0.2804803583130976
Ni 0.1297838372103684 -0.12555074037378589 4.2863443051615695 0.12758816616533508 0.8118219665212792 1.8160820058037432
Ni 3.549373408532299 5.081309452546147 9.793924686265278 1.4114006526299885 0.08189529211391057 -0.20728773617950752
Ni 3.64131484339305 0.7305686009162294 1.5458357649697905 0.8937452836596479 -0.568790497083259 0.3358300387279958
Ni 4.55679185338985 1.259435585747147 6.260228295024592 0.4877927770829534 -1.1118499079490014 -0.7687840135941986
Ni 1.7429407671421357 5.672789277888748 2.4310392193509522 -0.9425468785433833 -0.16465421777969708 0.03860357130481094
Ni 0.27184942390572087 4.495158769230133 0.6608667195849869 -0.16870807613409652 -1.1647740096415424 1.480257623502702
Ni 1.4881033930151013 1.018928292842807 2.4850476015080254 1.304016472216354 -0.9335837558128246 0.3685457837934621
Ni 5.853531433323103 5.894635417098615 1.116474483432894 1.975594274371185 0.8656418405552124 -0.40219072554141705
Ni 5.945839132240664 3.4570840228175794 11.749326991821663 -1.3279809534517515 -1.206650081050038 0.7842278589530944
Ni 8.976710828749772 9.148241443155353 13.126436809400897 -1.780914970984307 -1.3296817381929422 1.0807989521804677
Ni 3.6990929983548404 2.198152050148546 10.66947891406978 -0.6613417262491191 1.402031809820579 0.26656014868757966
Ni 3.6483104868781226 8.962051109875947 8.17822679943939 0.2510268289386709 -0.9733731198956204 0.39767483994893443
Ni 9.015507348967379 7.260360832132047 9.146532821330334 0.11886569869067272 0.36598110839007936 -2.654797454281757
Ni 7.711973570780298 1.9347349404907352 12.56793723105376 -1.0773613872538284 0.8267742169557374 0.5801100358611364
Ni 3.2232702055514433 -0.00017946938783694003 11.134287231024754 -0.2125839515814403 0.05893354111141464 0.10386074064140823
Ni 7.440397929257043 4.841031074677313 13.073499749609994 -0.1030780968391128 -0.5071601258659717 -0.8516740655212106
Ni 7.507680636493055 8.411812617330162 2.6760469818533466 -0.08780702961265523 0.8465699115254258 -0.1507401788017662
Ni 4.503756817963749 4.622893359042649 13.140909733605747 -1.0527279049758644 0.20569416644014255 -0.18180861807179657
Ni 2.5026914567847087 0.06889976304682853 5.083754265125354 -0.9467346913724857 2.105531657494987 -1.066637058857789
Ni 2.643437577215403 7.0079041743742785 11.744569221723703 -0.11465654570533158 -0.14467983154029923 0.05848719760261541
Ni 4.101983460845931 5.7522502650136955 3.7290121934955143 -1.086728173180709 0.5323265978292704 0.6761798197032162
Ni 8.687426320079748 0.23792787828425516 8.566176435393055 -0.2891871420584762 0.7737927796626997 0.022266524707684233
Ni 1.5432993863763806 3.5644177046657735 9.544775392940505 0.5747652266094553 -0.12390917465185111 0.14721571058827548
P 2.022024821829998 7.94198739845703 9.50609790854136 0.5093437637808518 -0.23408300199548074 -0.08869791685804078
Ni 4.774856316213151 0.17804736763637488 4.2082934346553404 -0.8397680581122441 0.11321030017710824 -0.2092823980120331
P 5.8368114791297225 7.52127818960213 4.301193565684792 0.09796442976163128 -0.6135330914062724 0.0057952665255384065
Ni 5.642838034643104 8.439392300807961 6.918836996699345 1.370544280735259 -0.10251733923963635 -0.5086004578569241
P 3.3215846350006895 5.408822772145722 6.126640805584251 -0.5170617012503997 -0.3381319473882951 -1.01032244342646
P 7.9750244163812996 8.12004666967525 6.977227728296151 -0.4297339252670084 1.096669086443505 -0.24288491655782685
P 0.6518135877607837 2.4160700073491244 0.14413864125689752 0.10741091988651177 -0.13492069527100634 -0.10234944620320437
Ni 5.585984696424759 3.1189124191648308 9.417205621953553 -0.9685204197890095 0.6381390628804107 -0.22195382283211454
Ni 7.603577723167355 3.9058307452212913 10.338874325830725 2.0273500667872377 1.1896391483143383 -0.37009667322034967
Ni 0.5424947547246787 4.284950670425407 11.733982359161606 -0.1325233986834234 -0.3192757339137405 0.4297341823773244
Ni 6.936601719114776 3.7119397101474543 7.534131311015737 1.0945301857236311 1.121816789353726 -0.909849131200046
Ni 4.651452798872415 4.363761538849516 7.443013970282809 0.1508751617177337 -1.2660808735128453 0.5838648749178783
Ni 6.343089128256879 1.5817387991385987 7.646879291283727 0.7763602832795597 -1.5561643021333458 0.36698281018171636
Ni 1.969099665620941 0.645901170223727 13.239908161181086 0.7474369153769902 -0.44286480622201146 -0.19589800628532716
Ni 4.621391676409727 6.582149678136819 7.828685443803115 -0.21015065954959936 0.2053799776338334 1.564420628604867
Ni 0.11333766539945371 6.552088555674131 6.285583840017412 -0.38320929934290776 -0.9258848445066699 2.320807554086293
Ni 1.1578705627937114 2.045996804348218 4.712368921140926 0.875848348774569 0.40390410868809795 0.7266626589441163
Ni 5.82032043997185 5.898197335051093 11.812998335457529 -1.0121823794533342 0.8722760580422785 0.07020962824586617
Ni 2.961611163366321 7.880903710382529 3.2016313250751036 0.3295290362106325 0.604898555659726 -0.5477156786908308
Ni 7.757271278006285 6.500582672685214 10.758894042598682 -0.441780057798265 -0.3315404102137064 0.5932270328590687
Ni 5.593740337827713 5.705606537378931 5.567619300956159 0.10227539843215934 0.4614384554591408 0.7824702528320394
Ni 7.893539820342477 1.8813977372177673 3.8229305386028978 -0.3125350727557972 0.48160798842848024 0.48524764206359655
Ni 3.7408562574326103 6.3361301111774875 1.4929801989315274 -1.4797583152687805 -0.13874289723057395 -0.335860377745299
Ni 8.612479537454986 1.2778403546018537 1.6048427358421788 -1.2818211670662378 0.16158534904638622 -0.19702980589692518
Ni 0.85083598227053 3.813990032976163 6.642254525519496 -0.3305790747417016 -0.36783538798999876 0.8428736936207613
Ni 3.776951580231244 2.0993614774254468 8.29389573556044 -0.43304036393242196 1.0569789669427343 0.08396168772463604
Ni 2.07040830373461 5.544834929642146 7.9562689496921974 -0.1975964770336726 0.8165065164811423 -0.5742751743469142
Ni 6.621220896397035 7.899427515055699 9.039788824613604 0.10280813100717777 -0.18084188328315307 -0.32244307589812854
Ni 1.6731949341240762 8.34811014124947 7.063051637748031 -1.3120956496800629 -1.175466199248066 1.2998803385607935
Ni 6.491041494005311 0.19346433744765326 0.4899331155920058 0.48943365512048614 -0.8073608454261321 1.105786732474057
Ni 4.4665260765890045 7.720663185528118 13.259943720748739 0.5856124537366044 1.0609284385087858 -1.1894164907805709
Ni 0.1351999669504475 6.683513255859009 12.580052330392895 0.7156871337692191 0.16405129408837554 0.4742777733156541
P 6.579796431571815 2.673526169482351 5.473285246144297 0.866716818786946 -0.6272776946858746 1.0360694704835771
Ni 7.324557764689435 9.03006634522558 11.109708165832373 0.5962696763401344 -0.49635917859572587 0.5516594938299273
P 2.9062869775851583 4.128171340907851 11.523375948195099 -0.6822144559330703 -0.8103803489787463 0.5677926519463641
Ni 5.180274000696231 0.8659745913986326 12.147475250437205 -0.20172746848291068 0.417044759835114 0.34492351638883173
P 9.045769916661312 4.974085649914996 8.397436753100367 0.08865883608998924 -0.6079769374747336 -0.1533426494216198
P 7.1756256425890355 1.7374742760942454 10.034952989790431 0.7859772375440335 0.17091228287426696 -0.46943072963599797
P 8.728612713268042 5.307825458480342 3.2750324733801284 0.8015149281683164 -1.6068248046026907 -0.17206696530400042
Ni 5.2871223826691525 0.5488540144110436 9.867043811246559 0.12332219180012954 0.3362678975963628 -1.001022763292089
Ni 7.266871175741847 3.2849765425225215 1.844329983348303 0.09506859627107497 1.114636726665519 -0.3409300789587225
Ni 7.946144495501825 6.879400430042462 4.478429658435332 -0.31844243937916766 1.0113017766205938 -0.20058358468645454
Ni 7.061168124835884 0.20588160463365707 5.1280465775153985 -0.4814694059680869 -0.8879865267989997 0.865772966816438
Ni 5.26195088536488 8.012282627560305 2.2295189039737613 -0.2282795079398262 0.24523567617819056 0.06392662345063184
Ni 7.159390988270928 6.102453642932655 7.432439926962703 -0.22067032813400062 -0.24948108171810582 0.7272175030063217
Ni 6.427265765113256 5.16166778661028 3.376602990294416 1.081049377628377 0.2035390677703527 -0.5509935781111543
Ni 0.7050326708754306 7.803164164324588 2.614640981408852 -0.06522631609866185 -0.660691751369946 -1.652600725286225
Ni 5.630385056711561 1.6663000132546264 2.5797296071738574 0.4349380951757671 0.09758879158976741 -0.529128916827579
Ni 0.4555903663052085 3.1371523691939727 2.8607612709838066 -0.544224891928753 2.2517302396726575 -0.9215522785695872
Ni 4.978261060162631 3.569453835446912 4.433025734632871 -0.6420183433301588 -0.8745800235851067 -0.6806072593469504
Ni 0.4160503300522761 1.9106347655526317 11.346541830246906 1.2296056614049469 0.8390144677756711 -1.1205685187689218
Ni 4.64400848191775 7.328943776769735 10.318141948894992 -0.5768617041271679 0.47456059466339556 -0.29363617896876526
Ni 1.8458609671057689 1.0071162770106818 9.359605105059314 -0.5992177032248649 0.40013924232902703 0.23052382388931267
Ni 3.6647557430288957 7.613274564071402 5.934246874842625 3.257712146742235 -0.22396545394550463 0.5703871521464177
Ni 8.747823263047732 1.5404516833346822 6.3544140128934465 -2.0341910009684705 0.03730362154646479 -0.12440925421672122
Ni 1.1370850775697392 5.934539886088073 10.248292646280884 0.8633885257446614 -0.8015488667300454 0.6089806961488996
Ni 1.8628006797332353 6.8620852967567645 5.1073004656775325 -0.8010824686165882 -0.47662441917095977 -2.3635261760007427
Ni 8.762949968593988 2.5269015109398554 8.595324644694143 0.408061068279265 0.522950555931009 0.3114678078335475
Ni 7.998840736675374 4.631930924644438 5.450609838387185 -0.2351628653232208 -0.9211535004692716 -0.6311973414552549
Ni 3.325934020675309 2.99537155280279 6.046686277642753 -2.4088467543144128 1.6370591780071997 -0.7798844943827343
Ni 3.6243842873670045 2.4342000781612234 13.22779306184195 0.7575907159815404 -0.4260667608280662 -0.8462017295527298
Ni 1.7092902569227097 1.4693964563135264 7.02235054443501 0.9493140220638876 0.6942024815328818 0.4121666058072063
Ni 2.3980955987611696 3.548851482251345 1.404462417341809 -0.5235334250176725 -1.1687250238694904 1.0476162947809118
Ni 4.601045708053928 4.116038844026018 2.0028975971232335 0.712037967052406 -1.361554675642139 0.6954816053556215
P 1.914123430693748 7.453546808896525 0.6869978287181022 -0.0796175518233274 0.16890707951878006 -0.30872495498108765
Ni 8.227243002502142 6.329024588475372 1.4115780123054869 -0.36138089061390666 1.1090116671692578 0.46557201801154013
P 5.859501537449107 5.564979452766701 9.57439242023431 0.14726713265150124 -0.15386535469430918 -0.4525303543362335
Ni 0.754377595929169 8.8585815138271 11.147822519244171 0.39867988417468114 -2.0727704039035655 -1.7815533758992546
P 5.87992075861627 2.477529116081856 0.35844340353704446 -0.9493811278563972 -0.054887653176815154 0.2973509088161911
P 7.110567989498144 7.421178222875934 12.8967462097543 0.09898387216508114 -0.49141828965068274 0.21270016544433046
P 2.853242785557638 2.5175709340926185 3.371497269342483 0.669379251841615 0.6245525824452277 -0.04184598950150858
Ni 1.6766011898524098 4.548972115776954 4.54163218407848 0.46100908123120604 -0.4715575461710137 0.10490126609078063
