# total energy = -340866.11706228077 ev
CRYSTAL
PRIMVEC
9.36388251140414 0.00000000000000 0.00000000000000
0.00000000000000 9.36388251140414 0.00000000000000
0.00000000000000 0.00000000000000 13.70498857118900
PRIMCOORD
 96 1
Ni 6.677281429394423 7.361575216421408 0.34011118551245706 1.425303635864326 -0.763116530895776 1.2162521229161765
Ni 5.888767632930804 1.7356798498800583 12.306325869536272 -0.21453644732212085 -0.534433102649312 -0.07601440785310135
Ni 1.6606283336505325 4.321965399419991 8.685673113131681 0.721983508300892 -1.596907545488979 0.19091135170401313
Ni 1.9313756250117937 1.3053439133410296 10.624559508095778 -1.1103581538948233 -0.8363623748648048 -0.41589496250138697
Ni 9.371560632917529 1.626721716025191 1.2321108630443516 -0.9871156662926935 1.2710315326499015 -0.49657643681285446
Ni 5.015379607757962 5.006231094800228 10.156300784834608 -2.1549660008667146 -1.9898970641471019 -2.2815128702517287
Ni 2.271621650428643 4.992756468243236 5.32323690086211 -0.3321947559682537 -1.699824177049563 -1.4753696992827816
Ni 8.438665136049286 3.162772960228735 2.6915224765888595 0.31010460893743363 -0.15858461454684947 0.5034765063667974
Ni 5.656899180669354 6.907473746733217 3.1082227277962056 1.1998199455020822 0.5221404013248879 -0.3937114844258123
Ni 8.237219937216373 6.79068740731779 4.917102854385069 3.5337298412982885 -0.1253083689922229 -2.1946810600681492
Ni 3.391757336757347 1.7860762641467218 7.280459650047124 0.11194197498764594 0.9617645891224147 -0.8592477641034105
Ni 3.2947849721818048 3.0792845860924345 10.97899743344993 1.4618611232733856 1.4831431725806135 -0.33345691051012893
Ni 8.634960199644986 2.264870291326773 5.2432131631581145 -0.467353278281679 -0.3055434719293125 -0.724152748038069
Ni 4.712542291927758 5.910276470457844 0.701918486196943 0.3955847901891252 -0.1523067519579377 -0.061957672649719096
Ni 0.6048712105634053 7.948690633463364 2.8289290211058504 -0.7295471795807629 -0.96283545358909 0.9547382784032525
Ni 1.290998445734837 6.582584488205504 8.853751053956822 1.0183951931322655 2.5716811452765516 0.672106678075107
Ni 8.73527547018359 6.948787195217892 11.082716475186215 0.5936942023034742 -1.2616238661827563 -2.213415660363175
Ni 5.845918507757216 5.128626399683089 4.727549786008988 0.8254698963220172 1.118922755635383 0.7199762480628761
Ni 4.424097263114993 1.4110902355843276 0.9398041691919038 -0.454092813727347 0.15501000982171367 -0.9988434962525831
Ni 7.050581959151913 8.655083182599105 12.023112441736286 -1.6843525637765249 0.5441953242423984 0.650538464986028
Ni 3.34124855590369 8.469771952882034 0.3334085185982843 1.3540977051434615 -0.5129697905692133 -0.3061250554643954
Ni 5.024893312123427 8.43625861831117 10.402085838895225 -0.41673674167639196 -0.817927822308701 1.5020857751213874
Ni 6.167642774084608 6.331594988390631 11.420188918680772 1.725261129065429 1.9681398749756684 1.3877323624787714
Ni 2.632393305736337 6.60148080258494 6.80020953917728 0.1610544162435807 0.391003598576346 1.20957342534442
P 4.079300390924899 4.728348525164868 3.6728133260870535 -2.0883813709679457 3.2957246214302662 0.36979688259174376
P 6.603484673386326 3.5577696051582532 6.091196039399912 1.5486821348236877 0.7614332296560822 -1.7342764451901618
P 1.9953215768934447 2.3706072496878217 1.6702956056848883 1.417849493579126 -0.3136041374502599 -1.2461285987606345
P 5.047319810110915 7.662558483566218 12.749572726920874 -1.1517071491552553 0.1477121906087198 -0.04223731140265629
P 2.3365789015932372 2.591004946193667 5.464877792932313 -0.9274318772788156 -0.5079990768274993 0.5304247528208672
P 2.0776394657485615 5.360860043352267 10.558364351697804 0.12553076941567412 0.10550907487810862 1.6004440978873276
P 2.5193618831029494 5.630951862956065 0.7756225397707696 -0.3081783384489983 0.7956073044346298 -0.4731904537887463
P 5.108746877667457 6.248546716720054 6.753708499926397 -0.09058999167443109 0.7292705288806085 0.663811013725218
Ni 7.820789365817811 0.3298998719194068 2.9562619010988587 -0.21326375125728433 -0.19267230025917786 0.16669490235880968
Ni 8.26554568102103 1.070029552411774 7.630266199240685 0.428667688786023 1.6435800098448532 0.7482596683886017
Ni 8.928265083345227 8.15839477644031 7.806018777957493 -1.0354770883152167 -1.972677614945022 1.3406135546140976
Ni 0.017764221015475153 3.564286867203886 7.085615988200091 0.5054919941349294 0.6612828479867257 -0.6598774829987668
Ni 5.909134076823408 2.5416666506211936 7.6920210026759595 -0.21520981924006163 -1.4826034980270595 0.6523914590343668
Ni 3.341304739197187 3.6663531837231416 0.36616431509516567 0.28234955031135245 -1.234634739188422 -0.16792543233180113
Ni 8.207077600255321 0.00736937533033522 5.593224781372939 -0.2211421255640966 -0.8214510049706112 -1.3094710675730223
Ni 8.695535153916827 5.542959461457768 8.808387726399252 -0.44872280766468525 0.38774961041542255 -0.8419115868178081
Ni 0.8763882130455731 4.206330817521249 0.9052018151154263 0.9134833855185236 -1.1356665507526247 0.32995969599014785
Ni 7.197613638233137 1.2991450232918784 0.6079631644821811 -1.1914772299643415 0.28447919505984554 -0.15507017363568776
Ni 1.494428787604637 1.1526189938521254 12.94962364368684 1.0383744644676698 1.204346629727842 0.412089986933
Ni 8.900529264122289 4.45647756793367 11.192699017759177 -0.6625344610056396 -0.29500529140215 0.14024853524182299
Ni 8.134844612582885 3.2333766323897617 9.042167347027817 -1.0207644646953904 0.33357646680712877 -1.422026507774951
Ni 4.68387944836212 3.329805891794834 2.403292817067832 1.2447479163630242 0.19758696395197584 -3.2920381737176148
Ni 5.6158666486521645 0.10682972341956216 4.605424160934912 -0.41629862569770887 0.8495791306653949 0.23421309981544178
Ni 6.4446825943175154 7.619334803102651 5.5454905188298005 -2.9798273170704555 0.6283647571024661 1.2973657996690557
Ni 3.347344443248097 6.716057265789491 2.6152265004083786 -1.2601251701500427 -0.2907837971216347 0.23075522317382843
Ni 6.316444226910983 0.2728204548912945 8.867168560832093 0.4814706915196676 0.5110247510277006 1.500887383937912
Ni 0.9458082904902658 0.9657720874461421 3.7223707365041636 -0.6287936171097688 0.06062532699154076 0.8242553071886256
Ni 7.347501301400451 5.851396378873157 6.848464433573488 -0.07036106622206591 -1.3214166699706726 0.2390647714807883
Ni 6.393724347115884 7.10818856275067 8.95016626753852 0.5465046891018652 -0.8468684166024512 -0.32675558723055337
Ni 3.552862930859529 1.9116833806411522 3.674087750461206 -0.5570724373153825 -3.3242101304644684 -0.9199198851724867
Ni 3.690980194039256 5.273073647263458 12.250779320032397 -1.7767430989948045 1.2765200665682983 -0.5406880824200883
Ni 6.097132740746076 2.6295092300035 10.132275872147137 -1.0816358462594662 0.8681296399740727 -0.125566507749616
P 8.147869772791902 5.937375545687818 12.76030373597877 -0.7535522842461088 -0.7871314057531347 2.055289730620299
P 5.848231386672836 3.3005718514119793 0.3520651175921342 -0.9002897696463849 -0.19817137570053614 0.6478138669660134
P 4.094142144290314 3.1530813421005313 8.936200037163433 0.13227220190456576 1.2552932959790382 0.062340252800118436
P 0.6042756676523386 2.2420130547558097 8.977520976753906 1.1754579717179499 -0.8905812841093694 -0.2493458416918222
P 7.0374818878848995 4.82710002736781 9.85940953423282 0.06134009367037822 0.4742422920920285 0.6853833405793551
P 0.4416259693672184 6.07646665262149 6.671012310228401 -0.3801939095553517 -0.5678361035897898 0.19669144872089994
P 6.1156170443065365 0.2717520359266296 6.855248566263231 0.219077529725584 -0.013502405361809003 -2.3256186023216916
P 7.874800238632772 8.584170502323845 10.025897487851998 -0.20108083603784724 0.7496570629567605 -1.3762989238308492
Ni 8.780849485091776 8.722034940682835 0.5712511277348975 -1.1279473277314962 -0.30819607906081115 0.8729625425863416
Ni 1.5821683642821986 0.15236066446939947 1.6226025442236478 2.548465626392037 0.08949778705151683 -0.5845973822085286
Ni 4.153059691403998 1.174783303136628 9.512344729761905 -0.23016284100546813 -1.665757574383157 0.3907673141958238
Ni 5.6665533432685615 4.201995340039743 12.112180753305049 1.4835715183672837 -1.578984899572287 1.943683541705517
Ni 9.248041662164729 9.04798231790474 11.718203835152499 0.8752209996032152 2.493219047213906 0.6424117221138356
Ni 1.5292437018081777 7.4174214101572655 4.958628862996807 -1.1716774216295949 0.25772840932856256 -0.5544673955923677
Ni 8.165558146361157 1.6329486977210903 10.564120330116555 0.6372443189802831 -1.8137034782692376 1.6512928051080784
Ni 2.762972643705238 0.2255796689427034 5.36347443927632 -0.3232588869312046 0.08926998731142691 0.889890428689932
Ni 7.9204959840102 3.912061453949312 0.3589035607989244 0.7577143860435983 -0.5656331824012001 -1.9546922341111952
Ni 3.9879369918167917 4.405594231790034 7.217334910638752 -0.3290731796201365 0.5330012552987917 0.5234735183140147
Ni 1.5201794637906876 3.7323217341706787 12.303913733468807 -0.3660950082601243 -0.49879632728230866 0.11104491709467328
Ni 4.255303921685993 8.282147844249344 7.3901547214350245 0.8230728568447503 1.0122024340579923 0.4067235804147641
Ni 9.035603265570936 6.1587002665363615 1.1288675065263374 -0.999487300484169 0.7794816025173608 -0.5544367994647483
Ni 3.946277079688886 7.404040422422768 4.933754646189307 0.8033062157407843 -0.16246955142355243 -0.13977828047362378
Ni 2.007522715464508 0.23022696370311682 8.354587773719492 -1.8659629497945867 0.6091552740535509 -1.3348164883163463
Ni 1.8180820136754203 7.910027163655289 11.267377851475173 0.7634787993312012 -0.627982434062383 -0.1569969583447554
Ni 0.6661278554630075 5.245806022152993 3.1240654801740892 -0.8007284277112791 1.7328445978396412 0.5577054429136911
Ni 3.742509638058105 6.293671265280265 8.8967986934341 -0.4198395489714318 1.041510181883174 -0.1966737081090871
Ni 1.6452715667613969 3.2918540770377205 3.458700667347054 -0.6866519228791336 0.34917663523823095 1.6524747412313219
Ni 1.070919121225474 6.148549818177933 12.721175817611122 0.7237115467355923 -0.27960412635573134 0.5684575392238725
Ni 6.242272915612908 2.611006198678541 3.9019475247316566 1.7889111018159063 -0.06683119869193652 0.8915536753249678
Ni 6.963291848822325 4.9870445000710575 2.044468849268028 -1.0054733428642748 0.8917251679058255 1.3265966715097153
Ni 4.346938873379336 3.3198427210813946 5.231098172303747 0.8730368474677029 -0.06340134707478112 1.2599526491279205
Ni 8.162224604280345 4.444463707007596 4.60741117674825 0.21827971641463695 0.28661141091149994 0.5782606413572234
P 5.5716972160814 0.9652758016869201 2.6627697397536276 1.1503465213623028 -0.11170286239364634 -0.3167241711364803
P 2.892315949217208 8.86941308340729 3.2942680858816344 -0.20300607808501814 -0.9809409049405492 0.48501161479339056
P 0.8214306517351914 -0.3346745154784131 6.434547128170685 1.052391604682368 0.9036779693923276 -1.0135478923422931
P 3.7380898856363536 1.525910159727365 12.43311002602946 -0.49325020065309894 -0.18987005492369233 0.05226641350388418
P 3.050425100999559 8.337469660579231 9.57150854697875 0.9867117459860554 -0.44818878953808616 -0.045781062889856644
P 1.3018605491442254 8.478096444201816 13.446402879503452 0.19042592742716236 -2.247610818187645 -1.279606933023738
P 8.93336839917119 2.1732821590446783 12.727164956697886 -0.30445640951272085 0.36788938115638575 -0.54712201097089
P 7.914746560309024 7.343624654149169 2.6084433041068604 -1.176314406180974 -0.12118791906594611 -0.022168051456606986
