# total energy = -340861.8450954261 ev
CRYSTAL
PRIMVEC
9.32584267441097 0.00000000000000 0.00000000000000

0.00000000000000 9.32584267441097 0.00000000000000

0.00000000000000 0.00000000000000 13.64931342462698

PRIMCOORD
 96 1
Ni 3.6791849018415426 3.9403924349281927 4.269272946837481 -0.4038303180273691 1.1036480888644993 0.30318319922725206
Ni 7.281702049407483 3.9814074918925644 7.296636454187551 -0.454372806861611 1.3123355336050109 1.0751636082715612
Ni 2.5101718457710733 0.5124364142970206 7.748702024633081 1.0731506916065905 0.5945079564540212 -0.88717560086193
Ni 4.726775483679152 1.2390314843761767 12.116973456510419 0.17762543322838442 0.8039248231613897 -1.1931944697657644
Ni 3.6377222044191693 8.036274648111721 6.644035419231728 2.3281477965014483 0.3902723768372762 1.108826290631329
Ni 8.120888020516848 6.27661865939425 6.122208813743842 1.479055118554169 -1.1313031315776065 -0.911599024011617
Ni 5.761925391121473 9.259937143429852 2.3412938874843476 1.3136383115768344 -2.6642310888908307 -1.1931625880865644
Ni 7.43263149049693 4.162701877383102 2.7751106485920225 -0.9959528049683493 0.39431209412428864 -1.4926701382344423
Ni 7.404737894457722 4.322705363589952 11.275779631430058 0.3094358650051832 -0.0928916432244142 3.4648841832794846
Ni 5.104472120117772 9.085096241208834 4.832089429513976 -0.1659747363633335 -0.7268989433246384 -0.17476559518208612
Ni 4.711798180021857 3.9045718724452114 7.675350540083838 -0.9909450673411127 -1.8164216485313491 0.5256620413249012
Ni 5.044516276274219 7.201555755739495 1.067067604682104 -0.007747248045586658 1.9024813564355945 2.591722637308459
Ni 6.1954278713242585 3.2394247810696126 9.732806804160994 -0.5707633045389138 -0.16238341946764936 -2.0696164316556165
Ni 0.3480227369945702 7.856341835680938 4.251215317278565 -0.37748036727893053 -1.3063482056733242 0.0031886821406267663
Ni 4.814018743775035 1.4036885661776655 6.973420459240556 0.7581550731254427 -1.3943807210332244 -0.37469174879019984
Ni 3.8584742311139495 6.299569558709693 8.314970934341911 0.7328271358836154 -0.6335807540857669 0.9343774553587134
Ni 0.7904770937730957 5.087331220913471 2.35466994392 -2.789100570573422 -1.3217717393172463 0.30118930872567484
Ni 7.989067231478331 4.204696147849352 5.00361965751436 0.5986497465365367 -0.6095939042528663 0.11469048426706055
Ni 6.587905968719799 3.12400814964827 13.638544406965584 0.7534782364750636 1.3263480458340189 -1.0230275496979544
Ni 6.120392139551786 6.4928103489231415 12.863017571905443 -0.8038494898387639 -0.30495108976095225 -2.4100921966857394
Ni 2.2439470092176586 7.198869912991487 11.81436850690152 0.6424682863833838 -1.529545671104553 0.8911279006414587
Ni 8.08273599731511 8.004193748621626 13.245894714061144 -0.2984045468916861 -1.123404188445504 -1.2860873985417591
Ni 0.4104592550428805 4.454656714428719 6.8565005019477585 0.5518258442044626 0.5243870312672194 0.5528056916192287
Ni 2.0110434092567173 4.014271762184162 0.5204920773724695 0.29921650127002014 -1.4313606406916832 -0.5236547810868852
P 0.5284087853890805 9.085310735594959 8.204916662573709 -1.3740522938885174 -0.09413837114732175 -0.571977379451673
P 1.6377672223408597 2.30679386435247 3.233154084320444 1.1352736861895802 0.22152984792081848 1.5504112016996523
P 2.7795301655304976 8.262612854688642 1.0319781882805248 -0.09620785208184075 0.6536227603383067 -0.05193679807860733
P 8.18379083070891 9.258025345640473 2.381354910722604 0.3011029196594557 -1.68331486654063 2.339302527566687
P 5.323955832181548 1.8202086865050262 3.0853861039656305 0.07213975538904349 0.4498085845296963 1.3180258991215685
P 4.481934804838175 8.57782634386458 8.624305412169429 -0.43217544482896536 0.7874725911426373 -0.15602662401168613
P 3.1023069132780803 7.492391491640108 4.781736406078839 -0.9434678476957559 -0.10284258378953899 -1.371054130492142
P 6.026695396186383 5.41553560921432 8.330012586315043 0.5274397020506142 -0.01606553810329491 -2.5757054359445966
Ni 8.761107133887498 4.132318281296262 0.558728033160083 -0.05105722368713143 -1.1814820664248427 0.17140002114396288
Ni 8.217876786417136 0.8207814201954982 0.5795377189514197 -0.9065069542006904 1.4496280715423036 -1.700546142817252
Ni 8.598856119547767 8.784813426475818 6.303430457659955 -0.5949681839198915 0.6203110335600542 0.7275951980607146
Ni 6.376414503999921 8.783228033187063 7.5973855610643195 -1.2293848036433923 -1.823307834128221 0.40693981019062825
Ni 5.604589095976881 5.066189535115783 1.0467484582259936 -1.430496492919175 -2.489543912355164 0.3041149670129021
Ni 6.595954171120948 7.101536090904823 3.030147271448267 0.6885974766412786 0.274660666307527 1.590671848991912
Ni 5.256595269095223 5.748458874009932 6.177215432773618 3.3981460585219865 1.178456906445274 -0.3386942476496683
Ni 2.1115107145493908 3.637116024632293 9.21766776059879 -0.35202001822429696 0.5151122908335128 -0.5717210404664927
Ni 4.062206594561804 1.765876325915115 9.126736129645833 0.2601300767915197 -0.32013113993550024 0.7554957811257247
Ni 0.7249994183632389 2.031103297280902 7.512677997646156 -1.1632082078163193 0.2976154753314874 -1.8969563128523073
Ni 5.945206181144392 8.414875891309219 11.15790470782686 1.8663239326784309 0.19344517386946036 1.1080035376197177
Ni 7.754606215757261 8.848341068140506 9.688692769609249 0.8203104636082648 1.9660745078062076 0.29127102117069836
Ni 2.0758486913952847 0.1604781716091887 11.6773019312458 -0.8551710229308757 1.126587471269492 0.03776821988770914
Ni 2.609072409460742 0.5366052686919424 5.042356411064363 0.06429660519554088 -0.03551284819462916 0.17857417029489892
Ni 1.0582686719295151 2.3935894839903527 11.979061026905935 -1.470134161915455 0.7103040150804348 0.14395400911786824
Ni 9.212683097582088 7.4247045240531575 1.723922156573228 0.5615649258690973 3.2695991279878074 3.1746120356869456
Ni 7.9371875675645525 6.661095183603016 10.532779471149443 0.37051370615311024 2.1570647923772723 3.0510389042182746
Ni 7.527456660850212 6.192471579132876 1.1881655395829134 -0.22806507793617492 -1.1282733436123473 0.45414269312867594
Ni 0.92085704008742 8.812231404528399 13.566830540425196 1.0714833312064966 -0.45416171929206944 0.122027384248106
Ni 0.18831861034400882 0.7607062055631447 4.542341086892591 0.24699353940956173 1.5916776645486073 0.1890231335423648
Ni 1.1358503588068705 0.7075731483669622 2.0291066343213586 0.36341360477321927 -2.3264567819522712 -0.6333843218042446
Ni 4.228281204480297 3.673570744430776 10.685010799904244 -0.5653346773241749 1.2598809153497204 1.313811089709273
Ni 3.1945581509978545 5.294514146225086 6.25990301862505 -3.2215056149146903 -0.4645255790248968 0.520435245708323
Ni 7.12894474311453 0.7812230598882057 3.973943087255392 0.21602023095649897 1.1904552164577304 2.0134920778582224
P 0.17730105957145112 4.082014684828363 10.47672182962765 2.6067242529236134 -0.875214314734996 1.80768169755519
P 8.117185660895462 5.711668423867948 12.91625041562039 0.5515345382162888 -0.09762144459991574 -2.0773803918717513
P 3.9248742323841466 5.8528337074672425 11.440418061545799 -0.006540372221679059 0.11755854984347494 0.577665945196018
P 5.865619438048905 5.094969086228119 4.138090045451617 0.37909836249832773 -1.2148349308536757 -0.07224722750118526
P 6.1497871962938735 8.81787353946779 13.533567124058546 0.5773982933569282 1.0921693988009384 0.5602585483528479
P 6.826843389020882 1.5786600301989346 10.84515790409137 0.6204889538988153 -1.4829161441714718 0.35012922895948734
P 0.6078491127514287 7.957256781431612 10.841868679309346 -1.960659250327907 0.8951917862981873 -0.673656281950414
P 0.5312774146574389 2.253841728508063 0.5330726394108818 0.17748685076799112 0.09211799828318329 -0.5279680637502585
Ni 8.170650718097995 7.137524518559554 8.27662959652981 0.4877051024651536 -0.3645811427187592 -0.8699024156037792
Ni 6.94872282955462 1.3776041836562127 8.207919583979468 -0.11056874878920313 2.0678647390718323 -0.2969909543736111
Ni 5.654519658729779 5.952517641958414 10.14621768847382 -0.4587807061213195 0.9215880169035289 3.4679944467736923
Ni 8.43878735244079 2.5914185888983146 9.299741705989046 1.189198461232494 -0.4217689047836607 0.9174287433195167
Ni 5.7083577496473135 3.2443954553220022 5.375509091594701 0.48254875507519474 -0.8370210914947261 -0.30417770193003746
Ni 1.178133730402246 1.3450756437081164 9.624799554903861 -0.21198359899328006 -0.6182580076857676 1.2083143561263383
Ni 1.5418322766854502 5.273661561556524 4.6073534027429845 -1.0941728023842123 1.2015652103279628 -0.029820168685226064
Ni 4.211410754719372 8.373161396129222 12.990542877715722 -2.2940490550455266 0.10618218968573327 -1.2046011689408094
Ni 8.125560267797237 4.918524139032595 9.31071542530009 -0.3458066903247335 0.6660365606216271 -4.165515194046529
Ni 4.354431881050796 6.273335962702241 3.246052657600895 -0.2478471456591086 0.23888556559044666 0.3369898633640519
Ni 1.4057215999244213 7.653243629548585 6.524699136050011 -1.1295817780111255 -0.899322006416477 -0.19439339671534264
Ni 2.1883929632111188 7.805553295383537 8.88459808007004 -1.0070237180705301 -0.4578389110333405 1.3445730534824778
Ni 2.6021153306759714 1.5522865465483562 0.05625628197502943 1.0145187408959948 -0.19062878746658782 0.37070679600052286
Ni 2.1202490293232916 7.150394181727092 2.847246975814649 0.04081472002351681 1.4192381463965364 -0.05691805334328262
Ni 5.323228416437296 1.5942621653288558 0.7736047788435955 -1.033370326384859 -1.0443741336945305 0.3063312579379305
Ni 3.195817139785983 5.985950788665387 0.2315905212841372 0.7437908339839706 1.0753908937910188 -1.3831318875922824
Ni 3.55365905674367 0.5119356165346316 2.525600520223519 -1.3063926857580146 0.13632657447959745 0.2973097711656106
Ni 8.776457471259793 2.139656108346224 2.6758389163559277 -0.4507714626635979 1.62729387109032 -0.31943179987563053
Ni 8.804696123485376 0.5615015388311162 11.821793742998619 -0.47783386609802864 -0.12053845840740529 -1.0832440712868505
Ni 3.855219511950565 8.679011739058629 10.6196441020246 -0.3498975725646555 -0.21872631703375234 -1.3323675125552215
Ni 4.03226131309009 3.223402983010315 2.196338581340642 -0.70889505054805 0.1957069733204436 -2.0192701179925803
Ni 2.0285293646473943 4.574381885258324 11.705515403695621 0.16105775867769034 0.4302437750238913 0.016370470938223417
Ni 0.7754568912385761 6.140507982633221 0.2988438371773993 0.6769375238048471 -0.4338008962475303 -3.3153243979390643
Ni 1.5622278950531356 2.9766318546942077 5.295373988938164 -0.29055162650617056 -0.511365679306887 0.08299418160504417
P 7.815158913544815 2.34890004493322 6.271654513231873 1.0597477879371233 -2.9414268629153857 -1.3780994673746976
P 4.268755362557917 3.3372808503572777 13.193644814185225 0.21551963717099656 -0.446950803365927 0.5887671973155022
P 2.824965672017633 2.082973635351806 10.876619567614563 0.763228373883292 -0.3029065485270977 -0.009414351335364432
P 3.546300966715273 2.676778028733443 6.02705910405851 -0.5311433761544466 0.6780824360425678 0.05986556600738077
P 6.679896082839071 7.660368573505106 5.905048169140235 -1.5016486875839687 1.3927035904411176 -1.9147105515119345
P 1.5419908160143256 5.736661682773023 8.248976607236777 0.6629409524154389 -0.15621791408688582 -0.7607801694531157
P 2.766567243934209 5.246327516089818 2.1836722215477797 2.599425919489988 -1.801685884983071 0.6640146450955919
P 8.5679596021028 5.865805954906405 3.6075820128313674 0.29810655603529307 1.1871523773367425 0.8107572727021908
