# total energy = -340875.3792099905 ev
CRYSTAL
PRIMVEC
9.23240381927180 0.00000000000000 0.00000000000000
0.00000000000000 9.23240381927180 0.00000000000000
0.00000000000000 0.00000000000000 13.51255621518341
PRIMCOORD
 96 1
Ni 7.022664985542161 6.340870419481485 10.537875087967471 0.7871458039308379 0.40486647260136716 -0.5529206199305381
Ni 7.614951395417723 1.7869225499198054 10.991829619909211 0.00039620699715415636 0.7313235547548954 0.19816160550852321
Ni 4.355968199501486 2.6927137003397617 9.137028589751736 -0.7418409093464514 -0.7552378994786477 -2.1153026208388215
Ni 7.850663900375138 4.130143599162356 11.354668634140118 0.6762039880729322 -0.18415115016204414 -0.5154524477817509
Ni 5.487685506703898 3.1727248459175246 2.547656939377034 1.0127500790313462 1.040336216179731 -0.8333361864439713
Ni 2.213607330347985 4.0918568200288155 3.141560866422646 -1.0221610879326009 0.24481067282563 0.46210154296443634
Ni 7.95124170888268 3.9049837319068064 1.5465661457812554 -0.21375766017456735 -1.367891159383128 -1.5143684491434823
Ni 5.177956819370408 2.2867279695420124 11.265444835996316 1.0537902848021077 0.12032582817596695 0.20036349825584848
Ni 5.794681402471551 5.713020789634282 12.404107680681767 -0.24719408545614202 0.5292716130530304 0.44356003251682324
Ni 7.417156373436303 1.6749611873559198 3.315008192737085 -0.9554026514601288 1.188898670603888 -0.6735315834470916
Ni 0.7809764350926962 4.76824119738145 5.7228920759254756 -0.2181107949369405 -0.19123402515075455 0.20176809191285897
Ni 6.069400814069718 0.39654744425127747 12.892492616631877 -0.37784160727309124 0.7016977614686625 -0.10165524834965718
Ni 1.2881880891544804 8.004023362199884 9.109003627595994 0.30055193225199206 0.174139531562313 1.1929458440900682
Ni 0.3077631085349534 7.19311362705733 5.12228542362041 0.986076940615534 0.3313529767932487 0.26291895239056656
Ni 5.640250981789921 5.777739941244146 5.663639430687677 -0.3072612259513676 0.5387674683586076 -0.5170434464179546
Ni 7.5827672352876245 7.73850865732854 -0.15055004130621852 1.1909591526773424 -0.7010547285680249 -0.7096077603443587
Ni 2.2225350649566495 1.7678945654022686 2.983370087616809 -1.2184594149801402 -0.5050844742838656 -0.21618735266198252
Ni 9.908677527145224 5.7462851410252 2.2798922976658433 -0.8417547495249696 0.8735875777648502 -0.23945300805814243
Ni 0.3136266082763836 0.632596931952452 10.380169933608805 0.9440394039285096 -0.13508216054953512 -0.15820923348530172
Ni 4.4131260122856055 6.745462057284499 10.230558827783145 0.30920446572066745 -0.5617227916032003 -0.6290545840806393
Ni 8.555604103109983 1.9134064838791713 13.432251264298548 -0.14070490605295122 1.3213577917082793 -0.6070397703724449
Ni 7.4201384399084835 4.534144363113296 3.641188100648838 -0.7882166683975135 1.168936111439032 1.4809865312489268
Ni 6.2553414293939245 7.685967046513741 8.61821365041987 -0.226403631073352 -0.09623227756187297 -0.6464630093650738
Ni 1.7702580608105605 1.6063090316681938 0.12742194619953184 1.0756662589395927 -0.1582583415556823 -0.38117324274948544
P 7.958803047708426 5.717544667564215 5.5301084028019485 -0.3156332520651467 -0.4708926588935052 0.3617297893128931
P 2.257821312810131 5.8677928092616405 8.941056044307803 0.23405960495671305 0.8343615423846921 1.6213903611216913
P 3.9305574908168386 1.9928974817908605 13.011037606444406 0.054748813606105715 -0.9118903299997908 -0.12935708514029978
P 6.113540937300355 1.4973943624040595 9.310042916321452 0.8167224891466902 -1.2530075852686549 0.3695338587383442
P 2.2538883087322708 5.986115298139248 4.54355679892874 -2.1300867211265313 0.633792870096573 0.5585677909139865
P 2.5318205969010847 0.8930485865038456 9.687084137531171 -0.16926934795420523 -2.6843494569072606 -1.1813488832810881
P 4.87107171245002 7.658676060471122 7.008908703673587 1.428775139352694 -0.43389242752007207 -1.075787100788173
P 5.581209758602319 7.299397061198952 3.3649370332372497 -0.04415098348560139 -0.3822963006103352 0.6164032138652158
Ni 8.214485242385118 5.44043406334594 13.109017416483615 0.8468313927169286 0.1933919520340218 1.034340403607612
Ni 8.911088584363371 8.862184540700397 7.234893024600856 0.4962591626827518 0.013783426937337553 -0.06155760899782302
Ni 2.783348209805389 2.277947953396366 11.146183411638148 -1.0591309802887308 1.215645856790745 0.7928953048201054
Ni 3.1254826349635048 5.693641973767075 1.3157255803822614 -0.8193640405345953 0.2563338429738811 -0.523250089449299
Ni 3.7651774390639834 4.067169371896893 12.654792375106473 0.39080099564723664 -0.0778468330761498 -0.6919651075619307
Ni 3.45173732534716 3.2919428779771813 1.2366084948300873 -0.37493266115641233 -0.40664901842308676 1.0209981779727513
Ni 2.3922820437724823 8.460741152640459 11.350331250769747 0.006999571246284719 0.42551063121428007 -1.3864612090758315
Ni 8.095525717635743 1.6339508490604815 8.387675907870063 -0.0966703935405561 -0.37500208094176707 -0.31109268388231587
Ni 1.250464486661198 5.033008077533763 11.122671248527613 1.1530196973190918 -0.7040431217723875 0.9645398378747065
Ni 3.546923409954537 7.755496280575638 5.066546631321659 0.6816734958279356 -0.13831480855421988 0.07972630948704978
Ni 2.9560495578815864 8.300106556512064 7.3466826644514835 -1.5001667037218034 1.5544776584595423 0.5877241007629684
Ni 4.520037249895055 -0.2973655752192572 9.557971738170476 -1.510411007157631 2.0880265587316873 -0.34172557827682437
Ni 3.246556380214828 4.033674210407508 5.390564310230983 0.5467581998735681 -0.4772412268193522 0.5853779691282951
Ni 1.6639930914768157 1.3809737487378109 7.726290493956144 -0.20075250616415102 0.2534151266651894 0.8669713579999133
Ni 8.195272609788809 3.028477766780216 5.213387092725332 0.9439715268050517 -1.4933247410993056 0.5116287031602866
Ni 2.077558625908188 3.9187677109871957 8.08604865499273 0.7119124972181352 -0.3269113960821273 -1.0263118768761808
Ni 7.118109577459819 7.738471727712786 6.24263856481475 -0.7272866656813604 0.5134405595580448 -0.517779810363347
Ni 0.34213257867732805 3.2310644064057903 9.614899664096521 0.0150617794291289 -0.6674684079721473 0.017609228441330962
Ni 9.442441128243912 7.024862297679557 11.40652981678464 -0.6401267827344008 1.5080486775730415 0.36049463135421145
Ni 5.390985307850584 7.476890026919303 0.6115581298570795 0.6124848526474161 -1.1966173794043844 -0.7007893907217801
Ni 1.2998393829250439 2.4063152977592144 5.183389165847904 0.8090284629365422 -0.1837397736562384 0.66362692273887
Ni 4.027386943325294 5.584090268631176 3.685415008476498 2.5964256992110832 0.41777701001544826 -1.3217635117871303
Ni 3.953241507294077 7.894813256009713 2.2515968260747004 -0.7404751393471763 -0.3998862457779565 1.375820955753166
Ni 3.748956105343793 1.2789095231961474 5.957591786170821 -1.4609769208962193 0.3077548777583345 -0.7243057286761655
P 4.643502187766486 8.08950619026775 11.839620962305842 1.4080471627767233 0.1063462260674233 -0.7253634805167185
P 5.158319496192921 5.050558877421117 0.9965133677230008 0.5414789537524998 -0.06245415267016341 -0.05524683628844679
P 0.18985700107497772 3.02614196858374 7.340115655529929 -0.06921538265339693 0.23232745275695474 -1.2712757874502234
P 8.566609128604842 0.09249299237847566 12.302115467890825 -0.716826646690301 -0.27082380905994 -1.4253532581553388
P 8.83195765020529 7.797614507343713 1.9615230034861808 0.20425383444919015 -0.13483302065320651 -0.13425066578717526
P 7.241362170040661 0.5527486400083375 5.234467440638429 -0.352168113766387 0.21467194445872062 0.5859392409484038
P 8.335457431193117 7.64768949978414 9.076478791760561 0.7080501860492515 0.3565235625216054 0.5861367016711905
P -0.015820647389253255 3.275776938680623 3.160045985588591 1.2998494853228582 -0.5852363013441082 0.6143247340696323
Ni 1.7597238879165722 8.253399824986484 3.5480322216675675 -0.21493316853990727 -0.07714337925122197 -0.4719378123285679
Ni 3.552379760682273 5.89873982726396 7.152182687435763 -1.0535753405778243 -0.24191895310013176 -0.7828410059078968
Ni 3.6040719903347176 4.559256501826397 10.231194017174124 -0.8503401772011355 0.24168215449897734 0.5325464271495602
Ni 4.579770903378055 1.1002717393874049 1.2968471608085308 0.134862074118929 -1.0137772347442797 0.9963251007061035
Ni 6.778754105887234 3.9731281053779073 6.661677068300948 0.25857404515830956 -0.002643608270434157 2.36902730832463
Ni 5.349642603013355 5.197363332449429 8.404053269216815 -0.017433622095415137 -0.37121844552961875 0.2539704849480271
Ni 0.989085898754365 8.548513616885108 13.466140649436113 -0.4620557773281655 -1.3289003799422276 0.38004709956484223
Ni 5.661725553351198 3.0649919243575363 5.028562675037308 -1.056569647319458 -1.0702880253468148 -1.3406035273117687
Ni -0.11096426293851243 5.606654263857211 9.275802699834218 1.5605899420048672 -0.35076763387443466 1.488200532498863
Ni 6.969735613761938 9.048919142763328 1.73970065025445 -0.2524244806171459 -1.165200812766316 1.2512363523008452
Ni 1.0032114767804838 6.560546238797481 7.325575542566964 -0.12584727221482844 -0.2877110717335819 -0.7346004257339542
Ni 6.630232423726335 8.90656470643344 10.672460456382993 0.6241736018392541 -0.8468229080764965 0.5958207617281739
Ni 7.626805802074937 7.148761158536104 3.786880051002544 0.2773616101784578 0.9050735641882736 0.953719350220435
Ni 9.21085550784707 0.6294846885847364 4.206607291822564 0.6319457895855052 -1.3593427555924846 1.7690891819939727
Ni 3.378108903936507 8.352629702518986 13.445331734198813 -0.75241919908293 1.1711557447981702 1.8922925888280508
Ni 7.614046619831736 5.834556155082536 7.78139502010431 -0.8218356420035393 0.8717330410546149 -1.922855292106256
Ni 5.778515463174992 0.9292414564241015 7.085876485588846 1.059927508048097 -0.07148746651702527 0.20579855322849075
Ni 1.0136625580390244 3.849192314905606 0.5891880151137551 0.0150815769234708 0.44629774316296045 -0.2729279998871364
Ni 7.1447081332070415 3.762795478847814 9.06185835688333 0.3654226647834481 -0.5113739068370032 0.04863653006078076
Ni 6.224449805815236 3.488648476293842 13.153487136534864 0.3483932201049871 -0.7089223042415598 0.8745406857067389
Ni 9.392309174857097 0.7547351733779002 1.895000763387099 0.24314562641838122 -0.20217535465360664 -0.34673794388975127
Ni 7.078345613696097 6.1338799231771794 1.8693134459086211 -0.7603891046622839 0.12876161764814598 -1.7142107847885384
Ni 3.3817187738765155 6.206834379100311 12.355017142459232 -1.6392032209333962 1.4254920977260481 -0.2857380071676111
Ni 5.140076266010169 0.26388795529735526 4.088913529653177 1.2073445360139012 -0.5353774688404521 0.0006201500825021578
P 6.738177690576912 1.794677769228263 1.1317006888753225 0.024526010165822273 1.4317478488277728 0.4232418897847614
P 2.5508762786304375 0.07463290695917686 1.7621593960755855 -2.1612086393423167 0.6149371708426506 -1.1465436026764448
P 1.4622281358017801 0.19831572956355956 5.975522961100447 0.2940840651394613 -0.7891186113864925 -1.6671773375488192
P 5.763235834656544 4.460663660165662 10.573224116167735 -0.5847683605687541 0.1709953295063765 0.35745044521124886
P 4.098993468273385 2.135602749470417 3.76938187581764 -0.3496332631596753 0.6555261480086065 0.620842223473176
P 1.1375983485113257 5.991747064541818 13.537960442915187 0.5234470359514534 0.5086320824258079 -0.8193229028840148
P 4.556339062181787 3.2085558056033863 6.971290350585205 0.09625284638716325 0.5616646846717553 0.24709175555032284
P 0.7804991198090686 2.993837787202439 11.738965601605216 -1.1797391155918069 -0.4021408461400881 1.6421977847853462
