# total energy = -340895.92879823403 ev
CRYSTAL
PRIMVEC
9.01341154931881 0.00000000000000 0.00000000000000
0.00000000000000 9.01341154931881 0.00000000000000
0.00000000000000 0.00000000000000 13.19203889203611
PRIMCOORD
 96 1
Ni 6.6096156705822695 2.0480723961495855 11.457958483743363 -1.0694827558367 -0.6547118796374273 0.4157023868746066
Ni 4.48304547490329 0.5197574647011826 5.912763600831874 0.5818717557472495 -2.039481559943449 1.570826789241527
Ni 2.7774015897103284 1.6273984611816308 4.8446175702462355 -1.6023130327752662 0.3217794741722007 -0.3690101250243903
Ni 3.0752407546717846 4.2800454242659 4.8491954818756975 1.3046217099005208 0.4015124685274698 -0.16424566948736874
Ni 5.274017388751268 4.6792403999643 2.4923587648558745 -0.7688295221201533 -0.6099728848588397 -0.12971626825193144
Ni 7.255660943181753 6.062862137518418 2.6093321134553262 0.37176969004739846 -0.3209973445905375 -0.04534680356591545
Ni 5.157618194455412 4.5527101313004295 11.319046491895026 -0.7733299810936681 0.0525075829804128 0.687492416502558
Ni 5.620763323749066 7.836223782254878 12.340123587020512 -0.6962146268669042 0.4237124016632767 0.46481611368212206
Ni 1.8865250243542766 6.624415692034477 0.38235161389100786 0.7345875702181478 -0.8513791599886111 -0.554735818762406
Ni 2.8747013653355227 1.6611176330773096 0.4227695531090251 0.30919315286675786 -0.5267141367384994 -0.34721694040869877
Ni 0.6030567084617531 8.939384211948548 4.57010511388302 -0.2579994036017621 0.17174532029852357 -0.029162994717201386
Ni 8.542307387919617 2.1225321873899494 1.475965038272754 0.824206199118245 1.2701946385709029 -0.23903057580874318
Ni 6.7357854027917625 0.6901983694848545 4.8081547159327425 -0.018243776701536322 0.5777014264196437 -0.4611240095425155
Ni 0.6675395546683489 7.504548271050071 2.2209856796691523 0.9085993179533448 -0.062011922926422235 1.7667237670855898
Ni 7.465727508324948 3.7347610772536366 3.818329822013854 -0.07915038237892175 0.1440609670093777 -0.3248108047993567
Ni 7.812536537202261 3.8255441564659534 12.68130914855067 0.3834049602934816 -0.029573085671426486 -0.9061570270604394
Ni 8.017032814125319 8.763802958666586 6.769455000924963 -1.202108998646575 0.6579676675705637 0.20470532016431198
Ni 7.111347213905701 0.456582464482842 0.4763029071961688 -0.7262240287448009 -0.08919208288563994 -0.8268122692825245
Ni 1.930357243795251 6.388606824048711 9.158335296668746 -0.901175771795764 0.6963647792915232 0.15988790673930528
Ni 0.2062692149374603 4.900726957299908 1.454461742792529 -0.5618400339073549 -0.71272573714805 -0.8228437715530798
Ni 6.558996352387634 1.9249942640363822 7.038638728492477 -0.6334578553546575 0.06261098996300184 0.17230299257420648
Ni 3.4531190125051006 4.10214772426456 0.4078163036637081 0.0783037181079103 1.4149217784093697 0.10293360084144854
Ni 5.808188199557337 5.603466587350294 4.7803861982165685 1.1382479383265558 -0.5464326982133493 0.2120923566570025
Ni 5.326205040522447 3.122768472770131 9.101266882646428 0.20358200519314615 -1.9630300645529288 0.5197050524105179
P 0.37765111986705796 5.512665481315258 12.293079889112168 -0.26462590777934425 0.3060756902836987 0.7637477367218718
P 4.025001936439081 6.141161641997905 12.613580572913538 0.012732874185636137 -0.4886121876604552 0.11042682389470013
P 2.5643065183503615 8.649152366174462 1.3790564447005595 -0.5080448424637702 -0.4330318792919897 0.1142045457695775
P 6.235559099165358 7.803117522331642 5.715608747461084 0.017688932639330825 -0.34320987613183473 0.8089564720480261
P 4.811458131195979 1.0167939220474798 12.472571160241857 0.37744000095929836 0.8404512002221977 0.6989299689155383
P 3.8755235224540683 6.11903371711047 8.021881128095563 -0.3417703154718308 0.9582766305738141 1.1558988186390997
P 4.597515799168224 1.0419593665630462 3.6870296560585665 0.42588061295918916 0.22593800429084313 -0.2190713590779969
P 0.2981375088774538 5.662333176938819 3.5444636272451104 -0.09176987091514517 -0.22721070035567967 0.3745187135474453
Ni 1.6669493102268695 1.2851682452749145 2.627273308766299 -0.867012495650494 -0.03691667052069126 -0.12536467615145505
Ni 1.880657293559279 6.504528307542516 4.8576518644131275 0.07414984384053681 -0.08087662104140911 -0.43527568102084396
Ni 6.05213617800068 5.594750618565711 9.183176258375372 -1.2097420897118003 1.1919513413872826 -0.5792906252836346
Ni 8.547264764167311 2.2919572807134116 10.1454561671798 0.8711180331784352 -0.08815232876721593 -0.18792218716870215
Ni 2.1134106150941925 5.180232843556257 7.061619322094514 -0.06963395824805428 -0.05077594500128675 -0.31911452574552784
Ni 0.6110101426453262 9.052709832970832 9.178506409950044 0.025318938380762848 -0.1450870942810469 -0.02904703796462739
Ni 1.4754503724841297 1.0327025930968976 11.367342152641196 0.29159909393407846 1.064582233211289 -0.4568495505368777
Ni 4.014393151269017 6.789424213791811 1.6820638997355208 0.6748626435536893 0.535809157061232 -0.7467558301495655
Ni 5.465083682748754 7.842479089738333 8.104977570100546 -0.25093941143118714 0.3154136798551729 -0.8079714824269376
Ni 4.972879315232255 2.6903320359781024 5.235972680744192 0.8118623328409115 1.306245361546873 -0.8964485415234239
Ni 0.7900913035581606 7.468107048923841 6.862182272967512 0.42129145092660997 -1.5359528601824772 0.6818714707713547
Ni 5.01005963708996 4.526390970130854 7.289036704104637 0.5828084086289059 -0.31189846761306284 -2.005435011881701
Ni 8.0199261191717 7.399496961655755 9.139286353101697 0.06994557595120213 -0.7585669638518807 -0.3612502785733133
Ni 4.663232581389928 0.5751656083510907 10.348626571291883 -0.40768877254151076 -1.0748949279912068 -0.29328265228408845
Ni 8.099532568298306 7.149041300210894 4.632700551750948 -0.3567541904751727 -0.18141292529527467 0.9841193026685311
Ni 7.088561309989027 6.20814030180993 6.969921381629214 0.10672109290833878 0.04041568481288523 -0.33039601219661807
Ni 2.322089114888032 5.2080482310114995 2.53730414059974 0.18972170227128615 0.007698911306154483 0.6639578237157275
Ni 2.5053317678255214 5.056190276427593 11.411508769643607 -0.8233993869462335 0.31980640960622986 0.2660454138346902
Ni 0.8563110341337212 3.3446155665601176 3.881110936155787 0.4393300535958757 0.1446003844526155 -1.013295924232487
Ni 3.653604321373206 2.9072758339885523 2.8488869552020764 0.27595547385955055 -0.18043050677734734 -0.5532800601524859
Ni 1.1627571056023103 3.1697103191301133 8.277621352620466 -1.5643000438666026 0.6666405127542131 -1.0827046538436127
Ni 3.3980380556875405 2.7258448767343104 7.10696038659706 0.021042679602912145 -0.24886967338635207 -0.02395651081559745
Ni 4.166945138527601 6.879639448088483 5.973395016364579 -0.49421359300763273 0.8033566093627454 0.043951465880285596
Ni 0.9968382292976714 7.437731852642515 11.331868970894972 -0.24328086644466487 -0.5074982259316808 -0.2219646214653919
P -0.030741140782518543 5.730582727752527 8.184630888966222 1.1597809273023252 -0.3415414872904763 -0.8839221269216391
P 8.505857152382026 1.5660982505260546 7.971104976543273 -0.15684449192729116 0.2320816552947358 0.3509350126902343
P 1.782167747634638 3.1451037061188325 10.338508115699772 0.40582318008768176 -0.5075622464003968 1.1351551583338448
P 3.967460318320393 6.104035400608356 3.7966426529418973 -1.0117776878157478 -0.04368818491656993 -0.102180781835824
P 6.935684839921503 3.922330167643659 10.280014681341527 1.091646950638565 0.003908333915470689 0.7991032334030302
P 6.1079562345497145 7.8018015642731635 10.168304263634854 0.6198880870900226 -0.7243972599487073 0.49986102110139724
P 2.3524282575239193 8.564345178693456 5.738101715508575 1.2815476016898768 -0.9649334737686993 0.13013381540532426
P 7.123046621850259 3.951173083993879 1.5364765754343788 -0.9323681382381684 -0.17896883463015628 0.4345981953378451
Ni 5.367531531605495 2.7922737184534103 0.5644684917497028 0.5089922939787039 -0.06866979456257206 -0.717788496382938
Ni 1.3764380487006411 0.9691940966582577 6.939988743845638 -0.32989233308732213 1.324098844788526 0.11605702559728401
Ni 6.8893559055339635 0.6371445288820331 9.258291324621569 -0.10923897423418606 0.5916157225078907 -0.6204419027109638
Ni 2.6327183105685386 1.5419062544373077 9.094723145999472 1.414010836559326 -0.6587526253657041 0.7635448766824463
Ni 6.312146055486551 1.8488038978150048 2.5280960395549323 0.19897715943128313 0.3618208063648027 0.922683821070869
Ni 4.036737398029078 6.762915770983688 10.352742094918606 0.6074604028496313 0.6421183592431328 -0.0826733079305157
Ni 8.282297510433745 7.108237586986693 0.4384312566871944 -0.6492359441245206 -0.3920829476834538 -1.2627615793316254
Ni 7.523215045975479 4.092881937387052 8.083817685593116 1.117280077825637 -1.2459653337098928 -0.37593616272026226
Ni 3.1194064703330584 8.398741771786398 12.321377494075142 0.9564061530239786 -0.1294709850103448 0.18357316617138705
Ni 9.154381113105359 4.64634144850233 10.270516348450945 -0.4080633822721101 0.9132679270736077 -0.1005859265448784
Ni 8.577937403023498 2.2846744443349816 5.739090486734706 0.12439511314933416 0.32242173574188987 -0.13822687682610388
Ni 3.7773674727497264 2.6706287187463587 11.32280598577305 -0.7876163158093532 -0.21701319099738756 0.22187617551664365
Ni 1.2432198288080638 3.2284507209596076 12.654357245903661 -0.7347714040941797 0.392979234245478 -0.42583381888165367
Ni 3.044622196283754 8.408521323111394 7.910434803341722 0.42530108630663527 -0.48015068715666337 0.013476437219880016
Ni 5.399348873704332 7.893287689571517 3.625001161765147 -0.19780910726511094 -0.005501389434203429 -0.35978886353643846
Ni 2.860730577728385 8.375901787401567 3.555161645187634 1.1107885565640225 -0.3670072356617486 -0.09190716782395784
Ni 3.3303022693213213 4.2823077905171205 9.25850223844738 0.03773890931167049 0.3007529925192046 -0.4150231014193949
Ni 7.004772637991639 6.093219306977024 11.23072587666611 2.1734617456780567 -0.07621392545841713 0.6208334817224276
Ni 0.7734309140013649 8.99396943114134 0.18849296505436552 -0.24053749937157282 -0.5537616277745947 0.8735330703778311
Ni 4.7457503623856345 0.31650143318118434 1.3990022226978724 -0.17879297117392431 -0.83688867968192 0.2633172162702497
Ni 6.2577230776982296 5.591001039440183 0.1894519920230103 -1.4023614252458556 0.15768961353640584 1.1501112654230452
Ni 7.885671356972788 8.536592885117729 11.310088963686011 0.2545178728110649 1.010194659599344 0.578367599248733
Ni -0.03758412268660817 4.969048615404492 5.760923673070686 -0.3832954312988109 -0.35050409580040276 0.06154655325422948
Ni 7.640137018130182 8.595910145274228 2.721108329064923 0.11478741485624101 0.14579517609166504 -0.1632218562085447
P 8.456481684954994 1.4233528548265453 3.5350968901603768 -0.04414327017611752 1.1487966603766797 0.5029504586599983
P 1.7818432648256979 3.2340750896479005 1.6392691239420183 0.33112594838410714 0.009364729044351613 -0.07488029424865814
P 4.848521278706011 1.1337068807908235 8.17820612934921 -0.7035834085271496 0.11555540337051712 -0.5343981356463183
P 8.639814472006078 1.5134599281869037 12.458693210771724 -0.998557589581048 0.835677175872322 -0.9231939279380681
P 6.2377944251825 7.547217760425677 1.3707586982030555 0.07794324944469802 0.16804678840101384 -0.13975642609675287
P 1.597374787943324 3.2591504000498728 5.962682576963881 -0.5322101268560641 -0.3831208533941595 0.6840389107363187
P 6.739408794158258 3.8610029167540048 5.897289376209981 0.43775088203421386 0.5064502442831408 0.39715599133098695
P 2.554599074316241 8.536863287458512 10.15020533362509 -0.39283653802002666 -0.47916235510146504 -0.3252589480803688
