# total energy = -381171.0070177581 ev
CRYSTAL
PRIMVEC
9.23381184708255 0.00000000000000 0.00000000000000
0.00000000000000 9.23381184708255 0.00000000000000
0.00000000000000 0.00000000000000 13.51461700620593
PRIMCOORD
 96 1
Ni 3.0576474214254605 4.460281863495699 10.44471697582213 0.5319830984469225 -0.9842388589655306 1.2064526203272512
Ni 7.820170404576221 5.875760537432006 9.799137811446363 -0.4423683262015672 0.2510106309887548 0.7081543157272836
Ni 0.14740395067864967 6.395125501874098 4.637811124356269 -0.18086785142508205 0.2414178450939971 1.4232806918970262
Ni 3.6401531892465484 1.5008452617161876 2.011542447256281 0.33352067386852885 -0.9920539841345755 0.11966839709762614
Ni 8.628923022995753 4.517448390801836 8.374873165820215 0.4615238160840955 -1.027273983679134 -0.8122055751129432
Ni 4.882211648462041 7.939674393656501 2.2041394418041644 -0.8717011593754149 -1.1867746822823497 -1.1693451739519924
Ni 2.0165721044075737 1.3105087042357475 6.380480676755775 0.010087466142989079 1.0826879416730644 1.0601126274757098
Ni 1.119331869904256 4.176129780667115 4.183165945068226 0.14004541809208138 -0.2552696633754249 0.29392928472915186
Ni 6.906383179775276 2.36192589018965 7.693303374165956 0.25497527206345766 1.7363736940388224 -4.3011285445091865
Ni 5.800015581287241 7.815664304539813 4.325717527777344 1.804508442033531 0.14780552165347446 -1.1527127076016341
Ni 2.0681891109721526 3.0035557533654784 8.574767641636075 1.2021115697497362 1.0410131876420974 -1.071456077512987
Ni 7.460956667657571 8.44375739998332 6.020383264071792 1.3822119468811744 -1.1807780983792826 0.24958881094056368
Ni 6.870214339933872 7.760446111470729 8.7315642254234 -0.6511593863994786 0.08698967591768246 -0.4303386487305427
Ni 8.215857697117423 8.635331288211463 1.2878821724135932 -0.40148598616490855 -0.7551085729896351 1.4475056258826617
Ni 7.078344452271189 5.619476097861366 3.9885144274504647 -2.036548959677686 3.3155539974513673 -1.4115626321291497
Ni 5.512973315443503 6.580845153579531 10.438473995833165 -0.003656880026296928 -0.10706433518037045 0.24146438206121643
Ni 0.2621654541468446 1.353408992697113 0.13951550547147265 -1.1418150868525239 0.040593348041330087 -0.5122069442612598
Ni 4.517513027482686 3.0464560418268434 8.589443861713667 1.2305109468280357 1.7325620336022163 1.0512649472770927
Ni 7.135104691869126 0.6324006685315889 12.891038980197754 -0.7565422201123679 0.4908097095324063 1.2687090551643119
Ni 7.49921234890928 5.049888432398747 11.913499673693204 1.0439738129323182 0.09480197287324964 -0.6085641774367713
Ni 3.6048892629370446 8.282922870405175 4.230318403748373 -0.3369083593938391 -0.10071396748231043 -1.2332059771616954
Ni 6.152553272455227 5.772064833725348 1.3476858762984143 -0.8465809672690194 -0.289794693735488 1.276113832268815
Ni 3.9395595287557548 4.983220313007646 6.91102317007916 -1.0782268205779173 -0.29985284930243844 0.7359664528435453
Ni 1.7862346752924727 5.531265496124081 8.730794125540129 0.04998044568318489 0.29196521902424555 -0.9194498875146037
P 2.87346981624888 8.633225979178059 1.243965241300571 -0.08383776055226207 -0.35078614581719586 1.413418968611598
Ni 5.734981846540491 4.441066301660119 5.519679832772279 -1.9728195398395247 -0.1962718446849781 0.13499988524837395
P 4.326059178804694 5.325499239543567 9.059455950183244 -0.008306205872850211 0.38189906517191646 -0.40857066092583183
Ni 1.1149181079833494 5.223585661466062 2.0745613643228173 1.2956855837531556 -1.4017944969987923 -1.0633375621709105
P 6.037684656773052 1.7136107474516118 1.0952814843410894 -0.6386959638251452 0.783452928460283 -0.8576333684284391
P 6.763748492762209 1.979239804310867 9.539953955049016 0.07114885223068391 -0.22233357476903645 5.113312265245258
P 0.705291453526245 8.937581641678072 6.868695377933895 -1.0544639138303646 -0.4799007759293864 0.5390047811803942
Ni 1.697857864947288 1.9117037066340639 4.28418753695 1.0272138198651601 0.17406908333569374 -1.9450297713207665
Ni 0.8727235414568753 4.9292671521209135 10.865251531863265 -1.4663075890805135 1.0204160802170361 0.4995871986147202
Ni 4.2198888136026325 6.992396134363658 12.72976861471445 -1.4054035545062893 0.7945726925225284 0.16753899552665985
Ni 4.4527101380246865 2.128735213305595 6.59605231782125 -0.370299276149459 0.747150751595139 -0.6653557325045186
Ni 6.030916272906892 3.130492960743522 3.151784283415544 -0.2487192638514168 0.15861598200541716 0.13742803507389237
Ni 1.2941463901691226 8.67368854139022 4.761307813550778 -0.4257697984129377 1.4281192509362501 1.4376737273939046
Ni 6.003371813053201 3.8949786865922866 10.53346775553509 -0.21213246586631854 -0.33165045342900945 -1.0742146140947306
Ni 0.11067277171384869 4.075278090917862 0.0396269022668854 -1.4640576167040722 -0.4232927976273549 0.32253177895719287
Ni 2.3276130464697977 6.848127062706237 6.329854458170513 -0.6208167695518791 0.4311865985531348 0.38078860571655715
Ni 3.4827998066227583 3.6620742578662817 2.9310638690297828 -1.9758596122174292 0.17818310550406732 2.9523818192649927
Ni 3.12289353383786 6.839410344603025 10.610960672206275 -0.4733753161060428 0.32302131699910175 -0.7478076684528476
Ni 5.379461634241849 2.496868812181556 12.441353281093223 -0.5753573516674994 -0.7924942127269448 0.32490979227106626
Ni 0.3494425175364226 2.8363406600062735 9.892253413879013 -1.627492103144055 -0.4433440598512751 -0.373178397469467
Ni 5.172430345478984 8.906971556389777 11.407160847204716 0.4431823374624303 0.03960732997897695 -0.10818070817300078
Ni 2.6065203243379726 0.7119047093583651 13.02254969443652 -1.710517395097351 1.0739564753373374 0.3177366715613947
Ni 6.227180937402442 7.765801722169737 0.09338615311106734 1.108980042600374 -0.30601886890383423 -0.7422944519441023
Ni 7.9026929783986954 4.019865987806227 5.18284239138278 2.9742485374310967 -2.354161704066707 1.029063728589705
Ni 5.334945428759232 0.40923975775315874 9.116838548679652 0.9020962267275044 0.07482912929574854 1.9274375121603
Ni 3.56237679456078 6.059522621088837 1.447293771631881 -1.1049902047146904 0.4895460123286343 0.10942897875780508
Ni 1.963551558487393 5.300041621100179 13.192847034091118 1.7232207015966323 -0.1903963597408076 -1.0423653307946177
Ni 0.17533438385513225 2.5256598365945 7.304839692400329 -0.8464670673989745 -0.07328132519265444 -0.2864538022877131
Ni 4.06742935110035 7.6664182084569354 8.35196592612694 1.050749698203571 -0.6702873654781811 0.41980278219622535
Ni 1.1976899947176756 0.70524620784965 9.000342935402363 -1.5496573542527634 1.755205482033345 0.7881225660218104
Ni 1.2685594983640336 2.7300410214425113 11.992384125764975 0.7504026828735334 -0.06327407746829747 -0.9728023349938151
Ni 4.584218082119987 0.11534877388277581 0.1622999354711324 2.1682002401688014 0.5925150943937086 0.41314876721481747
P 2.4015758769854108 3.5976499546818337 6.0059221918033145 0.3758883402014623 -0.7733402655063133 -0.30520537186360336
Ni 1.764008890891589 7.290112686359212 3.1285797149903587 1.0211367604331445 -0.34428408303262 -1.028381614921016
P 0.9042819391913582 2.8262019349243577 2.254900474038057 -1.9802567128438602 0.6206699595613698 2.30127385492874
Ni 5.887589050027573 0.5463138434508077 2.873140169176544 0.9476345774789358 0.6372474043040768 0.9254703826770706
P 4.832866159538766 5.423469980089217 3.095455262816993 1.4558164597412024 -0.3183316248329163 -0.03528324868232633
P 0.2794317583642159 0.7804232845840895 11.58962188681415 0.793298453795795 0.24235372664470517 -1.1025394291813526
P 1.6143565071005106 7.192631337825714 12.066579648331647 -0.367090025183542 -0.38183992979920695 -0.16114389063359344
Ni 8.152236735537826 0.28713091043461764 8.154125049999804 0.7496002415768962 0.735397467713953 -0.34641244222953244
Ni 5.698175873702135 0.16207370708815705 6.957338122051719 0.30488809773350073 0.7577547523632305 -0.5956248436672837
Ni 8.265009275998148 8.536880389465212 3.8777216161864656 -0.30646341264042054 0.08134224782391798 -1.5045468350673703
Ni 0.9154788590769054 0.6098129187179445 2.163676879592003 1.48180851292959 -1.1954619256437025 1.5694029123108069
Ni 0.7795100606217932 4.9078631769479815 6.448093415068444 0.24810579863713397 -0.9206616484345176 0.4985322749876446
Ni 0.0020222047294530822 7.685920018450565 9.99273482778511 0.791742679272901 -0.23562489256130387 0.5182523791243913
Ni 3.5302338965551807 8.931727405155364 6.256510293028752 0.3291269156762074 0.22645531024689386 1.4199760530038255
Ni 4.443513261720873 3.941581733485208 1.0598402688498254 1.5376312763261648 -1.0901276857805613 -2.570790515141482
Ni 2.1704905091347584 2.8338382970762193 0.681659359626294 0.9921118339557042 0.6103336106323682 -0.04893272114496089
Ni 4.278717426987772 1.4535589127685655 4.464648532977701 0.3243356649351511 -0.08379096647472666 -0.8719276735639242
Ni 7.974171913607354 1.7248298284848789 2.058694905936428 0.4471999432622556 0.6252848326255618 0.41728207265690076
Ni 1.2149387546931019 7.246418290104545 0.8170907502491954 -0.10134774441156738 1.1225744934553568 -0.7151749700194909
Ni 3.606542115204497 2.161801492466195 10.486437183167403 0.022225644167419786 -0.2584524319787807 1.7739105146420158
Ni 5.2836885408451035 5.039703538259082 12.615745816170255 -0.8275182942106136 -0.42218336661326 -0.36307087672181987
Ni 8.762056117923855 1.6058429328513977 5.06162922378459 -1.333066338394459 -0.7012786716533729 0.1135154901223529
Ni 9.122091664070455 6.828255900250608 7.368142087481451 -0.690037808632231 0.8282685421130769 0.5316640245446069
Ni 6.999413831141669 3.818956716101021 0.22937249580812463 -0.23243672464130938 -1.45983457976166 1.4329868634411966
Ni 8.846850209387634 8.119105819696374 12.630990839039328 1.6577825265974804 1.183906359595619 -1.0141487591510856
Ni 6.201714085147502 5.648137848912609 7.917200219724922 0.14586999519365845 -0.978199080529354 0.33459153833520444
Ni 5.246827165137447 7.231099396743072 6.317989010328745 -0.3870317584127915 -1.6319460251503508 0.858936917731211
Ni 3.33926943988934 1.0322754946107235 8.476084050838764 -0.2355937822130523 -1.5527156814631131 -0.8933323644919453
Ni 8.046694269521165 2.5032863112088157 11.714672626492526 -0.8689120266660519 0.5707051976074687 -0.2020992500000326
Ni 8.112005018614415 6.261115194848744 0.23835607106513332 1.0524075455219681 -0.5727245420303426 1.3713906878959543
Ni 3.5086267775281477 5.756468926017374 4.69435621614509 -0.12366234874836768 -0.24697142792237467 -0.5945508938768147
Ni 7.657267501210871 0.09587558870495114 10.645179331048315 -0.721719456006228 1.0512433500105378 -0.7702199747097768
P 3.264817217361576 3.3887903712320653 12.425270751516564 1.9926882537389938 0.6536646693198356 -0.3579042449192159
Ni 2.8042531648699747 9.246831224299594 10.937243866994105 -0.7750575053077361 -1.1989025758941352 -1.6327533515429946
P 7.291460822845514 7.304711342419784 11.528252128490447 -1.0881415085884678 -0.8143678728715846 -0.36152358683935804
Ni 1.8253675686414323 7.922370230811776 8.529344675859246 0.35815595591870575 -1.047966736141795 -0.5650292302686141
P 8.859999157034855 6.591796454077847 2.598644806466966 -1.5717199904797576 1.1920058487743017 -1.0058705783026936
P 7.425258752205218 5.955125147704377 6.157637409094666 0.3836906098547005 0.8049815465606781 -0.09585252562495104
P 6.4852290349791355 2.262616246969249 5.429375925956605 -0.4740972818737319 -0.20284538413743772 -1.05601428903662
Ni 8.14845087280232 4.2819492610302765 2.594968826088905 1.293653126704159 -1.0340573251495546 -1.4699801528360943
