# total energy = -340896.47027946636 ev
CRYSTAL
PRIMVEC
9.00661701776754 0.00000000000000 0.00000000000000

0.00000000000000 9.00661701776754 0.00000000000000

0.00000000000000 0.00000000000000 13.18209440831068

PRIMCOORD
 96 1
Ni 6.506055683279392 1.790227193013603 11.596209071876691 -0.19928363492810838 1.4446720130886086 -0.8975425459185509
Ni 4.54732369797482 0.2586069859987502 5.862894083673912 -0.11104363154309262 -0.32123542874327254 -0.058321361448712465
Ni 2.562139279351599 1.5396721223661876 4.8007870051624435 1.1070838540189256 -1.032932210406176 -0.7041109988958454
Ni 3.4604141983285555 4.278755393879227 4.769452985579339 -0.7035479273035239 -0.24475796521082363 0.40623609925538423
Ni 5.037806031535226 4.595995454751794 2.618135216848602 -0.5963249550581021 -0.35884115491118845 -0.36925052316997053
Ni 7.3373033605956826 6.097983892744395 2.534086370241081 -0.40947491790765606 -0.5351859216549364 0.04587310838303068
Ni 4.904057773182513 4.560752563510436 11.249994725002734 0.5874744466460077 0.2208042826087036 0.27744414258993505
Ni 5.689083493470782 7.957354882348825 12.367730271048863 0.09999148749398908 0.10792616896003349 0.16638816975166829
Ni 1.7536423158803558 6.590096423931861 0.2109754934534087 0.724740502220739 -0.20948217272766503 0.4411120851969629
Ni 2.7640135866053166 1.56741250187638 0.352054237157857 0.39513433291526784 0.1122942161207421 0.5035171297967457
Ni 0.566326152332282 -0.059485100815914245 4.680579294392725 0.016633494791622967 0.3650719663122487 0.059186537662485154
Ni 8.636471796578538 2.5191867241944217 1.5262099323486928 0.24245219989578243 0.6027046333322008 -0.6682150563301847
Ni 6.884729876826965 0.6574596036549706 4.9559007597080384 -0.7105847795456472 0.18079663186751443 -1.411619196398698
Ni 0.5820490031475232 7.246642756651009 2.277101475914339 0.7473034751229195 0.031050184437585233 0.6638068999601601
Ni 7.4228572128577985 3.8861749841096622 3.8626695157831366 1.1419284725019367 -0.40620164647302304 -0.552864569881622
Ni 7.439717599365292 4.025867609500273 12.618928414130378 1.2361797150780387 -1.6461356863871714 -0.7303545059734067
Ni 7.824543312135417 8.672930581077647 6.873578784660871 0.8756727424286531 0.1025556486767395 1.1936744947259763
Ni 7.232394288993501 0.6969896444569944 0.66156481955781 -1.1417587796932918 -0.6532203826935653 -0.5694157893720839
Ni 1.8071236059879927 6.42471692764415 9.214165199878293 0.41316907892979166 0.8818760430258877 0.5815627091472629
Ni 0.10289879474936516 4.916676043212961 1.2330625712130636 0.011144960873225966 -0.07384696788813734 0.0820431305456845
Ni 6.284429865549749 1.895469509434576 6.956546837261501 0.27396801111587654 0.5212106904217668 0.3742657169963748
Ni 3.3358616956511375 4.612396503806359 0.5642591337941038 0.11443620216440936 -1.4861742460974534 -0.1716836138226527
Ni 5.86091172733294 5.473176877360935 4.67464753661824 0.052569032345967534 1.3220039099327103 1.5806427468906843
Ni 5.129367297152308 2.7938975408958417 9.3199515159494 1.0787387272173294 -0.7269642493449351 -0.3928025994582977
P 0.12559727021741274 5.478319655510389 12.20180767577269 -0.14095713127307338 -0.04222291322495309 1.042763851784617
P 3.9371254149178307 6.117573284119287 12.438254781983494 0.4644929260147484 1.7457019134182838 0.04417926562037553
P 2.345313988335895 8.405614196706704 1.3984753919826538 0.30625798149783384 0.48145912155544185 0.2259395469527399
P 6.237379299783111 7.631783701006477 5.783788968986244 -0.5061144582102767 -0.11749992869139764 -0.26875535656668553
P 4.7983651259253355 1.2007621416554652 12.554033038648305 -0.8202004203929616 -2.0195866207917343 1.7184099104715502
P 3.7243711146614147 6.255959950084906 8.234709141058765 1.4759733943050515 -0.7160512019768571 -0.32080194075027973
P 4.719953520725422 1.0223770908181706 3.767402928045764 0.8739215640655015 -0.13659859719406153 0.027665070015436225
P 0.1633665174498774 5.422613731071903 3.6075435871482466 0.5416108513446737 0.42257597406598835 0.008942811015584598
Ni 1.4736085886949994 1.2283133822144519 2.5460291440172225 -0.05771998041928769 -1.1450472206365763 -0.04844961086095527
Ni 1.8200751208372319 6.421474545623478 4.795197498823473 0.22529497139020557 0.28511785708510895 -1.124120240675922
Ni 6.1098726268201915 5.581832701520337 9.06949191543926 -0.045652250621476216 -0.3765208315791386 1.0723971012700177
Ni 8.476235078440281 2.27956568625005 10.269628997894072 0.26594359814950325 0.062014236919267385 -0.8293345214837458
Ni 2.257679607610515 5.252929071990077 6.892165739594372 0.8899768177561511 -1.107968570616724 0.37536794892161807
Ni 0.5716733806813734 -0.1282758380311566 9.105953401923387 0.2243868577536394 0.9374550658427726 -0.15134053138992645
Ni 1.4182178958418556 1.228952852001862 11.349822263449184 0.36785878502876646 0.12066032869725024 -0.2452693576296034
Ni 3.9592366589754673 6.741902948816372 1.582694929133813 0.3391099950308482 0.7128751182417207 -0.10282510028804227
Ni 5.487830642771027 7.762280570721794 8.058926101793059 0.033727731269748366 0.2601367616597391 -0.42951692416019577
Ni 5.324991012399508 2.9154958732877594 4.80037810476317 0.4080492412047231 -0.7266634302750646 0.1253963007203389
Ni 0.9291856275740278 7.256874273249573 6.891862216610771 -1.1389804456172061 0.9708665514236827 0.4506691327577787
Ni 5.123918294034235 4.521672853544616 7.25771819323662 0.7390600041672045 0.6899383069398892 -1.1245251894238246
Ni 8.207351542759346 6.992097754794823 9.088012221409002 -0.25432401163270396 0.3807875772752926 0.6625398603222783
Ni 4.550322901343941 0.5136257358946236 10.384958725046026 -0.3622455526070471 -1.420819117730411 -0.14852954430369258
Ni 8.157950250027723 7.084172397565179 4.741625241886924 -0.2683102986094669 -0.5367671500991272 0.22929637924011476
Ni 7.3201907888199145 6.163651135279724 7.005874275735988 -0.3279534641933965 -0.885725755789281 -0.5217195117373853
Ni 2.253095239697954 5.162682772414711 2.5908478701596307 -0.5175864634056182 -0.1884693179214238 0.6295253530694707
Ni 2.1982899769318758 5.253307349892489 11.377016841985897 0.7352030923149596 0.35814721416795736 -0.62389360870499
Ni 0.9035618029939964 3.283497226017287 3.88645058658142 0.4423649837674575 0.6109288210142059 -1.1544114354602957
Ni 3.6711239965886038 2.543045251896532 2.6975438545198718 0.11426496669386772 0.7786799325516719 -0.48671214242426497
Ni 1.1859012240607196 3.4115623092171004 8.118535493919765 -0.3734311369102214 -0.39988984532238225 0.2512975661015543
Ni 3.707798939889092 2.80759660493318 7.02240502007138 -0.8095393411346896 -1.1037049102443637 -0.2803317485503753
Ni 3.9887693552137535 6.742983742823261 6.120617520572029 1.0581645026104034 0.35234731965672866 -0.9438830808563035
Ni 0.7021324226064489 7.362044536736754 11.350060038130701 -0.39354924781633516 0.20239826929769014 -0.7760880034547796
P 0.2994745093843013 5.44461689572885 8.024718070813298 -0.6431699404360988 0.1936773444849245 -0.47941200921842597
P 8.430571531649154 1.5556138339678243 7.9643314076633045 -0.07968697160868211 -0.24411981740619246 0.4457632108157291
P 1.831999881379925 3.3926213942463423 10.388689265693145 -0.2501685947034337 -1.5970299299994561 -0.44753521511448735
P 3.924624230904796 6.144088763755003 3.8272365849289 -0.3659916499130407 0.7105045611270151 -0.6473029887678659
P 6.788944507966285 3.8181119815257265 10.358911589479963 0.35351871425701054 0.34403648579818813 -0.14634667771976087
P 6.407937600687174 7.746942302440671 10.211060770660673 -0.31046610604191044 0.13293220408606785 -0.642596327320816
P 2.413692222505174 8.41608889195682 5.692357398649988 -0.15943230725912544 0.4960187645371715 0.3206461318987059
P 6.803454167508792 4.076205590371203 1.5498054668424597 1.1909326703147811 -1.235588361350943 0.6902715219095918
Ni 5.189180238816979 3.0654290218936593 0.3377490278149874 0.08817392603377072 -0.11203582025303287 0.44385879470416456
Ni 1.3996192323066132 1.2057428007038862 7.035230442286482 0.7881153669329588 -1.1694374765554827 0.1552061849929198
Ni 6.686800467698398 0.6637444208050394 9.174645066354666 0.5191383812737705 0.2507123830220456 -0.3470151088105378
Ni 2.7198001051067666 1.765468003639084 9.21792185971391 -0.058194606062861066 -1.0778473257513115 -0.41468988644969224
Ni 6.459446441732235 1.9861211067625255 2.5415735707238154 -0.9362957554273488 0.24460421324177878 0.4433900825978622
Ni 4.353663425173471 6.876777034259595 10.270393659653948 -0.8603397116160086 0.522986551375267 0.6788293415109212
Ni 8.187545992583075 7.226080650669916 0.19061603634860688 -0.5921991058151865 -0.9245820665348464 -0.26318249046459835
Ni 7.648166736827594 3.697738549008285 8.186488615779668 -0.19948083854057905 -0.07332220573291888 -0.08649139612502522
Ni 3.346444470301941 8.466697071329472 12.538333605036547 -0.5808844521333157 -0.893239547667823 -0.5338913712132289
Ni 0.04637777149734839 4.653241510650099 10.054931970410273 -0.4531913849590002 0.6323381399279174 0.9212702285527941
Ni 8.731824847836462 2.268478541062697 5.768141773751485 -1.2847648230755937 -0.004461892426095541 -0.12365206433572254
Ni 3.7185618468743775 2.564859277602274 11.382672096626953 -1.123596249851652 0.8593446946925909 -0.07528215767276712
Ni 1.2432013196593699 3.3987188737685505 12.59766559336815 -1.092250645660835 -0.2853849947035666 0.29541358258416217
Ni 3.0462449282713506 8.38619593104957 7.896443133443815 -0.6827163352701533 0.24424837256425674 0.5511236759311153
Ni 5.6736551590224185 7.758740970349227 3.4169437627097428 -0.5741903279425917 -0.18526649471340997 1.3821240151530585
Ni 3.16619504980276 8.40586638197498 3.433012467607189 -0.4013744002877087 -0.44750847564160995 1.0269883341179151
Ni 3.456334200952544 4.302397762779959 9.167302872401187 -0.757299924213999 0.8965403299062817 0.03558432486251291
Ni 7.108688408288147 6.030767512132523 11.324868531153427 0.516737999362394 -0.044834896926503436 -0.2164156666227047
Ni 0.6787827687492498 -0.06618692432030841 0.12874778474749884 0.5427701617600975 0.7583589616061327 0.4892773320482799
Ni 4.755664756036433 0.1629450077871901 1.6717001169245995 -0.2898468871296621 0.9158470006546936 -1.5093082610117554
Ni 5.980051253359182 5.611932814612241 0.3470132337773847 -1.2224268842683204 1.659161666333194 -0.23857523343887943
Ni 7.930172913075526 8.966870524484998 11.342954718197067 0.5049924287906916 -1.3233635092843983 -0.5681952867014214
Ni 0.09259342389366321 4.754592968646266 5.961548960622887 -0.13918615541557963 -0.24956052880578958 -1.1159803851776071
Ni 7.8345676765493275 8.702265131748003 2.817593048835246 0.044517108575768495 -0.5038122924396613 -0.3938932614193152
P 8.445288343376314 1.5653499866465639 3.5271199037721717 0.0072363698474391495 0.8891378667946236 0.9918318408214403
P 1.865846747029049 3.1832445752614595 1.5686689249093904 -0.5610314219631306 0.393715083970238 0.2609479447071248
P 4.5418386683898495 0.9596009722512744 8.02757857228487 0.9176298035867293 0.7651764987485984 0.7270727498983413
P 8.547072118975237 1.6740148174226903 12.4857763938048 0.779711973360612 1.3498307023369915 0.3356220364822478
P 6.430661294682048 7.709699942286566 1.3151389687580086 -0.6306226998987075 -0.14692671859294695 0.2668838505755855
P 1.8428798743826236 3.142687780152889 5.884618943874086 -0.39003172158137994 1.3952710940579778 1.231201802247473
P 7.030087664137028 3.978042474695364 6.036278660905993 -1.6155873812866692 -0.11210703981060048 0.15013108446285758
P 2.2899503153329235 8.465841442740683 10.404336460927901 1.2652519498536468 0.3294436755856778 -0.7271270001750444
