# total energy = -340867.20456401247 ev
CRYSTAL
PRIMVEC
9.25615904620843 0.00000000000000 0.00000000000000

0.00000000000000 9.25615904620843 0.00000000000000

0.00000000000000 0.00000000000000 13.54732439102104

PRIMCOORD
 96 1
Ni 8.249875881717067 4.495605465411623 0.29628780580688213 0.26625701562486404 0.025457520841156156 0.12214719765542188
Ni 2.393272531206926 1.6398211696651415 1.0998677489052002 0.9444947462983733 0.15804596843456004 -0.9833286884464354
Ni 9.213377264726514 8.439127313388852 11.537132337632169 -0.5683945471964211 0.00266134888224703 -1.075324816439774
Ni 5.054159138149675 4.374007301571643 8.916172173539671 -1.170987337541106 -3.073565881676197 -0.6295492643288707
Ni 3.2077127259329705 1.0651525237029587 5.843827999537169 -0.9085702644876223 0.1337521288842019 -0.24613093429895028
Ni 7.572028828787977 1.9725615817622428 0.3685700788709601 -0.6024130702337109 -0.27614959214822765 0.9390478642511891
Ni 2.969144477869359 1.804867744943416 12.08004125003511 -1.6392736691600154 -1.6974003980994188 -0.33176461040937055
Ni 8.257521469243278 8.199550143968876 2.4024148396810636 -0.778166483250363 -0.2724957974457242 -0.7758846291947219
Ni 2.0861994486621014 6.814828722756949 13.615467753410169 1.0555026395075242 -0.8125542167016134 0.5951558744506653
Ni 0.30474793534557004 1.738241910786441 4.54427435065716 0.6752313397470177 -1.9534753309849586 0.6297968615633025
Ni 9.072248604905536 2.762843200890941 12.246565108326925 -1.4779017216760162 -1.7680286019399425 -0.5882203236730966
Ni 2.5297175744561575 1.2206652549715522 3.4955894598450983 0.6838825876641126 -0.4690949435631341 0.12832941520673385
Ni 1.8396153667029722 3.9228898690475407 12.678413068560392 1.8405033720709014 0.9995968294788397 0.6446452394300447
Ni 1.9649900435098944 7.901594378268262 8.804176349287694 -1.1809012542207082 -1.4371091131396863 -1.3356806360888547
Ni 7.993072999965037 5.348912272755776 2.4510365185145138 0.7453144697173486 1.3856513115800264 0.6381004963329914
Ni 1.562226786817417 9.058549489241141 13.140606421222344 0.5493336739102281 0.39727066253198035 0.05260914155528359
Ni 2.5405750492361143 3.4968936526809857 7.946887542241633 -1.1954202737724897 1.049226062470193 1.0036550587086135
Ni 1.9692941575530998 3.2848998377744563 5.041433770436559 -0.43008050997314967 0.0639739317487995 0.7130275846591849
Ni 4.189680146611654 0.06108509724028073 7.920619487955153 0.09844625449405627 0.20692032553775977 0.7323622804320549
Ni -0.10684199479121018 6.610897022542101 12.842335020491895 -0.6844731700602599 -1.3738399207673953 0.06716441366163915
Ni 4.85671600555695 8.651010054384589 5.513205396672508 0.9308897539204289 -0.1595626621894026 0.34302938468991245
Ni 8.480854079209864 6.805702149753507 7.68453003933406 0.6374168400024054 -1.4696165988490884 1.533821158551455
Ni 1.3145597342280617 5.036720534155268 3.4575207281528497 -0.4835802816635026 1.0570892672683536 -0.07118561900589031
Ni 4.430358798980321 2.7041221267186915 7.1200542759189265 1.7048445130822898 -1.4852890152790228 0.003266072345781472
P 2.034281651525887 8.823887340373728 2.014514197868533 -0.9179005407496127 0.3418579900896306 -0.4090920806469406
P 6.997924808538988 0.6613359160898 12.16961587977772 0.3657800481228668 0.6044776660722234 -0.045091750132315894
P 6.793206334789361 3.551375405924658 2.4600853397804014 1.407315941037654 -2.2230344143998617 0.6379693700717658
P 6.6778653345906855 5.786302821137784 12.87414473731099 -0.05717362099751444 1.1121419852681234 -0.3852864935869107
P 2.6925149030408857 5.781295238992893 8.131186003108 0.9185284041415986 -0.03305847311686565 0.9647252144126354
P 5.846560417742661 1.0457701262696848 6.704882212159091 -0.7560660518068979 -1.4718400888629684 -0.2588147004142059
P 0.6101873057858227 6.319216932801257 1.481494565989807 -1.6506965662849766 -0.40196703956638513 0.9001905250643594
P 6.015105821210897 6.079297285489672 8.457824755038907 1.958081976519034 2.640335770330472 -2.5633068051699275
Ni 5.657484853096298 7.8638940417134755 0.02387996520444287 0.762860449020912 -0.5292716130530304 1.4096867552626755
Ni 7.7924087239593325 4.59816370970994 8.841472191684012 -2.657206320833566 0.1347178352315809 0.7651186489274695
Ni 2.9183559321595345 -0.0018641904694657906 10.26623020404106 1.890733471871047 1.019310505857683 2.5630237267118696
Ni 4.241098111149303 6.890729228465089 6.879968017741152 0.054124292648229363 -0.9691829930736728 1.5431853733751746
Ni 8.342020946878597 1.128122174963017 10.049459285354535 -1.2139612699994706 0.6106418859014064 1.5596509751303655
Ni 8.53079105827028 3.588168638874641 3.9609798899060245 -0.8746314456483324 0.47573713147 0.12247629886006649
Ni 0.7443488545523471 7.62898197654678 5.8231145664062325 -2.8777509220229796 0.38451747663137 0.7797050313820766
Ni 5.2794077730774305 0.9236619480559823 3.7405250198448843 -1.142431123169968 0.01659852778862948 1.1346301390683105
Ni 6.109638975454463 5.656725848039216 10.48938231890261 -1.433231889572467 -1.4250622092774812 3.104207517821454
Ni 8.350073805411045 4.604356080236617 11.10490487487016 -0.11576494827816192 -0.9671734188428117 1.3589079820479113
Ni 6.328639702900146 3.654433482821541 12.64721333263473 -0.016738138690287306 -0.27837231083115926 -0.510799779501088
Ni 4.757758407200154 2.246423564980139 1.909522509307939 0.14876608579453088 1.056992079568857 0.056872287707011734
Ni 3.2654989280227174 5.063304223471583 10.195486304641458 -0.9647416694728674 -0.18986337005547305 0.09096717250819171
Ni 1.8002952022824623 1.2412046723089136 8.822613692863309 0.43682579911678315 0.7559328686631434 0.3190582185862956
Ni 5.81895855091075 6.404993760410688 2.7352181936609474 -1.0589610303697699 1.003194317022111 -0.07897580447427044
Ni 7.4566230354746725 2.0069852379486544 5.778949728243327 0.6161535597482549 0.11162855751228518 -0.56510919157693
Ni 8.035475465410036 6.648477029026863 10.423596018388041 1.9139646744848458 2.421775803671255 -1.6349578153934812
Ni 4.58232642126279 3.1762788091787213 11.237044878460264 0.33242512681150493 0.3518706371306262 -2.5707249520108695
Ni 5.60751084939895 4.654274546978567 1.2645903586103304 -1.0358293294483127 0.6214284349939492 -1.9522093197883412
Ni 0.6540642773965908 5.382817584025156 9.108638269312973 1.7027788888025126 0.3059425071399441 -0.1425023642730062
Ni 7.450523226540323 1.3666441422304647 3.273074168738759 0.984835354898949 0.09886920096408779 -1.0992759279387327
Ni 4.47245581117064 7.186213599650573 9.597236667418047 -0.4593604898841895 0.7921519988961776 -0.35685574905004347
Ni 0.12558386600558125 0.635683396392295 1.3137479690633538 1.0973339737210135 1.4061957113902814 0.6977876277809789
Ni 4.304123299364758 -0.3085281507762047 1.8327361891612295 -1.455807717990454 0.9499858513199316 -1.7931727053057376
P 3.8816629358250943 2.0540805761246324 9.122985316123659 -0.33888913726929376 -0.14264686027067047 1.155125687918501
P 8.576257312421303 9.044387565615109 4.670426544839629 0.45070667086393346 -0.022683300530128677 0.21778143662197977
P 0.8357367658886413 1.0512034917392796 11.320279964744394 2.8197645753161824 1.4234496133747228 -0.06200395250662225
P 8.675400033962754 5.178913652288006 5.411980039303701 0.5847326222348123 -0.05343780810416604 0.4810914538033779
P 6.292512913414917 8.911867133880541 1.960514690520884 2.0250674414006475 0.07134657006378681 0.4383877442872644
P 4.113344601419577 3.060993345935442 13.338356858301594 0.4295241232490474 0.9666612550930835 1.6707483427295289
P 1.2740270129480682 5.4538308376584315 11.214122925736406 -1.4706190719716739 -0.8985635309838975 0.6387607556248095
P 3.9031649937226565 2.808911105392089 4.334209519334726 1.4625720332974812 -0.42901195949931925 -0.25301917677835134
Ni 5.509599197035449 0.8249348280640804 10.253523348646409 -0.46576382230737207 1.1468163967218572 0.6052011745018093
Ni 6.346559627174653 4.005852824250232 6.897363117787165 0.6488158258679665 0.9768613355545369 -0.35921705019336847
Ni 7.020602398659104 2.1259361402480828 8.1640379634567 -0.05514656326515664 -0.07458898826048445 1.3125628191244687
Ni 0.7455993616646849 7.335145201704717 3.4856177995037103 1.0842941098179197 0.7796687788275024 -0.18885369784403605
Ni 6.543947222811982 8.52317323922177 8.866791489649138 0.7952542919705853 -0.906444219283555 -0.1797075125683937
Ni 9.020349320087787 0.7433056854068217 7.877091473547458 -1.3446285893107617 -0.6221987375010705 -1.3511159968073183
Ni 6.953615574292053 7.700911589944092 4.272569052540483 -0.418180416101454 1.7206372571401722 -0.18578868576546714
Ni 3.5012718159980527 8.047462191616383 3.637605785336492 -0.5548746583331153 -0.42447730485375923 0.2668365422774179
Ni 6.806757351906034 6.243029486156903 5.9016891765167 1.9067115924668583 -1.5025226055484897 3.3180106865219763
Ni 5.030472626673196 1.0264340096325744 13.373458065343838 0.22565672560499847 -0.40889796235826353 -1.1091867592945412
Ni 8.962988901322746 3.630996887644344 7.272474524387874 -0.19840637452947768 0.23225803297160003 -1.4611268162105222
Ni 3.9205388046024345 4.558473298920122 5.850493359800637 0.1757446712659038 0.3270633482789593 2.405797168854811
Ni 3.8397232783417303 5.041802165574021 3.7479623437883585 -0.2723502730067955 0.18433909780313412 -2.9991375873632933
Ni 6.037450189598635 3.9018413629523807 4.492184388959218 -0.24035597948838605 -0.03934070658115161 -0.285775802384082
Ni 1.4358061640171995 5.244021476330819 6.5404724606360265 -1.38067545563199 -0.49100151382823826 -0.5387458710920529
Ni 1.1588433674563485 3.300191012826877 10.460851133683734 0.9593058431692769 -0.6000576826276569 -1.1775199964533012
Ni 4.207600070886161 6.227182941550521 12.807464291814544 0.4913997777079214 -1.3401808379520532 -0.4408737439339117
Ni 6.319559410692867 8.042574939541517 11.33848775557104 0.012630801390133086 -0.5929465255041724 -0.31329020575426686
Ni 2.5179529960713953 7.103398742995606 11.093307832967511 -0.16493652490680627 1.2171944322247876 0.9690384970760085
Ni 3.21298873669561 4.2271953599817875 1.5656913672182167 -0.633254995315232 0.0734661875099509 -1.2073023699220562
Ni 1.2671774551158699 2.9772343610387395 2.6135765258725736 -0.8843787548430835 -0.3194253721177273 0.22495455733165126
Ni 2.512093847277096 6.586599604556263 5.0118733003110085 1.1884962929591467 -0.4419492363862776 0.4864555463287687
Ni 7.995174148110859 8.560595890999574 0.029065265606601436 -0.49861635006101873 0.19387531942834355 0.0935372472282131
Ni 7.526099766675319 8.495515835434462 6.767945350627399 -1.00854324003885 2.106564983855508 -2.9638034308383734
P 4.203110833658302 8.360292605203945 11.99977276278506 -0.837556652283222 0.25520050070038636 -0.540999700123236
P 9.069629111842682 8.39293907881768 9.372364758171063 -0.35312096459795955 -1.191931801003257 -1.1449142946031379
P 0.6151615657574757 2.9886842300095893 0.5914528394988379 -0.4020642272658817 -1.088609706474138 1.8784459127529456
P 5.12195124836997 6.35717644181456 4.895000405759321 -2.4547535441488564 0.7279770068801656 -1.5702932853355602
P 6.799750439366881 2.8339212476388442 10.36948821397737 0.02651630112297369 1.1584449820997211 -0.11646891632372199
P 3.6101612732115362 6.445424663939122 1.8805174087363503 0.7042961183234581 -0.4952011537318826 -0.7675342003474975
P 1.1039543432064371 2.13967228054941 7.004522598840057 1.2603547696623456 -0.3900011254537606 -2.050155494717527
P 2.4677938691893937 8.326794564940805 6.7029726665093845 1.8110616697710162 0.955351486507219 -0.6469764586663824
