# total energy = -340864.2918003396 ev
CRYSTAL
PRIMVEC
9.32051422331407 0.00000000000000 0.00000000000000

0.00000000000000 9.32051422331407 0.00000000000000

0.00000000000000 0.00000000000000 13.64151469783622

PRIMCOORD
 96 1
Ni 8.496040027772345 9.216888585214475 10.466015491145331 -1.482646435449853 -1.1207315267093474 -1.474526634556196
Ni 6.176564860208654 2.6248152081869676 10.173227386807383 0.6970412365332577 2.4960811992530494 -1.4267938472566073
Ni 2.632523273315033 0.030986981045669798 2.279074467316877 1.602516149925008 0.6998298550219884 -1.0191300144157611
Ni 5.084191291799358 7.976132432961388 4.455754699216072 -0.06960104812758981 -0.2608898377756797 0.6323013731527111
Ni 8.353734419096028 4.675831609264938 6.882525760541883 0.36981179499007927 1.048434419806833 0.6924096512985172
Ni 4.834709091940895 2.5548927117047997 12.062099465031178 -0.9714465922968688 -3.7139644300147463 0.6315151298059898
Ni 3.380867347235754 5.283212228534059 6.5228126370436375 0.8985321635253299 -1.1034835382621768 0.4106172590422154
Ni 6.256562832390265 0.6086882873918142 13.595952230637614 0.1102581595273198 2.21904843316892 -0.6431714830979955
Ni 3.4438367402287593 0.7736940080625762 4.411692901046278 0.5101474906290698 1.1268160423405302 0.35719616310859775
Ni 5.2774428303305845 4.2057514826216265 7.68528858785647 1.1095022336524312 -1.7740874065395122 -0.7635248220777883
Ni 4.804641113581595 6.952451053178269 12.563616753549285 0.47824421416256996 -0.17708987243988858 -0.8711368022315127
Ni 0.65836662733449 7.1907952387343865 10.446630686002221 -2.3678643983647802 1.128756711006669 1.3185735440949227
Ni 9.370565221044652 2.5818849204241223 5.950592725016497 0.6919995603442922 -0.840517791794075 1.7867359485414582
Ni 1.2688202200893706 1.9807956481458657 0.8313535041952921 1.9541839270162087 1.2267982738631387 -0.2560805893124945
Ni 1.1276237525862567 4.878077443864586 5.5119087499861115 1.5289332343315345 -0.2108155468271079 0.7309669427464249
Ni 9.120682239081585 9.172690707539395 7.618594717444873 1.4512658642560425 -1.3725996206023912 -0.44681736311185627
Ni 1.4047226356060978 7.095017636248281 12.693047004102374 -0.24548430185388692 1.0101437517567506 1.2112004194248818
Ni 6.812941598720113 6.609390892151989 2.9608775272565935 0.8422861965484074 0.6902522386358821 0.5554248744096305
Ni 7.64552447871999 1.73073557641565 11.626117507026944 0.507390496709223 -1.9698936244419814 1.3840022060123778
Ni 3.591865144538249 6.76694486183135 2.7032976647823346 -1.245887429284106 1.238101357580784 -0.8338198109486091
Ni 2.6960891792079136 3.2343954687743754 13.002641859394286 -0.7647047013185024 0.5731919685850645 -0.6364318503813169
Ni 2.6301745037717774 8.149037289298457 10.81365575278096 1.4395789148364175 1.1368513150893453 0.9632614853829152
Ni 6.839710115101982 6.726754805202304 11.091274720485378 1.1386266618222132 0.6848611495272979 1.1813434839644494
Ni 2.896862372585996 4.2543672839614 3.6787891907182466 -0.3786327357158189 0.5841332980879166 0.2945481492600734
P 8.520226761759446 6.06092524225954 12.34975849048161 1.500403759433274 0.3073481292382191 0.24473251128952692
P 0.6512196571528683 1.9456573101376315 8.156534710808756 -0.8439152475113981 1.7212445517068682 -0.06851707103479167
P 3.407542658477018 5.316971130461333 12.57373883181903 -1.0166134186414943 -0.3208307371056861 0.46335392731429875
P 4.201529289752202 5.398553590033235 8.925301895138931 -1.2155635814895838 0.652032018812419 0.9083092975167519
P 1.300854826915445 7.829660554500009 1.9392503887724166 -1.0013683195569658 -2.52019094781706 -0.07174226284030871
P 3.5063494280327983 1.5640195414147793 9.742973816744758 -0.3207577177759056 1.2973004936487593 0.4956055882591529
P 2.64368924915956 3.297858849012589 5.95667622454381 -1.3460720066255074 -1.0272066207763084 -0.17251922235007064
P 2.9070030918838627 2.276227982322788 2.567837973683483 0.8258373069637649 -0.026161231776400104 -0.5507395531188193
Ni 4.65877506853415 3.262375651984115 5.3737880521229755 0.3578021721237128 -0.1276871536370446 0.5147397379854426
Ni 6.395000427731459 5.680732153216071 9.184477429620355 0.8832608391885564 -0.8786536794338481 -0.673524127247924
Ni 9.118286866968027 5.164701892254298 9.850237088707665 -1.7179131733407895 -2.3120840581703663 0.19778391045413035
Ni 8.592022681567782 6.6237910863755225 1.1862292808961172 1.9634612385530765 1.105701371849102 -0.2942421879838803
Ni 5.15264114705996 0.4708061946886284 2.384591074944839 0.15425976191925048 -1.5189108170985262 1.223211842063461
Ni 5.942116649529842 0.9796885534173729 4.803367931360925 0.009477600473132064 0.720377854376669 -0.5993447157210323
Ni 0.5032359913108697 0.8511418875972235 2.6409154641751433 -0.17346564542374 0.33336872167169684 6.044191991863358
Ni 8.672262987114966 8.4054446311039 4.192514488552847 -1.5095309185455228 2.2531435750804163 -3.3602091742668962
Ni 7.780205906894787 3.9333035361179944 11.7716312366429 0.43315554935404754 1.6535435488154686 0.1962484476462104
Ni 5.39741648731785 0.5033282644000691 9.953121583164931 1.3597181366540323 -2.889528117163566 2.7025328126845074
Ni 3.4322793027936904 3.8106082890250517 10.659274486087806 -0.21375200374761255 -0.08058737193576444 -1.2204337650976917
Ni 8.087885396547259 1.9864065976103107 3.90289163078986 -0.41478424593571145 -0.2850870038471735 -0.604184817422153
Ni 4.366064324462906 8.517775466561524 0.5021389668059443 -1.502285292726703 0.24456204714993363 0.22119740428206422
Ni 1.305990430162802 0.6904338559597764 9.678817922311845 0.8141840389955527 -0.11472673682163467 1.026186149931594
Ni 3.561209973793134 8.991192337238509 8.556052953705347 -0.4870836668310708 0.23272751640885078 -0.8483604277669453
Ni 3.938709434273107 3.9876421330909397 1.3386606960478056 -0.12786918774086364 -0.24289802918394937 -0.5122380546095113
Ni 5.337569466535125 4.598536586160884 11.729560300276436 1.2697557512612714 2.4153842983226146 -0.35941014004078103
Ni 8.35654921434231 8.407467182655038 12.887507413307253 -1.8376173087723577 -1.7491767593407617 -1.6481858840479806
Ni 0.023234177450112997 4.35161752766907 0.19172204217389255 1.0562544300718844 0.6087140727510741 -0.5681127542899441
Ni 2.4247783354196675 3.715939827712151 8.324079339509609 -0.061157288235610806 -0.9629838062414963 -0.9315027049140796
Ni 5.507035053183856 7.03417332046108 7.081309956219447 -1.8661128451088895 -0.35088204796511185 1.8365258754803917
Ni 2.0124760754376396 5.6224696198236375 9.675625646246111 2.621652334988356 -0.04550081264527648 -2.089048572238299
Ni 1.2237182525504195 2.9133224004169085 10.506898994020482 -0.6777080834222844 0.057518148821126755 0.05952206662503297
Ni 8.281108973536304 2.0798913536375223 1.215990614342826 -1.7121405325230707 0.6875330399325063 -0.23235804888457404
P 0.6512373661295834 9.254338410709723 5.57719708687738 -0.003409797012497353 1.2488943344312298 1.1574677057881162
P 6.9989231362841196 8.330218762121286 8.821189888979893 -0.3719630370051272 0.09534344719901645 0.2766620130082719
P 1.0614294617283049 5.864542011003971 7.518248198966292 0.251648778793386 -0.3755651525340887 -0.1745449945308478
P 4.260612028381962 0.12295715353804385 6.369468743565423 -0.37923720206903716 -0.259052784566941 -0.07039371923221424
P 5.09200188258209 6.492036299615736 1.2594148893508799 1.1204016541737545 -0.6443377354919547 -0.7303678757098454
P 7.223864422621181 0.084195931714478 2.9445349379028434 -0.6372301779128962 0.24919517504657085 -0.7911991480646051
P 1.483033594742751 8.15528203371902 8.73237005023998 0.5117603436421444 -1.231957706576891 -1.1672890627539123
P 6.3491434985536035 3.4245712376656243 4.09242708036515 1.3942395674696697 0.40581315278535274 0.44254264699590234
Ni 7.754723621453271 1.4528537702147237 8.144583947680331 -1.042117990670502 2.1819846955474036 1.6605642031076755
Ni 1.3294408435391198 2.3334000155701378 4.053685431621111 0.5681837167371957 1.4493678759023814 0.5503598011818973
Ni 8.60409274727618 6.882621761836707 8.443538504120733 -0.2669776958409725 0.47446777783927313 -1.0625790867383313
Ni 0.6782202543348453 6.006922183792772 3.3186398671619677 0.7038819136041748 1.2300787443866235 -0.6681366376837655
Ni 2.130967770689279 5.573294587640231 1.0409010295099665 -0.6947948637012422 0.18397631514707669 -0.060285170043302624
Ni 6.2411000995638295 5.369622714389321 5.7649308810847675 0.46970429501235883 -1.1652054407520063 -1.8569697451570406
Ni 9.405703559052885 9.402814199694117 0.920211557042852 -1.4694610471078304 -4.401652764578193 -4.61892435144329
Ni 7.806806654023566 4.492198841244187 1.8062186915863359 -2.0342660771807806 -1.0422763706252371 3.1334029084384873
Ni 5.767934882766479 2.606351269833038 2.155195514938246 0.7958821553625712 0.7937573957100846 -0.36625338821485953
Ni 6.326736982752067 9.138158202945096 6.869062277981433 1.0514122714882344 1.3425367397787393 0.2205687695591298
Ni 0.6234790111544845 0.5286437126399005 12.158436298360915 2.066626752899673 0.8410052729534548 0.1707922123566349
Ni 5.150926172472821 5.0034010759226 3.0449634769051572 0.701978783044191 -0.5583338205263094 0.6387982937309643
Ni 8.536136879260786 4.36976456854494 4.479355172868765 -1.8370079573231328 -0.1866777732386398 -1.4960136007853784
Ni 3.8138238663759374 1.5286295495269104 0.6859115425376026 0.028971961752317848 0.3973143712857222 -0.917499191546136
Ni 2.8494395970459707 7.474269353371636 6.6616696555175565 -0.7349691219272826 1.7700230066621518 0.18125274556832657
Ni 2.154772363599897 1.12577829080227 6.7811288201286795 0.3213069054111563 0.31653545216444195 -0.5049744310685625
Ni 5.173463175471206 1.7080121631360548 8.225069382747309 -0.8908245104684271 1.1218088189339261 -3.2601744922397984
Ni 9.10987976328542 6.8860517110109845 5.481951685744131 1.3134197678081252 -2.7874787186992833 3.2908747495371324
Ni 4.717279935292157 7.31610022976428 9.896795852594277 0.5018690526703615 0.07905499445163804 -0.004996681883643008
Ni 1.388887082217241 5.0137654875579205 11.73305269689492 -0.7837295791604373 -0.8888167360097788 1.4568698407063814
Ni 1.9292904874473245 8.320814363434202 4.262604754288105 0.12492938838624934 -1.872672243493962 -0.5351882356477815
Ni 6.6616416939753735 7.990952050317646 0.9571245209282129 0.3697182068350084 -0.538154517364957 1.1146922624938027
Ni 6.856104899334472 5.4221158495782795 13.6655233437397 -1.7774108144857905 0.30526399301568075 -0.8313682640843232
Ni 7.058397336504422 2.733594927787524 6.283622148810823 -1.4295433849772863 0.24308083461871685 -0.35614715301879313
P 6.117267749755501 3.0323080829137563 -0.007431245860468186 1.0306313301871413 0.76104884973347 0.35245839131329626
P 6.237893842727004 8.742931124721977 11.787400614381927 0.06553716247086132 0.16461282301880037 0.07145738461003823
P 0.44302453842837813 4.059260963132125 2.44711028710872 0.696274276460246 -0.5430848647870389 0.3728575237949385
P 3.2881561938755675 6.461716667376801 4.716062676155851 -0.1576944986324123 -0.23204668829174233 0.8396251047764766
P 2.8840559862668145 0.32483482783230033 12.578758860692037 0.12316741138982014 -0.3895136442943808 0.6823671794608506
P 7.698148101105796 3.797596851396538 8.742082957942468 -1.4194798300936973 -0.47430631256074446 0.5328266773941405
P 0.3329772289155876 2.644975480099914 12.643350955182981 -0.599985948849457 0.0189297470249674 -1.7342936715813422
P 7.090776802350736 7.4280955267157225 5.662892689304198 -0.689004225161394 -0.23959030496695513 -1.0469730047699584
