# total energy = -340861.83371072734 ev
CRYSTAL
PRIMVEC
9.35483090656688 0.00000000000000 0.00000000000000
0.00000000000000 9.35483090656688 0.00000000000000
0.00000000000000 0.00000000000000 13.69174063255681
PRIMCOORD
 96 1
Ni 5.116923991356147 8.399908267852497 7.547859064329333 0.35690048624504983 -1.2027522886575286 0.4922616114875844
Ni 4.032671051825868 1.756182362303128 2.913917496772368 1.0650447746700045 0.8580845970332449 2.8969997429502623
Ni 1.8362690676974553 3.11446635674709 12.765055614706705 0.7015800049438756 -1.0599408777845358 0.10919320859791518
Ni 1.9818582974663979 8.1937745739658 7.629503349030768 0.861836350766193 -0.5834969500554983 0.9933608758714569
Ni 6.10108024268186 2.0757433781038785 4.375168241471474 0.4958279886826041 0.7537934537226373 -0.24028038905544427
Ni 1.285662443926947 4.071895856839116 7.557101637034577 0.08578459986598774 1.0633092800361366 1.3529314527495022
Ni 7.934748667452131 9.109762174175001 3.7267821210541805 0.7071999222338143 0.5098464144488832 0.14856476841700222
Ni 9.16441309496856 2.274365142959895 10.393468523008156 0.5916067236468263 0.474917206671866 0.47824935636889243
Ni 5.875142372259736 7.618967003243403 10.452055021065984 -1.5786254593503393 -1.2739075686461159 -0.37148815425123766
Ni 2.058418231696882 8.340692189690357 3.4008504655648966 0.8213664156766047 -0.9293144390135093 -1.1026605281402493
Ni 1.2894137310269502 0.778719492324179 11.455892900645303 -0.8088315164343877 1.4832426742729552 1.7694568497460363
Ni 9.337019075722063 4.22902894765894 12.319992061558775 -0.0493896061767214 -0.2028546401088184 -3.021554264495596
Ni 3.386626445526107 6.394980957945682 10.007471370731592 0.07947665537008893 -0.48885130025445483 -0.3528769669079535
Ni 3.4527463887251617 7.846401646573258 5.464058370566521 0.026426312512328683 -0.12306122482925902 0.3834545825844945
Ni 6.41090287975168 9.105655403509411 0.5193212635497105 1.9070545776285737 0.086276966121374 -2.134948162983891
Ni 7.1082587322946225 1.2541086000658253 9.639669364114646 2.0210868594863447 -2.129711340064984 0.05176504838743344
Ni 7.290687285255116 7.817822638866253 8.340870866956216 -0.43494452293367025 -1.0396895837346674 0.16638971241356507
Ni 0.6607700452626398 8.858547551273556 5.156227376947051 -0.9043731956871393 -0.6971813616555477 0.1347476600282518
Ni 6.101894112950439 4.918030936410604 13.27412866125379 1.009816707434635 0.8440728561351849 2.6006551639113984
Ni 7.762058493222568 4.441916829291776 2.717851471656304 -1.2499816539581377 0.8532316398163177 -1.639934699782782
Ni 1.8558955024500894 6.177181790209351 2.0479286600628837 1.3759500251318626 0.4600919687335754 0.5696366471336383
Ni 8.931122327637205 5.8288266055961095 7.671577635467111 -1.4694553906808756 0.25620837313961037 -0.5950021224816204
Ni 8.83385079829598 8.37292893619063 13.348145952507265 -1.309348940172861 0.9212090362975555 0.5309325456952212
Ni 3.3829125777487974 4.41403943388527 2.628622290244937 1.0821516095536203 -1.165129336098432 0.5612417382017237
P 9.002022589310327 3.5895607873225264 6.319505248590237 -1.882485630039958 0.5610738451652918 -0.7765022081740627
P 1.1086877572490024 7.681532110786596 12.2069118038627 0.2446648912763851 -0.8635595041048869 -0.7679453197429871
P 1.307683715331952 0.7525343857864776 8.349469827311136 -0.17432902186529978 0.508004733254454 0.14813179464464166
P 3.0514615721622524 5.590053907490186 7.743116832075223 -1.9939676346720496 -0.06440870529337295 2.440028836344172
P 7.256233443885263 0.3967505301355492 7.144883829863753 -1.2867692551001322 0.39197804667447333 0.3151020621520251
P 8.385296022340766 0.4307338235225336 11.573805863867214 0.23268920697174764 0.5510863949352768 0.7305406538422838
P 4.247401835101348 0.07462629073030812 10.149577797040855 0.6007773344025008 -0.22809078896778784 -0.6284408617560403
P 6.725608738432975 6.093689926449933 6.67090355962151 -0.2902631487314743 0.7602875460874131 0.4612106557190509
Ni 0.6905184068038103 1.2755218074770638 3.355502923875958 -0.15395894284938003 -1.4594851668420414 -0.21733175067907085
Ni 4.556784795129522 3.71376487417225 9.117233877433785 1.110039851323456 2.507726753911778 0.3855821704504585
Ni 5.78107019500879 2.5907361615010416 10.97191699382861 -0.8472489398703215 -0.8349924911004716 -1.0766034260418815
Ni 8.77404536580142 2.087100142541294 8.013159922672866 -0.11793315957407431 -0.10170718463351515 -0.4558900148370858
Ni 2.2037174617149518 8.425287923469226 10.4952668549122 1.2828472943379068 -1.1980332859153042 -1.4482345336288864
Ni 0.530881027812737 3.9634827241659627 1.7849101118178388 -1.743272992261817 -0.4773204167967199 1.0826432044780578
Ni 8.254300328422207 1.5433131903316388 5.51814145313821 -0.7241041541883206 -1.2888251091878964 0.9664679081353548
Ni 6.665691047970333 4.658948900912894 11.234017833184602 1.232611023890174 1.125651589718784 -2.915077683497896
Ni 6.546894053249792 2.4567282121056744 1.2350097777631668 0.563669630916926 0.14274559063206385 -0.4721890091074255
Ni 3.7711848248451134 3.5306159992499113 11.497433961733265 0.47696483322951405 2.6283624000186796 1.8729036427784775
Ni 4.496558395254662 5.97925228282316 3.9787105175359994 -0.20202983021467788 0.12615477615291823 -0.2074844255713459
Ni 4.295859857989167 3.6708823303657323 4.838687940054806 -0.01880196319785149 -0.681264176204659 -0.4119786581661163
Ni 0.7605935724115463 6.017232895356856 0.004120802911599253 -0.7916470342353011 0.3803072952047644 1.8133275829870577
Ni 6.274827512777508 0.12337805530126918 11.62008421120815 -1.1839012173892967 1.1367474425216295 1.1990900093145929
Ni 9.09785347472786 8.709104131267203 7.268260014198888 0.66173150548837 0.11854765322962164 -0.06199829607966742
Ni 2.313823818739976 5.262868704690677 4.751841434015935 0.17818619082786086 -1.7809383680230748 -1.4557192720417058
Ni 5.4007495539848 1.7290346436891415 8.348990859980661 0.15845888760226257 -0.3325948196201498 -0.8518239608355137
Ni 8.981666477765176 3.074596068417383 4.051755841882516 0.4263673227876205 1.948096326061232 0.920472415241847
Ni 3.7048310108792255 5.717990571778566 0.02853316903670575 -0.23940467131871024 0.28436143853505863 0.9282955108306915
Ni 4.845792933951196 7.794164272093417 13.284110265582227 -0.26090449306369906 -0.612836322449564 -0.5737159594093345
Ni 5.479302067148702 9.426208031361535 5.522672933116366 0.2945964859995055 0.2666624785933988 -0.28883978602138644
Ni 6.024894501678308 7.675133406606042 3.8036198937556627 1.7102183757996932 -1.0882394676189129 0.4655313945815918
Ni 4.260582791520062 5.705988324024691 6.179164078829028 2.239897508703788 0.0561804038463097 -0.36372265137320586
Ni 5.949026824917651 0.3069235750441568 2.4984965955789993 -0.8961616064106244 0.8720333459038531 2.2714817112679717
P 1.6969849938023334 3.9723043294909073 10.30037860297791 -0.1389141327011156 0.43590380152314606 1.0082326507769668
P 5.632141290689471 3.748583553938362 2.7642663995250687 -0.703052475724344 0.6051988605089641 0.8845240221716959
P 7.979118629335707 0.8781014714653046 1.8524379570332288 0.7138649929588158 -0.8425080827512265 1.0349803511844562
P 7.286458901790772 7.136220321177189 1.2619460772039361 -0.3181601322520585 0.4457357000119033 -0.4192960177631359
P 0.6520466656597651 6.576137253934603 4.158660975851129 0.22390297613868534 0.6682261120737782 0.6867619660944366
P 2.0746862822377925 2.929745870271633 4.04907194096234 0.29683848795614687 -0.1996183925597078 0.07761517668131794
P 6.849784760790678 3.324706821299375 9.111058753706324 0.6997900029229883 1.3006262155878827 0.28564673300538546
P 4.805660710362635 5.946594568942586 11.776101270728647 -0.33325456469133574 0.20679228460032775 -0.339327510358293
Ni 8.383948926723807 6.433607053795837 12.144628276722775 -0.6130039583756798 -0.6486034527468443 0.09437954062385034
Ni 9.216538211480323 7.244352808930142 2.3213797154748197 -1.72554729284728 0.17943420430234902 -0.07441621012804603
Ni 2.99325581571283 2.3544424935235493 9.863406042879335 -1.6601985922381408 -3.2440613887280194 -1.4154007749283173
Ni 7.63849053485863 2.3088002746684007 12.490235012084195 -1.5603888817376548 0.9168744134779436 -1.1263043928114345
Ni 2.191228762766064 5.751705381525226 12.006807298344963 0.1129444481102313 -0.935376328936873 -2.4393729479277275
Ni 1.1977551000897209 2.1155201181268524 6.078955132656381 0.6458148342581136 -0.1740598273643131 0.2543710628205555
Ni 3.5177437522434176 0.5957483591846335 7.853021124757703 -2.1233661145732463 1.0372138685006653 -0.017309694923041158
Ni 1.067769727883883 9.031724176698132 1.2987133681993017 1.2104362875653476 0.6256738405338643 -0.17844098715114431
Ni 2.203960687312458 2.0320656736901284 1.7172176215825985 -1.3330719948214138 1.8616599515438583 0.11833245189502202
Ni 6.160445998134774 4.090156486313444 7.091527617635383 -0.4311025234797608 -1.3284123845622156 0.9271179455828227
Ni 9.072015432408138 1.6025666878164733 0.26384083786123014 2.6206424056666027 -0.043790771932705225 0.6233742458664102
Ni 2.59557260895915 0.6912724061560802 4.960901318937247 2.027505618528495 0.9999513846047812 -0.3578073143300354
Ni 5.1127985110292125 6.057832860479082 8.47767871717211 1.3454117473336893 0.36787035499299225 -0.7522734175336852
Ni 3.517818590888804 0.24145192161076362 12.301577077378337 2.1190859991406534 -0.22773417695931744 -1.7370550363765633
Ni 4.0598374801012005 0.8275891277616241 0.9228793039662376 1.824619610961109 -1.3051611273437587 -1.3658535601278088
Ni 9.068208016324096 4.657994708184215 9.915640610909975 -1.363687919935058 -0.7597769249995818 -0.6862472312415472
Ni 3.4481251023725394 3.2679417087736446 7.153194661433934 -1.516341770819769 1.4510473204873333 0.662161393936937
Ni 5.405080840586549 6.270917193556059 1.9098064561373886 0.2248149464299935 -0.6105580679383484 -1.2964201479263349
Ni 9.154768264544362 8.92438684955241 9.772863443241432 -0.014336985447962405 1.1933970726948737 -0.7609421489522765
Ni 8.092050145224075 7.211554772589467 5.367148873172354 0.38036463080526106 -0.367184127559245 -0.044171038090259414
Ni 0.5969953581133877 6.7618774169534515 9.643380425442754 1.4205481234572117 0.17486818219822142 0.244016973279741
Ni 4.508308062580356 3.506648923064855 0.40710913414012095 -1.4388824029900251 -1.0969961307656204 1.0357555387875839
Ni 1.3716426926454688 6.512992146889665 6.2864939221102105 -0.5833074597525115 0.3960172497408535 0.7638750063283554
Ni 6.914978575753073 4.597468953727809 4.914239423538707 0.08040868026605506 0.21839644449815937 -0.14759829073867484
P 5.395632461606492 1.9306967285139887 12.901603400629881 -0.1998654755735074 -0.7510853107628549 1.299259417147343
P 8.321514786810042 4.104001635709963 0.2948352628480874 -2.5377181580675456 -0.32926241281280716 2.132611030210282
P 4.2784130987834175 8.724015731360483 3.6043236456080994 -1.4677759460959239 0.9650360607848347 0.30597901680483436
P 2.2374416262922847 1.0866010020292842 13.610917533222533 -3.161322774777207 -0.309605300703512 -1.0121710665994246
P 7.865457436654819 6.835032192818846 10.181985736942453 0.1338598581066598 -0.7263667249702522 -0.9808473167854784
P 3.234086576566885 7.810750386877221 1.080068523770102 -0.30563757430501554 -0.4575501761483281 0.5202856075043362
P 2.276713205458899 4.208869287557926 0.8805421467879749 1.9122551479929064 0.9739354201569937 -2.24257376998437
P 4.639902465662006 1.9433163950923027 6.327733757650492 1.5451327269095323 -1.6882521559412471 -2.373858411164686
