# total energy = -340865.9900079757 ev
CRYSTAL
PRIMVEC
9.36028930066461 0.00000000000000 0.00000000000000
0.00000000000000 9.36028930066461 0.00000000000000
0.00000000000000 0.00000000000000 13.69972954406551
PRIMCOORD
 96 1
Ni 6.670357325126377 1.1492563001461031 2.337242668651178 0.4866895167164456 0.4145615884019441 -0.09518403880301672
Ni 8.978763751035576 6.022578515453701 1.1091025318095113 -3.4208892657557732 2.251897361378141 1.9099902632181298
Ni 7.68781139394525 9.310801287565 0.7669380984636017 0.7210957063793 -0.6436383954320851 -1.5277590115177753
Ni 9.328838564730512 6.247524983975538 3.8993953630300133 -0.530748454708873 0.6465468273281317 -0.7594025723792986
Ni 8.006959812334088 2.3112145126500683 3.836266765008549 -0.3597204721923482 0.04064168478076226 -0.30365782487082543
Ni 0.5062896151183629 5.709748292231818 12.054090490859018 0.36907543104468693 0.6699554360600591 -1.3264256931494895
Ni 3.5226980149738165 4.718343908079067 13.684083752810494 -1.9654744123283634 0.22046206877793645 0.43424364021190376
Ni 7.116421903913333 2.8161085086582194 8.521669943559402 -0.7264718830895488 1.6768238594996479 -1.9358846144863884
Ni 6.4640752731421784 0.4636038885704212 4.8548824457092286 -0.38161907203765244 -0.7107387886250082 -1.2401479556971673
Ni 8.651134910689315 3.8619336138490006 13.05803391833866 -0.9462898905255833 -0.014614664589381283 1.1147259439452157
Ni 1.6047841312497866 2.962999526073049 13.381649066703307 0.6809998667996787 0.1086764168624967 0.5703156754785339
Ni 0.35758270161110484 7.336463580927787 6.079748353411042 0.281448892873954 1.0326715005456215 -1.6378819310188113
Ni 5.12825905022191 1.2720352127460088 9.357901326469587 0.1285880681847592 -0.5868643238658345 -0.698947452417035
Ni 0.9359381188182025 3.522557610636773 1.9906115053294604 -1.892976245158637 -2.1244642327334318 -0.1704489700846032
Ni 4.38772913549835 6.377932532221471 5.299973554426018 -0.4050073690546057 -1.4611121609225028 -1.4871517795193743
Ni 1.6124782889197664 7.19455223733343 0.09787118320840248 0.5769475789727547 -0.47259164386248287 0.5774314605877088
Ni 2.2998792025060957 3.1345736259401127 8.891671876796455 -0.863299822685597 -0.17131697451185335 -1.4103981795074034
Ni 1.4224831400326055 8.179338897066867 11.67042908768547 0.6801483174326609 0.44669189327758557 -1.1217879929983197
Ni 6.599209767401906 6.617939705963498 10.18522826632448 0.6556917270521934 0.25042441946798166 -1.2348774513268477
Ni 7.8991480020630105 7.990607387213097 2.667584120789118 -0.15002309813008355 -0.6617155646487701 0.5081733976218344
Ni 1.9368591089357559 5.545409695867058 2.382012931589758 -0.029629135720342523 1.9367978703292774 -0.5079833930982155
Ni 3.3001290598925817 8.45648769810145 4.345924212158127 0.7338779457456329 -1.1828478364241177 -0.8219271732760811
Ni 3.1198498911288257 1.8583637242393458 10.576972279167164 -0.25533034141003125 -2.1131588350229413 1.4689769083825603
Ni 7.952033635682701 8.63878868931863 9.194107498932556 -0.6898470327776635 -0.15375891102343198 1.056106334529794
P 4.126118414429906 2.4032635960157367 7.555660959862153 -1.0173502968075188 0.22101177063381935 -0.33102541825050086
P 6.261621579414698 4.949973623044172 8.790540504881903 0.1946494785902067 -0.13958339085399835 0.013905554337498634
P 3.3630021220206268 5.356247612713022 6.9291178381528375 -0.7511079364706741 -0.16325219522584788 -0.6186950952231861
P 6.6113687829898655 7.375711273275992 4.751997891639462 0.491472797037702 -0.09488733349820433 -0.7228885366136647
P 3.8455999093062823 6.735139886238212 2.677214922281383 0.1412440663858729 -0.2560219681604171 1.0014943036118689
P 7.755158674280412 0.005950335803900292 11.29311115245954 -0.31880959291059935 -1.5922278806251224 0.937981627770204
P 7.879659880081383 1.1450254494565282 6.2100463862740805 2.6561164302034963 1.571986613877583 0.20110628995914398
P 1.8431345338147025 1.0261497774264294 12.459807543324263 1.0019025947938809 -1.219580673068777 -0.6761831621373259
Ni 6.731189844222724 2.2943004701809038 13.693181017821995 0.021190775145002214 -1.8039032043493641 -0.7421183313775541
Ni 0.45641799460053883 0.7391586323651035 9.843885666364729 0.0003550693465735821 0.6651832114823963 2.174460105035584
Ni 4.534049175275869 2.9642350842390313 12.675112914035786 -0.9549637641504973 -0.9122513128836354 -0.8862037238669641
Ni 5.862732857874332 1.3852011084030085 6.913622815516725 -0.29119105986238236 -0.5544195730735678 0.5433823414227997
Ni 5.081560567721267 3.347220674536946 1.6035392127946684 -0.5863740144929772 -0.9397749722252009 -0.16680957355980305
Ni 7.262133524896998 1.7563646535218669 10.435152666406342 -0.09337861016316176 1.2809307940414845 1.6393353756358862
Ni 9.13403222722733 1.3522154494869403 12.69267562454209 -1.261641606794569 -0.5498594645067111 0.13034207476138843
Ni 7.617506262243039 8.48770426237077 6.880277721497826 -0.3245619220133442 0.8850953212941338 -1.4291075829914484
Ni 3.743301309336444 4.54491647096303 3.577958353947367 -0.07338725464289943 -0.13037832731596255 -0.3785594592757222
Ni 5.078855444160897 0.9799473902500068 11.697733051095845 1.4416568804113687 0.2620005543413552 -0.4687946387138959
Ni 0.701195171686389 1.0960898578523268 7.547865711069501 0.0089662080543523 0.5379241465217058 -1.168188177529414
Ni 2.514051978232134 7.805751037061726 6.646190930634463 0.4916710290914371 -0.45894679938553856 -0.4824564524717046
Ni 0.7865254395100729 8.199332474661851 8.458993447503218 0.9635736173066952 -1.0429050053481717 0.028345898132544733
Ni 3.6612677353465397 9.070934518160016 12.908446201623683 -1.274014012316993 -0.8870624723228336 -0.6457803814757525
Ni 8.721421321813253 4.847197648328384 9.135842507146277 -1.1358077043161796 -0.17473062817909263 1.6439839301514914
Ni 3.9856204744951205 1.2732426900445826 5.2795746763114355 -0.7969378503205953 -0.2246668508879034 1.4473022516226042
Ni 1.0838840408186852 0.18294778719649454 1.120866543195923 -0.664280754272785 0.9192434279307523 -0.8583905583094378
Ni 4.455937562434045 6.621197086582906 8.316694587938622 0.6691432245714088 -0.14049844646909995 0.24634330742007252
Ni 3.3156296987021756 8.42650669199811 1.4370608543333674 -0.30406457339094084 0.21157402225968724 1.5248963452579996
Ni 7.219272760942209 5.158427262107973 3.8985183039379487 -0.7129460806889723 0.271063692984888 1.0866458978795477
Ni 4.677954260456242 6.669674024019432 0.068873943493281 0.7444243538029115 1.6969396564129162 0.07084340517512315
Ni 1.9063164854842434 5.803763036316093 4.971015553022411 1.5722357537739116 -0.9922938680595232 0.8895132478561713
Ni 0.5338416261908507 2.0054513077260365 5.111588375270288 0.02344640394839833 1.417259682513927 0.9241413794530019
Ni 8.76681872412396 8.155563762660847 12.683346224360012 -0.45201973324840217 -0.6751755468084178 0.637699918460463
P 9.08221366656917 2.7406364973528112 9.38935564208297 0.7958651860817068 -0.3920358964956023 -0.9533737939555581
P 5.8021998680303435 3.3829301775916565 3.5450101361878437 0.6985530451920938 -0.17667978148566346 1.3695477211499445
P 1.8576617025541289 0.31584610838157673 5.319303487521242 -0.10940558171903739 -0.522990408030009 1.78367222201447
P 5.714400355932523 8.358766279519227 9.166790431117388 -0.8391743903923031 0.6260469076025669 -0.7336102939065431
P 0.9099745488121326 7.883076385616107 2.4720336402996055 -0.8674557538354996 -0.6415835697855854 0.11269865064801235
P 2.442155597376765 0.40659130347056865 8.938594070207452 -1.5984242392438213 0.1651123883630382 0.9141181908890451
P 3.294849856819749 6.687364970486903 12.169908156428312 -1.7288745574483 1.2198609233133573 0.026470792597018924
P 4.478683065035079 0.8940161918637771 0.808989197408107 0.848851508470751 1.0994057686483774 0.33082307243170767
Ni 1.361098363877221 5.73587285921103 7.850931280664472 0.651549936969678 0.4406127769630412 -0.22663631590944838
Ni 8.472746520331077 6.616760309532333 7.682753093696032 -0.9572733861202805 -1.1536899839132388 1.9851279248932328
Ni 4.630825204655332 1.2031247641250968 3.0901796466248097 -1.992324442641672 1.4880562936115147 -0.30025882649160546
Ni 7.488343632452225 6.118287471871635 12.29617845687603 -0.38179622104546507 -0.5904445850179251 1.009914409354764
Ni 5.516505123014385 5.661627045782468 1.931373979501926 1.4924089141532555 0.22304139946933846 1.1398165683652561
Ni 4.803691024423196 3.54055744664574 5.490303801664255 -0.7044884368399221 0.391749475603435 1.092518811720557
Ni 3.595099851442542 8.015000300702107 10.486457347190921 1.2617485646860787 0.5874587629167237 -0.8379695714509247
Ni 6.0348592148004325 4.432059464847526 13.57893868891433 0.7475500439160867 3.0116999974093357 -0.5820291072607202
Ni 5.341683002817051 7.961890020143149 6.41510411243926 0.804635476075169 1.3266174974453218 0.8414906972303056
Ni 3.0843556747242484 2.4530228930639257 1.4451294235687961 -0.6859045031901478 -0.5339453643796159 0.19290447087464196
Ni 3.9444820037413972 9.225229524281602 7.703494558393 1.52821229700511 0.6776270936727039 0.19387917608308544
Ni 5.549593745110952 8.527953505656551 3.162897860866339 -0.6401193265352331 -2.559894951274901 -0.8359116604806313
Ni 2.7456255314624207 5.331938941826237 9.692092665529257 0.4058851436738687 2.1353430844294645 -0.17272002550696705
Ni 9.22895491935782 9.326545293892137 4.383844615506815 -0.6592005115364001 -1.5191249899918613 -0.4001107030839367
Ni 2.0548736343653218 1.041023276863896 3.3175260932811756 0.19336007035482183 0.46543600665430807 -0.813389053898083
Ni 7.3742417078816045 3.7085278351953557 1.917469269990059 0.9820955873702828 0.5164852599216395 -0.36902220920924833
Ni 6.610704202461195 5.511544169772184 6.70775729639909 -1.3416931608315215 0.4467901094183466 -0.6171812296818209
Ni 7.09124272613688 3.2804443718390934 5.898007107484208 1.6263032250422766 0.20356015081627524 0.02359552793175291
Ni 0.7041670634871414 3.175721456982972 11.286508404502845 0.74435339135566 0.08462091857518975 -2.220812467047878
Ni 5.893153797567074 8.179806911523679 12.120698308352418 1.0028104513201312 -0.5677558851711577 -0.030124844409838446
Ni 0.24270012892652112 3.7290643095602407 7.2915023680908275 -2.974318985657716 -0.7947123034241861 0.3720489118507141
Ni 4.925140775965758 5.5330541142072365 11.447219888827316 0.1663640013819522 -0.066104347828241 0.5962491075148441
Ni 2.043781691738891 3.3063255713007647 6.3428791854352085 4.112823777190084 0.253712346190634 -1.2980576835297581
Ni 4.9189536248467105 3.641171194571058 10.098180385444298 0.7432390752455587 -0.8484311331038809 -0.5715508334372156
P 1.0156100918590365 4.978896916475116 0.30436290566925195 3.57880127971563 -1.594688683460789 -0.7541716629976624
P 8.56555378711678 1.9005318267980542 1.2012227533726152 0.8297045032286549 0.6884992605005176 0.25480917879923853
P 2.905134218632886 3.9044106059492045 11.095328243011037 0.06056439184661828 -0.7993374609010234 2.0594831998763565
P 6.918236502031973 3.786236955604323 11.702939243913416 -0.831256163986491 -0.17164633282681405 0.08113090314406028
P 0.014900644275961734 6.66096895512274 10.033668336688498 0.15621611431467292 1.3327074123931435 -0.30899620636460334
P 6.8283215645893645 7.280826022302047 0.5035732592110294 0.19358349921953755 -0.7531136540467933 0.05945393239125891
P 8.686582325648212 5.247275126589052 5.900569018620794 0.00781075429367042 -0.10170281375814097 -0.37852577782430935
P 1.5869340598669994 3.7953445169338726 3.989059444723771 0.5719704374731375 0.016318534654365446 1.0380780162731735
