# total energy = -340858.0584663242 ev
CRYSTAL
PRIMVEC
9.37354668729310 0.00000000000000 0.00000000000000
0.00000000000000 9.37354668729310 0.00000000000000
0.00000000000000 0.00000000000000 13.71913306947428
PRIMCOORD
 96 1
Ni 5.421565625394234 3.6536397458417604 8.352428064304645 -1.7232402419806578 0.319472680415895 -2.4387579400515484
Ni 6.513508817415925 7.010634862027318 11.290722788324366 -0.23585732028708412 0.7868778949814319 1.8164897827651234
Ni 2.3882390737496673 2.237503070668762 4.810051379402505 0.26671415776694063 -0.9406110949732509 0.07470623056463907
Ni 4.25300306335928 8.821922768210738 11.241128290550549 0.21730501120619353 1.0179701897797049 -0.5098191607553736
Ni 8.893105481188563 2.470969996154497 6.791396042945196 -1.28030215931855 2.0370233282109433 -1.7599743641768977
Ni 0.1340098465049728 1.5246635978563332 8.58799935100496 0.5730960664371485 -0.05215637028858114 2.174811831948048
Ni 2.3841428338798614 7.877387970222401 9.73819726051606 -0.7212016358295451 1.638188663625953 1.4328007155723195
Ni 6.1045316051515774 1.9062513069179938 -0.0450905086263532 -1.0679694045159671 -2.1114490514206863 2.5306841340388995
Ni 6.2226851602062885 1.1669409384709357 10.022252279716573 -0.34690429426428643 1.0045436319611538 -1.6019271101907573
Ni 7.292328684836058 4.287572703267394 2.103321688260775 0.9789346731437979 -1.557094527257099 -1.873566730283773
Ni 6.591496725234663 2.642787105567655 4.028047318197994 -0.2737180998885996 0.5736061733043476 -1.614481035596368
Ni 2.9886147343013723 9.134755512867297 6.385323692776164 0.10852909265135503 1.5974456773806358 1.3438122640570533
Ni 0.4251568910727517 7.783774360200075 0.7799081361818826 0.33916681641071267 0.23531404618910445 -0.8039744454524025
Ni 1.9865919749365526 7.422039822864387 12.69380586248434 -0.2856271926213597 0.02268150075791578 -0.4420343399009161
Ni 0.2316015897097819 6.081050870886441 5.52281492648737 0.0782407260804588 -0.8390126680034582 -0.17110845804547306
Ni 8.547137249255654 2.328351484440302 1.332591191567513 1.906463481011794 -0.9917670490217758 1.6703657625791297
Ni 3.907859703528299 6.09363954398747 9.998339424952585 -0.9922666143660137 1.0390750900791201 -0.9753060752522753
Ni 3.8428541577683286 7.1476948606001045 7.877306420366868 -1.1641836843557112 0.5909150968964404 -0.7851064049033059
Ni 3.1996132685561562 4.746923355029084 7.976358562133956 0.4171193218267913 -0.7934694321560206 0.12206055147888656
Ni 3.4847096887853537 2.0147219883216523 0.29118453875423017 0.19908077488868295 -0.10313671799119012 -0.02566089510121387
Ni 3.67799221994189 8.966256638955082 0.8397947881365866 -0.5709461099736812 -0.2825434114897134 0.08044004772462275
Ni 5.095300588441492 3.9397203884653047 13.68240664045425 -1.240892804282992 0.823280601980182 0.11547389940030435
Ni 5.941834956592702 4.961661934382387 3.6552979262375693 -0.3541242090514934 0.40446023830188405 1.4302339832864077
Ni 8.024665134603172 8.979089024268045 1.3558657078071679 0.2577811169433689 0.2215679002476055 1.4169596347750049
P 0.9802855047696695 4.449594456470145 8.310131809923575 0.1053884901398443 -1.2028301930833156 -0.044665204117858556
P 5.007864145637022 0.3005749577509624 5.272358447765883 0.6295592916311997 0.05987379353749688 0.09922709852413877
P 5.185577215869649 2.956604072618561 2.369060797379819 0.04354394602922178 0.3189636019899604 -1.8174842854679087
P 3.5449066051329425 2.548367370536627 11.870905017408052 0.11702401749624362 0.16661391260922917 1.2366754237675346
P 0.5262355936175332 0.1167859546038993 10.236188483479816 3.619695189716514 -0.4548590024694102 -1.8621191505684638
P 8.447233989456121 7.5706011631311165 6.674659768138344 -0.5285344777766898 -0.20208356627074875 0.1948842203088321
P 2.589507866620334 0.38818762323175365 12.520917356693333 0.8731746585971478 -0.835925287327386 0.28502144071656077
P 3.58634705470826 0.07480933816232793 8.671452036498977 -0.3595070706299615 -0.542333074222679 0.3920397531503442
Ni 7.674703771813196 9.401011104404711 7.523174766688846 -0.566166943417483 0.10210467718224996 0.8879695575181352
Ni 4.288959988166092 6.942845372923337 12.408214518993983 0.7418812756660835 -1.179721374979994 0.9469439791698141
Ni 0.30503395387468524 0.8582147445854571 3.727735757106852 0.5720429425822857 -0.042757188461868295 -0.2997890859440386
Ni 6.995262245582277 4.004229136254795 9.949280156690358 0.30190896050051874 0.9986450070885315 0.15072166685900493
Ni 8.011495301612147 0.7644089768575696 13.122035402136776 0.32881529797305953 -0.9443865028552831 -0.5666397692888434
Ni 7.910589072325041 3.361428803733425 13.282658622184893 -1.1683090193779944 2.9430404872594087 -1.6172179749115567
Ni 3.4396416766708713 5.999604124367568 3.9234254150335626 -0.029919156156935564 0.6885170011123304 0.015368512036270305
Ni 8.344124976715001 2.087938760914461 10.736620577981553 0.6086644504600615 1.1296815368137834 -0.12013582365234794
Ni 2.925240185652035 4.702333393791856 11.64002612814212 -1.296136812357961 0.83624513256065 1.6240792208077643
Ni 0.34273623306080647 3.4253095238998554 4.375086009154089 -0.585759777947746 -0.3849831034138789 0.00937655611889353
Ni 2.390348121737554 4.531106817815307 5.650869758829212 -0.6399478339543753 0.8107248768023586 0.37510235396505726
Ni 5.289698571644955 6.172611674200556 1.5643793148548906 -2.046923618043791 0.20528973191287225 0.3591692276745685
Ni 6.176754781803425 7.87645998910773 0.2143383289129345 0.4050747319574314 0.3359146280220021 -1.0609199538683536
Ni 4.221254860981627 1.24773153672691 3.257333693888635 -0.24550384223791263 -0.02898018928243396 0.5038768271290096
Ni 0.47839957318828236 4.552112935774657 11.94113350334069 -2.1534439077952334 0.4084313071344901 -0.668347468142991
Ni 6.871831383784543 6.375670814474272 5.460557704594281 1.4678067993338593 -0.074898034860471 0.535511166204839
Ni 3.41041495833207 8.491477129468674 4.144097449392786 0.7523019567787753 0.8070667112244809 -2.523944244211905
Ni 8.942607180850915 7.9322325914540635 12.291822253347823 0.6240211354217898 -1.681339487981814 1.159804324341093
Ni 4.944658320826715 1.3912030411828722 7.722966288613331 1.0297275874259493 -0.2791081605559193 -1.732125974506062
Ni 4.155086995441667 3.5316524102224016 10.161597548953567 -0.6218475248092387 -1.6831032647504562 -1.7575775818099473
Ni 5.669758392608724 7.8117637703859835 6.858428149482859 1.3874294865263717 1.6072999444668965 -1.496355043285197
Ni 8.333270409737345 5.440415827632633 7.6378938542646155 -0.8303755611537506 -0.6282071484786793 -3.1135128543827797
Ni 4.0158054663216385 3.7707340901292214 4.045963915193755 0.25987039537222983 -1.5396465069839806 1.6042292759613725
Ni 1.36329799291648 3.02385926956561 10.292504751529693 -0.7799246035920503 2.430657422431601 -0.6061501686786399
P 3.225727969419498 5.695882467018678 13.818185275205064 0.5972736921246166 -1.2321171149728911 -1.301346895803991
P 0.9319414381140032 1.1962988864623163 5.975807501581579 0.25399696731058835 -1.176102290170168 -0.048061374283601105
P 4.061754591817727 3.067080692997365 6.1381048370547475 0.38460823657296345 0.5390140371517749 1.6507500452307313
P 1.6339404042686951 8.943760127084293 2.23861946007035 1.1449855141607055 0.3201100568895777 -0.31893274875202493
P 7.643068051994898 5.057318977566307 11.56996261662987 0.6588444137485621 1.0084776769082373 1.2594870223454115
P 0.08145143329217863 2.1869234131459363 12.573914451887608 2.6316498125207 0.9157804090828164 0.052451532931496764
P 2.613419784029661 7.240268006948404 5.551927287557494 -1.7412652178031687 -2.885735740000669 1.7194131549250842
P 5.366571027416766 6.973131302029388 3.5912850390638984 0.8535527706011622 1.884261490993458 0.537774508317719
Ni 0.3223750151084191 7.423961399920017 3.0889173071866116 -0.05429527100845488 2.2821191363771596 1.164967099488955
Ni 1.6124187412456397 6.519985938125389 8.118612442884912 -1.2465428034799177 -1.0284644044428093 -1.0698781915029059
Ni 7.77110132517953 6.556852096953646 2.3291791686062147 -1.058757398999396 0.5107059342357012 -0.613496324631066
Ni 3.473442685756733 4.385188817693396 1.956897516621771 -0.6417270373419851 0.018298026978239453 -1.7033437601670471
Ni 2.3386905063542525 1.1323806721094347 10.350537315964381 2.0472367784088354 -2.458899705106746 1.256618185438049
Ni 8.881576018854783 5.917885544996924 9.594599213180823 0.8825620133493187 -1.0288323293051895 2.85904846051747
Ni 4.961465089903518 5.562403163251992 6.1767791530246186 -1.941299871964689 -1.3000855125930642 0.5161476740765627
Ni 2.2732256568102542 6.640567241752823 1.6212720560214566 -0.09076996889572109 0.8409332820649389 1.1822397705264736
Ni 6.128790343785578 2.650942091120816 11.630998465399307 -1.1901639104695567 1.3134974151235959 0.29880358210231767
Ni 7.317534151677955 8.135882265164389 4.1700265540331936 0.10236178749837853 1.3656123906512805 -1.0813422262784476
Ni 8.846847028654253 5.769389819556484 0.25173690518880015 -0.5960231075469671 -0.7883632212777067 -0.33415753612157933
Ni 5.864175122905412 5.9547704509184065 8.561150701441832 0.4191813465621427 0.6254136448939422 0.31773307201696893
Ni 2.773613695642911 2.225992355428208 8.370962378022192 -0.15800457367366336 0.4381560878924325 -1.3591082709841755
Ni 0.6981464384968193 8.722863127606361 7.907132108334229 0.32017690557177114 -0.07209347553214035 -0.3090663974809064
Ni 7.312838004824927 0.9273840197508457 5.301278651130444 0.043306376097118966 -0.8420108313998338 0.3670694563582517
Ni 1.1274783072309251 0.8405540454122257 0.33850970089308186 -0.10596595990986912 0.027759429501455418 -0.00581840645398998
Ni 5.662793847475393 8.612039686002882 9.056465776847627 -0.5800840677192074 -1.0420768530199214 0.07097607409824551
Ni 1.0087904600192827 5.421687481500202 3.3405398551067353 0.3228426253293924 0.3384939587134041 0.8829679905384858
Ni 1.640267548232355 3.8338461794734 13.708720060505781 0.5203905085133167 -0.6813991591206264 1.900038551322057
Ni 6.683113769828455 3.3512866262983443 6.149477761160093 -0.6454782768543013 0.7695787415813521 1.375937169616056
Ni 0.5466127465991625 8.424653115665816 5.3066974984273205 0.6681518071924171 0.671200878431386 0.31780274891263977
Ni 5.915195337119042 0.22412149951274427 1.962562888194565 -0.4228078875711363 0.16158637748765073 0.12730303082474848
Ni 8.088199033544926 9.188175355013811 10.704092496525714 -4.0756420259334645 -1.1148874092237444 -0.881618932709759
Ni 5.27384790432266 5.0165627968937265 11.26679681059512 2.570365768899238 -0.2089854355969046 2.1206302036993216
P 7.877744164993688 4.655615637473516 4.7803906658555295 0.7336372904897365 -1.465546799655089 -0.2639260534988422
P 1.3629324245985797 3.8023041951212297 2.2614065518861377 -0.1884855158713399 -2.1945956994431945 -1.1138299144935075
P 7.470107369894975 7.449907376944329 9.534194204098432 -0.2734640748962645 0.49705389066990524 -2.042104856498909
P 6.33938581553601 9.48003010235086 11.91310472425901 -2.1670329593335778 -0.3234347503874365 1.1738381767263397
P 7.287210728385452 2.814482358874846 8.33744632475336 1.895244215257207 -2.6130363111845707 -1.7186127705109755
P 7.742193307425565 1.2151303416074901 2.948502516281093 -0.9780936652997414 -1.1961571519385141 0.1456149417600589
P 1.2852538438180647 6.125809555962699 10.754112553315753 1.93218865369204 1.4793801059937557 0.7506723915951523
P 6.643051231605224 5.349961102818833 0.24056270027164653 2.0725174073524952 0.8603006308479572 -0.1837775688727093
