# total energy = -381170.418291985 ev
CRYSTAL
PRIMVEC
9.20432598379005 0.00000000000000 0.00000000000000

0.00000000000000 9.20432598379005 0.00000000000000

0.00000000000000 0.00000000000000 13.47146146480458

PRIMCOORD
 96 1
Ni 2.836432650261844 2.3763084037215725 2.7303150577275885 -0.7242854169611913 -0.6999290996040138 0.045787233537443725
Ni 3.6305542669602833 5.2694120879091715 13.27691965014126 0.8122690813610269 0.44925322624685854 0.1442550852980548
Ni 5.398861725903617 6.472481899722318 10.366451084906995 -0.9412849811118241 0.022408449602187217 0.5892945305738819
Ni 2.2988540021485306 5.941272645059812 7.593417830727755 -0.4433911110391267 -0.36014264733143136 -1.3891603531745493
Ni 4.428781012963722 5.1266806077911475 6.352952684070762 -0.24863081790266855 0.8915184512116581 1.0506617664754552
Ni 7.499647841248785 7.296462349302867 11.436165863290467 -1.078370545244633 -0.13337854759486706 0.16867413757236757
Ni 8.607646171915412 0.7892875047903986 0.6178753454921495 -0.046327936532262144 -0.9922568441740008 -1.5080311940715447
Ni 2.29331299801936 3.631023687575877 6.660896289630873 0.3960429607724663 0.5560499095881392 0.05782770964174557
Ni 5.199229103714941 0.1171066371020578 7.53446688530234 1.1324002212965272 -0.5873037253960981 -1.3096860117973057
Ni 6.223164326887024 0.4859175287183028 12.576161191721608 0.12838700791754662 -0.6412575539047343 -0.41244197095578
Ni 0.9925944938368242 5.36062695654718 4.446983487657822 0.2467359148728009 0.8223136100812226 -0.19913759626854735
Ni 6.477949269245121 5.152958957938627 1.565626364051034 0.3408159219783614 0.6458999377727521 -0.23118819694618892
Ni 3.777786662392533 1.0439730404298986 11.591491622395107 -0.9442975426859028 -1.1860856266351252 0.6521947696425284
Ni 5.348854623854141 7.136785705394472 13.287049931112298 1.2425683922132018 0.7514540069561831 -0.3945064695232819
Ni 2.6826651835144593 1.1529246448767319 5.613598646723471 0.6741913285182777 0.760841104598038 -0.359973982964051
Ni 2.0816043003863776 6.522120828739955 2.443574537071062 1.874160140893398 0.7716857606220259 0.36519023705766784
Ni 6.788733329745866 4.619227718008027 10.050680120689995 0.07205748008788235 0.07792885126699482 0.6936039287169345
Ni 7.1693506100605955 1.729787355487222 7.298285726243047 1.0100877017078345 -1.7872113455159802 1.504232646261061
Ni 0.7332911479454887 1.8134270639951526 6.830313871529136 -0.7664245122230865 0.02659394843844452 -0.785278411704796
Ni 0.41777330268787877 2.212094027195768 9.011909365199976 -0.9311581770904673 -1.030654984336225 1.0665321578488085
Ni 1.6548273262048865 4.479818999502346 1.2210421783623475 0.21298195835080738 -1.2544324906406397 1.455155943339068
Ni 3.5597637972635194 6.3199017910026125 4.55204718488844 -0.9144573193960186 1.4243027054036372 0.9472206298699687
Ni 8.986533038980502 8.777153035773898 5.954843503013382 -1.0406673742669046 3.288540702087317 -0.5050623627966786
Ni 2.8225617312873252 2.3111785943893275 9.257682352171242 0.4274361303717671 -0.4002765392378397 0.070975045656981
P 5.167529405673639 3.6305726756118752 0.11288829458976722 1.6082733641237594 0.03080387275473405 -2.0401826997755315
Ni 6.04916575204011 7.361767040825235 6.423758801121379 -3.0282848983512105 -0.6961110114095044 -0.08236734665432266
P 3.4951402258500517 7.532875457372217 0.7281496115558628 -1.0458792574851472 -0.2871551992301119 0.43303393617451874
Ni 7.390070342647826 5.634124293248473 5.915062406923223 0.8561680967368223 -1.339588455783693 -2.35627412242402
P 0.1642493529638294 5.798633208199749 9.264862646724676 -0.6123735238805325 0.45071207018057213 -0.5441156200443984
P 8.136955359361375 7.820529047147704 13.35300628890102 -0.47425566182846707 0.9340712369722043 0.6965987496792002
P 5.237657163913092 8.559654817215254 11.00720746389533 0.0440288560854403 -0.004779680776830478 0.2550426349662834
Ni 3.5506146974223305 8.74859201282902 9.545647968591213 1.4398514517715137 1.9865438314041528 -0.15173442439423548
Ni 1.503719909612535 2.637195814082394 11.24123389028579 2.2115151009063525 -1.1073358221287317 -1.2260143445092626
Ni 4.272979390215429 6.834423602997035 8.34763133164005 0.6767560039216604 0.8234446383618721 -0.9772796540388784
Ni 9.20393000995539 5.871384199291052 2.127951762499378 -2.198323284806427 -1.7458027006622063 1.3715547242776445
Ni 3.1917104216602823 2.682333827785804 13.486953160479375 -0.066158340994628 0.48870860402900346 -0.24468288899851406
Ni 3.8891221872205213 4.454194156486381 8.893037338410252 0.9257935703444443 -0.7932156642740016 -2.4607048766362847
Ni 1.1631782638134365 3.0735636957432804 4.632013446971201 0.8613658388876777 -0.6391932151765379 -0.5181261379591722
Ni 6.488129253575457 1.7908396484918554 1.0399884877928256 -3.3218634846091626 -1.4086624277632191 0.1696742967021078
Ni 1.3334398823871898 6.788300726433455 13.426035250631362 3.213687918642485 -1.9667044280807227 -0.6855486625126258
Ni 8.73237399077653 7.606850623794386 3.655009240167581 1.249488516371803 0.846430043513452 0.8329448645428235
Ni 4.26244043717905 8.68949103689313 4.235427581833053 -0.05464545525902202 0.25306494241462224 0.3565024794756828
Ni 0.7099232056146936 6.984822286503096 6.197006553407473 2.5021947683499555 -2.772731899407412 -0.7021739297741326
Ni 1.3176084420181307 4.143373278682452 8.728846893131516 1.6997755831998145 1.0496544082568633 0.5760713470153885
Ni 4.603009695955537 3.0470552374509023 11.261589256783564 0.5518803515914819 1.9511731652143427 0.17763597475134568
Ni 1.6303990455423965 4.525693359269434 12.490281150314939 -0.9843013367723501 0.383725576857694 -1.5467190975600458
Ni 6.737888634048957 8.320333142194377 1.627190417569923 0.6415074651320113 0.13965820995599174 -1.165969315501224
Ni 0.7104147166121982 6.5507278733138135 11.2109636240406 0.38141749754980764 -1.8085319613706274 0.31154699781091505
Ni 8.190358857629562 4.031052890994295 3.7841063524840424 -0.2556609852765726 1.223159391558971 -0.361377548179797
Ni 4.291710193210218 0.4295990204705341 0.742130982439933 0.8976191647927573 0.48245285292727874 -0.539441868717813
Ni 8.335345397567597 0.9046766146989295 11.48724987145807 0.4229446702593168 0.24686061337612322 -0.07143990110854148
Ni 6.331756962627815 3.5794886674442714 6.434199267871742 -0.016490541455855472 1.2035259335987596 -1.1052519430165093
Ni 1.4674456616506386 0.38601929912438043 10.336907960399685 0.37611588283123615 0.48122335139555195 -1.405804903709766
Ni 1.9222682165324343 0.6816530393649679 13.29044540689843 1.6049129322919584 1.4722524938100388 1.9540337745915894
Ni 6.310955186328935 5.225397001952868 12.22311454889611 -0.37572944602609487 -0.31617164106712 1.4723018589907353
Ni 3.2922860896327872 8.195043859459707 6.4620708868145025 0.5278076269129942 -1.889525824716191 -1.0749088119482777
P 7.063077464420387 6.384856718144734 3.766122020311307 -0.6860253450387281 -0.686360874001276 -0.6284066660839951
Ni 3.2194706682609113 7.79706722069379 12.018321981666217 -0.22118969097258037 -0.14621349457600624 -0.5717305535481896
P 5.728496245634497 3.3026317518274517 8.693511486400809 0.25080751383901323 -0.06034379119537994 -1.0496646926695083
Ni 0.7536640026622766 8.660930013948253 12.145330632459574 -2.181210279275224 -2.269200114322647 0.3814138980053818
P 6.886253161554111 9.083316524725069 5.796149881099996 0.875520533121505 1.9227298222719855 4.296649168581594
P 3.2686585853145464 0.8236058335206526 7.719578763115303 -2.147556595776521 -0.3576869867020872 0.44157051289062016
P 8.70092280953172 3.7594056237779916 5.850480254975837 0.2255659656634051 -0.3852116744849173 0.7820059116011113
Ni 8.282227233399086 4.266490340529274 7.991499398807747 -0.33135734766862285 -0.09635517629298244 -0.23987338342501272
Ni 6.742858969978778 8.963282912019894 3.8925655255007916 -1.2934109287863658 -1.3022791778102734 -2.9776940727775365
Ni 0.47404578930666763 7.978042674494046 1.4298202186618947 -0.9355637623573306 3.2744957939584767 1.6866513871130306
Ni 8.524089302339647 5.712563557681683 0.04461704886335888 -1.1435351548674242 -1.1872338813069554 -1.902840539547226
Ni 6.968641081753791 2.2483774794834606 10.13394705400319 1.3391164012432808 0.2671964967199979 -1.3380177688624633
Ni 5.054932888211603 1.320397352734308 9.530048477232212 -0.49198187546363653 0.08228250025000022 -0.1990864313156378
Ni 2.3403010812077594 7.081256007867418 9.523743514061975 -2.725424886791332 -1.6769213043094606 1.1167267764253284
Ni 4.09440626544792 3.3606005956904372 4.9743637427892065 -0.9247985534210266 -0.17257707217119955 -2.2570609078569515
Ni 7.851161043396674 3.257779072223716 1.5187459714744476 2.938475750706862 1.7112848693909946 0.020420986858513217
Ni 5.627009349408192 1.5111109832266947 5.188708559330153 -0.488471548317533 -0.2726906870653497 -0.2877619795761754
Ni 0.25283546615451125 2.6078340147932666 12.98359251394514 -0.749189893512355 1.0550177294513055 1.6503024161703512
Ni 8.25169648473387 1.716615965273197 4.954992318719019 -0.7771591250317712 0.50514129566373 0.9552015911929163
Ni 1.5028639073135106 8.65393472634332 7.759979310331531 -1.009770684688048 0.8357836195431992 1.3975475487969802
Ni 8.851662053092232 7.896602799851351 9.688284644153537 1.0986946015139658 0.6109735582092123 -1.0327517189642537
Ni 2.784188897043949 8.91357034839589 2.3395481673576493 -0.9520972412359796 -0.11588476168547786 0.5312932714687496
Ni 6.046956713849078 5.4836335664844515 8.07674710303223 0.8726200716452585 0.05990104723100652 -0.5824708227838291
Ni 8.020180077987973 7.06672237743559 7.440328722791532 1.1739675032153523 0.27885387845326814 2.464042939870582
Ni 8.195678957939629 1.0066218863498744 2.7884845558929254 0.5791111622829769 0.9888799572819679 -0.7771223582565648
Ni 5.308880236922267 5.086025100750372 3.7848206081658096 1.721758772339125 0.356642861708289 1.992096385791266
Ni 1.1210776776226943 0.8538935879848538 3.837898273300819 -0.1422262277934841 -1.5982779434739443 -0.20569416644014255
Ni 4.9179909290192425 6.881089534782575 2.41125722876885 -0.7054826824323914 0.9255202620783997 -0.43809926651256814
Ni 6.603634337989018 8.178218351904684 9.045076232773154 -0.7945287266584703 0.31355194405608583 0.6921360859221564
Ni 6.155825479363747 3.026050965984511 3.3279629768505257 0.36794903074972757 -2.1098544532400565 0.15275875189369173
Ni 3.098627074885692 5.163589954232966 10.671606700183506 -1.044539198517485 0.6930210596302709 2.755961364817292
Ni 4.465174917160967 3.858793933722818 2.078808026209564 -0.3065785980620462 -0.29701358008143036 -1.522436313753281
P 4.995601804130816 1.0391223607354252 2.856192496880621 0.07342633541095098 0.43628972410765504 -0.23389376880281013
Ni 7.011606874569353 2.9636824543910545 12.195659885911908 0.08402699374493271 0.07137922307393513 2.1675816327481963
P 8.23867236373258 0.6904422500675346 9.294647845000418 -0.9009322883263904 -0.8123495568899751 -0.6886715244123236
Ni 8.930892889543895 3.9989389982921746 10.723889111569745 -0.03176058024104853 0.49974249324566183 0.4234990001008899
P 0.6824464522485801 2.4507529907593346 1.8714014304536153 0.2335574685093139 -0.573261131260103 -0.11900890913675634
P 1.9356513062397669 7.813837502294037 4.411350781203905 -0.03359969033231633 1.0050696796679528 -0.020950376999421982
P 3.0200037239365622 4.713323540620173 3.311891303578192 -1.7082285990631743 -1.1308274774927685 0.5834097896583307
Ni 4.366568974908797 2.477749278318899 7.032588135221255 0.14204419368966503 0.2689690152393884 1.518004503234173
