# total energy = -340874.29157533124 ev
CRYSTAL
PRIMVEC
9.20902577202153 0.00000000000000 0.00000000000000
0.00000000000000 9.20902577202153 0.00000000000000
0.00000000000000 0.00000000000000 13.47834007994204
PRIMCOORD
 96 1
Ni 7.421360621891245 6.999439889060921 3.677578467175791 0.06984118916285391 -1.1209022479592567 1.3430198500627453
Ni 2.4024506892957724 8.430946136562724 0.08557947813410616 0.8696756443049538 0.32612618117667064 -1.276351659311234
Ni 0.8005222076015905 4.954244152389114 8.830630755339179 -0.13504693643622548 0.30231390924842133 -0.3089578969275002
Ni 6.3888354235834734 8.602657634387812 5.874211110145724 0.5059416800778384 -1.1093605658682444 -0.8674729802266802
Ni 0.8691920722901091 7.035530061750855 1.0848646972828269 -0.20684344955323733 -1.5925060739871735 -0.41113636477047905
Ni 8.668778440693945 9.031936378950533 4.726840149241328 -2.4905240168802463 -0.35500352633265314 -0.020871701242686634
Ni 7.271502142640593 4.013367180315133 2.436277283407706 -1.556317025661126 -0.021799355263278586 -1.3327565204635239
Ni 6.75973815266227 9.040694162627013 2.5484579538950007 1.0333754685911816 -1.4029216686247 0.05557259505898172
Ni 1.4778644841236799 1.8319791588994017 0.3627785263875338 -0.5025125997916313 0.5455675219995766 -0.540655686520256
Ni 0.08309856654373403 4.0430939160750485 0.6683515044891261 0.23480239666000854 -0.6456924497476364 -1.1509057362998825
Ni 4.865119199265054 7.533655484300294 4.147824484570469 -0.21351443381550972 0.8847430801610376 -0.07289360283593252
Ni 8.192883606782805 5.901171454510882 13.15541311981727 -0.4631394973106475 1.3406503213893042 2.5113887761443974
Ni 6.050569482464138 8.723065648656986 10.325001497571927 0.29782502023913227 0.7777448223319121 -1.445892001538639
Ni 7.763181247026481 2.1724276391683968 0.820771934758492 -0.05925929988194956 -0.48335171059246435 -0.5921515404067027
Ni 3.581942732706546 1.7838343712436278 3.4417620188245728 0.16868365065406432 -0.5333123587813072 0.14942068865939426
Ni 6.838843685554982 2.504735340499422 10.615082131321318 -0.7405710414950923 -0.9439517293107097 0.36726948818419974
Ni 2.429046356233392 4.652897196295026 1.1965029561417881 -0.81403080124714 -0.17365616416799126 0.06345328335863912
Ni 3.8119289467301303 4.729258439455254 3.1373530616027985 -1.7934848372295178 -0.5665119854617277 2.0303333177852774
Ni 2.1707976415756134 1.2763986234608324 9.08415892329605 -0.5753390968350542 -0.17446940409790596 -0.9050697075335316
Ni 4.286737115579412 9.049801889289515 1.922658595603471 -0.36321640116074866 0.9609354083529 0.9483079493968765
Ni 6.197425819255765 6.1508005208814 5.977644126885082 -2.345715887292199 0.1529454139832011 -0.8837015262704007
Ni 2.003046024908135 1.2433566383596624 6.3614394922909785 1.464159175278943 1.2171718065169683 1.5879742475550909
Ni 6.158830791507993 0.1850424837873104 0.49705809644207394 -0.02734548189248839 -0.10834217345152954 -3.69653749278755
Ni 7.332502730519676 1.8041402734588117 3.448635635792107 2.282102681316928 0.9914605735249505 1.6585168336603437
P 4.651672395843952 7.500364855498529 0.5833291724248696 -0.46002820537517547 -0.4450695271828142 -2.413887916282746
P 2.8326319184013897 8.690134171867191 3.8826109835882714 0.6877117316022155 -1.2361331781108194 -0.24907973251462912
P 7.093998167494257 6.167017615575703 10.171928147362852 -0.39345848787474175 0.44781289425590615 -0.1933166187113961
P 0.5273447409796236 8.190102480946532 11.954384848324672 0.26035273432528716 -0.2237381684260469 -1.0956990092207517
P 8.222573506438929 7.0958307636578954 5.940039069426713 1.2936592973517462 0.8530514054847115 -0.8458541164053239
P 8.87016142012326 2.317442170770438 5.161530117451052 -1.3913010536666361 -0.46148422109541165 0.4869934211101097
P 3.7578995914936297 2.401916565790793 5.588901672739956 -0.16988075628595903 0.9355215962654857 0.5938194150274289
P 5.532230247958995 0.5031535507170083 4.096754910273633 -0.545620486724699 0.9134692444511365 0.40964178250282357
Ni 9.160899578325333 0.26212939819223624 7.065696068048487 -1.3846372684932153 0.025955800633813364 0.2678636979903516
Ni 1.5416093617352458 8.326994651662499 5.583793426046639 0.2602169800783712 -1.767450617949285 0.4893516369296411
Ni 6.528610019421143 1.7233679068695247 5.789324150762903 0.8709732800704548 -0.8047941131402203 0.5433129216374448
Ni 4.025559930670192 1.5860337029080562 10.560899906254082 1.5227147642256487 0.29676032642004374 -1.4396149102806755
Ni 1.8806580700601556 7.948706283773463 10.29207370439251 -0.4191687481566523 0.22848468197209681 -0.4689843861271988
Ni 4.230709401712211 8.183518027393763 11.889513706839674 0.39122651322042945 0.5372700578774746 0.6075115678025409
Ni 5.655502269297974 6.35438445751227 2.1329881437412004 1.3473827550171313 1.2827261953790103 -0.8845795579999798
Ni 3.865930674888787 1.4029398490113278 12.876922966125944 0.3262094849190963 -1.4470366566660433 1.3490552576235477
Ni 0.6699419032703334 7.037344239862597 7.862832116809023 -0.7603032298166971 0.5845996962013739 -0.4096294412076494
Ni 5.6246336143205165 2.0436762473903984 2.003609617296148 -1.8159423949020854 0.09099468331201747 -0.9455445277191266
Ni 5.775265651750794 6.103595053872315 12.102282725951008 0.7945256413346768 -0.44698885569271407 -0.20091474277362817
Ni 0.9152804844517104 5.39972157359424 5.983345434849444 -0.615805689490533 1.145988501503923 -0.653585479342468
Ni 1.2484123936050755 1.0332803384355012 4.170548676999579 0.10086977633388433 0.7955404557524363 -0.15791535639396675
Ni 0.6407492910153978 7.409563859651948 3.4144406806422567 1.0392100729950875 -0.41471662592256964 0.270499850061618
Ni 3.965719680060548 8.675804927492214 9.191540770361877 -0.6363071518779945 0.45370843380473475 -1.4648705995236706
Ni 9.174676281143435 5.150930528584985 2.6965308030143493 -0.5928750488362886 0.8900207836202092 -0.2199406490568277
Ni 5.4224310315818345 3.107668687362244 4.27089482824119 -0.23954222533783912 1.2280905103120012 -0.18226267489007966
Ni 1.9290515014165235 1.0739750240994006 11.458611411002332 -1.376608484651468 -2.095829085495242 0.4326163890211259
Ni 1.615088179773773 3.193413927963413 5.0749864543001975 0.4763382553891086 1.6939900868662892 -0.8983596425032077
Ni 4.404557393557218 1.6178785146359955 7.624683943087789 -0.0682134237514438 1.1811743053764368 -0.08257766289291585
Ni 7.598910642167319 4.095474855666871 9.048724433253607 0.9724853179740284 -0.0730946631031451 0.6874703050153708
Ni 2.6410197155028268 3.2572693138863538 11.900552566243457 -0.3042718043057405 1.4105601590065642 1.2872531367150863
Ni 0.6662509256704033 3.031878403810786 10.146399806532598 -0.5031124381591593 0.576424102369117 -2.498311117024833
Ni 3.2001273078794528 6.842941702101811 2.057495311727861 -0.7712846685288652 0.4147472220501889 0.7719950643323286
P 1.952276664857201 8.73140902616581 7.779522663571082 1.5149142943446232 -0.8608529038070013 0.205721163023336
P 3.8299233834323836 6.849894516692498 10.286116385506796 0.48823089306163664 -1.1000048356849572 0.33442210263687566
P 5.732305545703704 1.0584670244030876 11.813913129222742 1.3323821678432408 -0.4041555625772717 1.014471175487511
P 5.5777596722455565 3.3435302599406063 8.903467704269135 -0.3780424104299876 -0.5731264054544517 -0.008661532329739922
P 0.3442057628557501 2.511964425868547 12.005763845893357 -0.4143029354239188 -0.6375281687692891 4.384511476912217
P 7.986988204639005 7.46990139766278 1.6209322276403288 0.43537595404413404 -0.6767164089329765 -0.432326625694849
P 1.494367058622369 5.5904312919499075 12.89732924672396 -1.167512748728944 -0.2020293159940456 0.10570345027710182
P 9.159278789758497 1.272401906199431 2.297720120800353 -0.11773595596160369 0.1308372692302521 -0.596164775331154
Ni 2.16498674620247 5.451282909876697 10.768708943989862 -0.3781308563787359 -0.3020747966544217 0.13148570144752839
Ni 7.7366592522964455 4.361735422899348 4.6867965417119475 0.06976894116402178 -0.3873312919310813 0.9950616606126476
Ni 2.9727104120953407 6.340709053979596 4.913704178361139 0.06481519670317225 0.3429463380578029 0.2911951736274404
Ni 9.191703770121157 3.509182218691957 7.104231237127596 -0.46542675068292744 -2.155145463867372 -0.22753748756747907
Ni 9.15668184444118 9.118657776302182 0.22735795801804515 -0.9440134357865805 0.03150244148365542 2.8500020340444854
Ni 7.444410813838912 7.568005151086069 7.960537119408768 -1.3391310565313 0.9605039772424361 0.7409654487200336
Ni 3.656839740741054 5.549119601547497 12.82377859828304 0.06414722410187015 0.5867432249069379 0.3838708441863066
Ni 6.1708946154997815 3.7393065681047606 6.7134674017869 -0.9213049384454713 0.6541804326139894 1.0507206447378483
Ni 9.049102003317472 6.151914813021099 11.073872120436771 2.3053297701656685 1.8210264942932122 -1.9424571254975838
Ni 8.285940813986631 4.161779842491961 11.545155074153186 -1.5416038878206677 -1.156595073375176 0.8236945495891491
Ni 1.8289401803365852 0.23349209020196077 2.1123792645723296 0.06500442989584289 -1.2115097231351843 -0.6329431205017679
Ni 5.60900589728688 5.603637035159237 8.567830940057934 -0.07330806466553182 0.5000062884300098 -0.9359286018959172
Ni 4.965479164045587 4.322053730089721 1.4121258523943871 0.7034785075181691 -1.6088096962432037 -3.26206579572524
Ni 2.8860442688993793 6.146490696737768 8.3464487189775 -0.02145971253567272 0.9351534142927895 1.080599434575152
Ni 2.4633960230191683 3.9599824568949877 7.1168604953125865 0.9756709147908615 -0.5941886254413896 0.8283461894285477
Ni 4.459618159699887 4.7602560207959845 10.47846623138379 -0.3334833928726902 -0.9918151286508919 -0.43526359683598587
Ni 1.5007765406821276 2.8457824074550326 2.593421023085765 -0.1645238628494199 1.0498048177917982 -0.3461311635436877
Ni 7.807918695081521 5.416141266859399 7.272925858052143 2.6357262965829187 -0.3530870260362306 -0.03999865188012466
Ni 7.090148794648022 1.5021302674964734 8.366598988654165 -0.8552129319124044 0.06739838404931618 -0.41356939969200385
Ni 5.188171829518411 3.4344693911764077 12.31922988013492 0.6494192637799202 -0.15265796464976936 0.7911510684354891
Ni 3.9222438685603738 8.177504533449765 6.461381367293475 -0.26375070426324254 -0.23613371387692236 0.6629185838179357
Ni 8.588862513517814 8.794877632998938 9.647957593490549 0.5670709432889911 0.17705182011310155 -0.07079506843569097
Ni 7.435054443475816 7.727597570763683 11.832904903435157 0.7798852657136827 0.6520353612465287 0.4931090470895443
Ni 8.373868593737459 0.7543186826156401 11.756388027736408 -1.2431872567441236 1.1121625540934137 -0.7400416513541835
P 6.87794520972989 4.293422868417609 0.0739042750373215 -0.3431913641890735 -0.6766978969902152 0.456596296875491
P 5.637636758958992 9.091546403911478 7.750220463907366 0.39488313613641024 -0.8573973411582331 1.2919448857638007
P 5.594870042456809 5.357645534038152 4.02227415021197 1.51297259723722 -0.5800437013995753 0.8256910111938877
P 1.7133484866381776 5.152698661566988 3.668750694902106 0.6354448038776992 -0.4998029141699522 0.8188043113763834
P 2.7166166095093778 3.2735232446844487 9.777403345825023 1.6051353327154096 1.7020962609131913 -1.3295022751922845
P 3.3897411521473155 2.6855361469351164 0.9878724732914519 0.7966920528583763 0.7158827947197929 1.6067265884619297
P 3.985058634551199 5.53460617665356 6.710246084510315 1.1640170768708598 0.0714355302331673 -0.6942243359097527
P 9.159748450081842 1.5761063729361886 8.771892825135502 -0.33010290643623147 -0.13149727141175416 -0.16245978123153956
