# total energy = -381177.63147881726 ev
CRYSTAL
PRIMVEC
9.12246197458996 0.00000000000000 0.00000000000000
0.00000000000000 9.12246197458996 0.00000000000000
0.00000000000000 0.00000000000000 13.35164521240888
PRIMCOORD
 96 1
Ni 8.81736133750544 3.8986210076022707 6.950425754057043 0.17622186801263845 0.7705398199430407 0.8732682467522186
Ni 4.654024725212559 7.508461355542057 12.512254048418981 0.9422293473029644 1.1421683564268847 1.4771944111963462
Ni 6.058281803317336 8.739710940264883 10.381585349446189 1.2156085757949064 0.06871633152979133 0.08829913875772535
Ni 8.496798019949853 5.923853202079456 8.837614115573317 0.8014069418355424 0.6698055407457562 -1.5847146029672126
Ni 0.649592279923116 8.534729217286111 8.199486033748439 -1.6333791580524515 0.25781068462972373 -0.8582897710655154
Ni 0.9511352640380835 1.4443046866440206 12.399660060173968 0.2503588563373688 0.5409950721375456 -0.9743714792531476
Ni 6.662024588817164 2.012597584493847 10.495981936198573 0.6872365917380099 0.983311204944939 -0.5126615153001751
Ni 5.26998248743996 7.62930661074009 1.9018217029417408 -0.2962674459440252 -2.02034869576874 0.653101597727514
Ni 4.03294013929517 5.767621916465996 8.110176217721094 -0.01285628713737786 0.5451851989594932 0.4118927833205293
Ni 1.653090476310917 2.8743965773645463 3.1732192432867117 0.5976454736417384 1.1651540186887805 0.7954430109426237
Ni 1.3916133456593571 8.879311977503164 10.394136032778372 -0.4838980700142376 -0.4522081951101244 1.3244544283557318
Ni 1.942418483698311 1.2164711961502583 1.443085925709888 -1.0528667445465738 -0.3494805396318949 -1.2003387941200296
Ni 5.691996705807605 2.5140319577459245 7.418294028079019 -0.09162331803495188 -0.13832046498117467 0.3096790913642409
Ni 6.376911158911576 7.634105025795134 4.404373954403887 0.30128238266011337 0.7869429438914125 -0.4337435606470337
Ni 2.2593693062694933 6.808066084285217 9.517840535413434 0.32143417501764 -0.0778324348984466 -0.7300164059076976
Ni 8.386005717966 6.706232040065722 0.7450004618521676 -0.05856844446251203 0.17732512837914624 -1.2862020697427528
Ni 2.455794159815507 0.9693072085050934 4.720740939401832 -1.4206314271996372 1.0545482460140547 0.08477852719897658
Ni 0.41863252167390985 6.467469839997925 10.933435009393511 -0.4540383063403277 -0.10869312903304507 0.7650212041176567
Ni 3.3363489347264537 1.2149295000584286 6.757949102100047 1.3666320901650462 1.0115776559897998 -0.14441192259089325
Ni 3.030463658660534 8.989328870210063 2.884061825940248 0.6952394074378285 -2.990083190470508 -0.7521304641979176
Ni 7.077862900355408 0.7518240634893781 8.24036834756817 0.31254741405097136 1.0645765767843343 1.839829228822012
Ni 8.388924905832186 4.9588882855253145 12.626718141390775 1.8093081774150195 0.26002903243728126 -1.246325545262789
Ni 6.713758071283235 8.415544250186972 0.04340741132398274 -0.02877244414700206 0.9513529068707872 -0.04601503327753365
Ni 6.1796926511644426 6.52609078133578 9.391052908415295 0.6398023095154465 -0.22250481023957808 -0.8292255067097074
P 7.677445843145919 2.940297243443703 8.674310185107812 -0.9730761574804919 0.5123118452702403 -0.38957072278456134
Ni 0.4246305404927146 5.004491473472394 2.2999414563784426 -0.5552855206182888 -0.05731297478885613 0.7975382029087554
P 4.032365424184014 8.237419055577114 10.141535969978644 -1.4399010740625267 -0.0985213307063658 -0.08968522047197457
Ni 5.458744472837234 6.732194567150617 6.345689532436505 -0.42369131861735415 -0.5401784897735212 0.5491732370729638
P 7.759374675102855 4.350000431411334 3.89811927218777 0.6408744595337027 -0.5700074002094957 -0.6490953047815983
P 4.611377214979994 2.098905198250063 5.180812245082466 0.5887882803614246 0.34557734792274675 -0.6615821243946993
P 1.98991002129633 4.928537854179058 7.824371305189702 -0.7481056593092406 0.3032659887490455 0.20499842592469855
Ni 8.27324296417247 9.069834598082231 11.662168296861354 -1.0668023807910596 0.606372054881459 -0.5656964315389676
Ni 8.632777439741645 2.492676274012355 2.659474107455202 -0.8057495350749543 0.17142444662399509 -0.03962378503920918
Ni 6.837093758629607 3.200031983837633 5.516979534029028 -0.546368163524001 -1.05887335575197 -0.4635387896315952
Ni 5.987281680934435 3.224480182216944 3.1918445741191888 0.32247855712175433 -1.4807821285476046 -0.32167765848701374
Ni 0.6287766459447911 3.4166995807432325 9.140349405482379 1.520256018272511 2.2037786514940434 0.45711026039743213
Ni 1.1017836028574624 2.005746615470391 7.32444578716596 0.2860961618379782 -1.5230068415447706 0.003934302057399676
Ni 7.9172480038910455 4.556177196922826 10.483137509587353 0.056434685948960873 -1.6373281153978705 -1.2676567026403975
Ni 0.8451450260941065 7.977574845638203 12.791530927084613 -0.1270844870560392 0.23122239261823407 0.3450021921455671
Ni 3.116707415182177 2.7100827903465827 13.363928932871264 -0.8612763644976651 -0.5757512446718085 -1.1308130793150653
Ni 5.640947407997671 5.389596210256945 4.227798666101733 0.0003733241790187119 -0.09232008699166036 0.8357499380917864
Ni 2.4479123525768034 7.497979646610032 7.222586200052636 1.0682326854796826 0.7207961728610102 -0.3945890019347592
Ni 0.7840601077479491 7.701976143683966 2.1072631980094374 1.0736859952847702 1.0944677079168117 0.1483919902845638
Ni 2.8086783605270265 5.61504873814735 5.86228023201192 -0.7210273150352098 1.1654065010192187 -0.6008043309856943
Ni 2.534949763299566 4.5735646096507985 10.533099409917133 -0.5685169317068983 -0.4139717773367451 0.4587187425351326
Ni 3.801220479954547 2.0652889254785105 2.735485198259653 0.985263186464987 0.9819297512163798 0.10207099573083711
Ni 5.390344252147656 0.9801173260720647 12.19807645432068 0.059940899330006445 0.4694333007391593 -0.05103511219994437
Ni 7.555195728787284 5.43432364184417 5.784266760780506 -1.2444445261899921 1.8967151433757787 -0.43089683522685784
Ni 2.4104464008067183 2.072185506812376 10.326135375927977 0.0590240439426919 0.42727543642418675 0.7831436247499803
Ni 6.155198840474724 4.4517797408583375 11.829744276319783 -1.5387152534189628 -0.6291800539149099 1.1322482690996951
Ni 7.285453647489584 7.771835958306638 7.572251996141686 0.7977534042433552 -1.1959499210237146 -0.7544709394056361
Ni 4.39941680850862 6.0916061573022695 10.6801680946156 -0.09210180033326718 0.24729050182469026 0.06933982404640317
Ni 2.3550091987354236 6.1469247673665 2.951741372125362 -0.30851386741154607 0.8588698119387014 -0.9240025398822925
Ni 2.7897674966313883 0.4431117364242987 8.64102505770983 -0.7375050009752588 -1.2656692398967233 1.5402136923413603
Ni 7.368285603192621 6.083879431918958 2.6711973834765645 -1.0452603929542257 0.07966871677623698 0.3929008155990588
Ni 5.3817782602528155 0.3832984892923487 3.2077331663271162 0.5750323642279129 1.120746953328315 0.665188610799035
P 8.892794976460113 0.2509799135339954 6.128284840594693 -0.7889831142498929 -0.1652687114352444 0.6648620806975517
Ni 1.7078982284985655 5.607914972799357 0.42942348207050934 -0.355785141693684 0.7665924052595184 -0.390011924087038
P 2.6957422799539423 4.130513993722448 1.6443219657578596 0.2482904038441143 -0.16240810205799772 -0.14747719177977828
Ni 7.4589263864377084 2.503486391579326 12.643367546936327 1.1305996777526786 -0.10420424002375603 -0.403784295280782
P 2.698798304751356 8.142490715153567 0.44358154322151305 0.36832081226684954 -0.15518330217478435 1.4464005657439412
P 0.6754936865120625 3.4205310148176022 11.504966381282388 0.06522811587087476 0.3977941391356181 -0.3512587145782402
P 0.7410321908465706 0.5880375547797443 3.357778510402886 -0.33832220902223026 -0.15603485154180224 -0.43278505338850626
Ni 4.431217711325887 0.34171465813852425 0.8226909979258844 -0.9743591379579737 0.9243336979694662 0.5864251794458868
Ni 4.574385631238164 4.293422921579809 6.3471053385516045 1.259819980204798 -0.8457972950254594 -1.1450513344016344
Ni 4.918366308957815 4.1661919429244945 9.64273160254476 1.0348391976209017 -1.579942121279234 0.330693745942695
Ni 0.23102817671481993 6.534620283382293 6.637770698880196 1.2103504127197606 0.41832182677532476 0.285073891221051
Ni 4.8156473859163835 1.5151862170198578 9.23272984224647 -0.8821614354767904 -0.34456073373277435 1.0499796528067658
Ni 4.889347757075506 4.938937460952347 1.9213419473044455 0.9485162087529406 1.5179816204160375 -1.7496426432335868
Ni 5.277563253429963 3.0018373726477443 0.6678454143026543 1.2822592830449207 -1.117425859374882 -0.18738868326273533
Ni 3.367830551370857 3.1905902355829365 8.198176960439696 -1.3211973548710148 0.07373126824587947 -0.21836893369433358
Ni 6.696717312114372 6.6867008487485196 11.754628099045558 1.6484435085847415 0.046778650916435564 -0.4227801196569945
Ni 6.4241381451092225 4.785652730591318 7.754808882830898 0.8369938378012166 -0.16376127365178247 0.5336134349614939
Ni 6.41432237590917 0.5473030248457385 6.146897399980255 -0.28597737687192687 -0.2932219742494821 -1.437274435072957
Ni 7.518140287810881 1.0536626153757969 4.058085293777532 0.3216424343737041 -1.1452868474512081 0.5982034030277376
Ni 0.5499576613115517 3.338282896687802 0.6066282202563104 1.9148254798232445 -1.1580927409666248 -0.9620821203628334
Ni 8.83369054463192 0.5043918754590073 0.7579206048986667 -0.5561041598648422 0.9739989264050772 0.055691122914717
Ni 1.910480743949816 7.588693409551772 4.760155449072597 0.4772371130542942 0.753556912231799 0.7117790569640645
Ni 3.965406552503365 4.9659125813283245 12.943499286167233 0.4084863287421417 -0.08482146462177005 -0.1772071147440432
Ni 3.603044113688821 4.449918758593643 3.6378025187130194 -0.6105130736330261 -2.088927730389719 2.081541979448609
Ni 2.5269128742054714 3.3848439431534745 5.581014656612449 -0.8162072400731686 -1.6171961205346859 0.07523844891902527
Ni 8.809470407804657 7.298361931335377 4.2597491772971425 -0.5487960562392032 0.7960423350895194 0.33773959704588286
Ni 0.5086392938043085 5.042139874484116 4.755588744554432 1.4926701382344423 -0.6477015097578652 -0.15432892459428907
Ni 8.919660627291108 1.3642003471034512 9.612850977995718 0.447942477855235 -0.9491623269773716 0.8104947630694235
Ni 0.1130364276559843 2.4087040105490884 5.201493778868188 0.514966509284268 -0.5181240810766432 -0.8193141611332664
Ni 2.664187683612884 6.764333001064913 11.974036083560541 -1.9356686418208406 -0.3586125838401501 -0.7240835853630303
Ni 4.298066254779463 8.673855886496137 5.446617071745647 -0.23040169648915163 -0.9103263279467807 -0.8372455488007066
Ni 3.0255922639088357 0.2025825154512504 12.004304412748061 0.6108558016844254 0.5861503285179454 -0.22425521727178152
P 6.216903173996237 6.150701466668379 0.5004400248851575 -0.31371495199651134 -0.37993834190111986 -0.17480724705329895
Ni 7.555934648215913 8.453575794606131 2.1898971962852993 -0.6005215096379529 0.2592121929629407 2.1251820847360627
P 4.017988423943047 6.8497557359991905 4.082225152938477 0.738809064498663 0.897126541427055 0.5197649591141758
Ni 4.942413119005525 8.470032716201757 8.068452812897416 -0.39767663972114736 -0.2939889343224937 -0.36623050539672414
P 4.621539637739155 2.9012348608092973 11.545421763876691 -0.6779297125147874 0.3141620668362589 -0.28996952875045545
P 7.09739409167261 1.874638590430297 1.267703855448037 -0.8042647229993115 -0.6766673008625959 0.5614872785536266
P 8.23460933725591 7.910141605929298 9.841003754662344 -0.29761393266959063 -0.0916189471595777 -0.7718832213448126
Ni 7.653599727264009 4.1570056236080895 1.1242522269650155 -3.0397594746497134 -0.10577595538625009 1.8375589447305967
