# total energy = -340889.50930705987 ev
CRYSTAL
PRIMVEC
9.06872421884006 0.00000000000000 0.00000000000000

0.00000000000000 9.06872421884006 0.00000000000000

0.00000000000000 0.00000000000000 13.27299457496350

PRIMCOORD
 96 1
Ni 6.270614647681927 2.051544911567493 11.391852850219252 0.503079785149011 0.04020691123618882 1.466012683547914
Ni 4.542043277505478 9.598246938643982 6.024359791866943 -1.314778595828865 -1.646405137998474 -0.23313092249485656
Ni 2.534617708861201 1.6692619143248901 4.857278476590996 0.11137838917469206 -1.2455968946268805 0.2981078415868737
Ni 3.2621833088702044 4.140117423783597 4.8898243137714354 0.456180292383995 0.6630265701507096 0.3913445268555325
Ni 4.959839398465925 4.48719563392899 2.51089211277575 0.5855684878725463 0.5732392768832321 0.6744006163156063
Ni 7.52239784639114 6.212121377002636 2.668867473485687 -0.1546459416140756 -0.2507044126022457 -0.22286527890279037
Ni 5.193912237148584 4.843324430762435 11.51992409308966 -0.17424880344666763 -0.4888083628316614 -0.12016847666249625
Ni 5.648209972757736 8.115320099148141 12.795909902773895 -0.19255351529312645 -1.3019773302991384 -1.0895347893915688
Ni 1.9998169090939006 6.731859025979502 0.24108386931245143 0.417406771160223 -0.29650321610391517 -0.23833226419013798
Ni 2.4174225868474855 1.68902266421794 0.5511979598781876 1.8064799639376052 -1.6425700805231003 -2.130581915595395
Ni 0.43726576480872176 -0.2173464838856233 4.256662318276738 0.5142797676298885 -0.24759851998341229 1.7350601174337215
Ni 8.705875414905561 2.7907910282640818 1.375148680625284 -0.8286783759569858 -0.9385745241591965 0.26689619187075975
Ni 6.767743967386936 0.44764219896550367 5.039437403955269 0.45611035837800806 1.0622618126082286 -1.8808979738378637
Ni 1.0280759117143727 7.249655967991195 2.345258214532687 -1.3545790156552542 -0.029724266537310102 1.6576336597244419
Ni 7.5824328001736045 3.6836522631058637 3.618191491672636 0.696460167218807 -0.36646884665977525 1.0527875545692063
Ni 7.968071225346647 4.052549823523252 12.577343675491935 -1.080885341246687 -0.3318312019812479 0.3506177385601316
Ni 7.9093149616674046 8.74658491755352 7.0958621959805175 0.9763877383522281 0.5499394258150271 0.4009553104724191
Ni 6.508178945157071 0.9949932060650627 0.4497978346927079 2.4125350017992773 -0.0036440245104904984 0.6348956162424485
Ni 2.041378871810674 6.242175128790414 9.430913561497771 -0.4504745002484693 0.9813970186413613 -1.5964069517034765
Ni 0.28413854402206334 5.2288177563492955 1.2957855550910713 -0.34090796747153546 -0.9526248316046756 0.13606303640556566
Ni 6.258489763511661 1.6862113597356796 7.024201137855284 0.3606499259851531 1.248379342468024 1.5180695521441534
Ni 3.60671320753329 4.303989268926972 0.42131659967016866 -1.8518249677313077 0.16426418143013 0.46015136121660105
Ni 6.173225619181943 5.508787407885891 4.716585383467652 -0.10349924353693142 -0.19564218152077917 0.30385425715234765
Ni 5.585064446596512 2.884860903730171 9.350877536632645 -0.4685154169105802 -0.9702464013411806 -0.32664965778030836
P 0.263238762377491 5.93854517598215 12.478539019154272 -0.174595388152809 -0.38540090767758783 -0.971256844883566
P 3.9889145862586664 6.181487226870134 12.764293609817427 1.2852227365486188 1.8392797840764454 0.3429388818586352
P 2.2797412170098146 8.594874231476956 1.3830593286893993 0.74377360759279 1.153446243333549 -0.6359708515844983
P 6.6464044384429215 7.589569886068892 5.765708897030019 -1.7435653266912552 -0.7465275161888434 -0.34855648515572873
P 4.64158159362577 1.4854479448057385 12.936962117373039 -1.513670394635193 -1.0830890337662251 -1.0758315808728633
P 4.070723546692445 5.940658188705913 7.998173948244762 -0.028312216681131888 1.2083238692080351 1.0605620563083025
P 4.558530217985314 0.9341511358344649 3.837475055033778 0.9543749815265627 0.46363160645571766 -0.36152307261872574
P 0.38063793068427365 5.272692243720831 3.69670125026562 -0.012303757068017519 1.8336794071705322 -1.1478029290048426
Ni 1.3061411311823399 1.2510577007783077 2.5912464498580627 1.1187142391690021 0.47794673752680905 -0.09992129637768597
Ni 2.1148173998666255 6.501005584365239 4.7513077144408085 -1.0715278112911868 -0.09419776363034746 -0.2516276957474634
Ni 5.9903729344212415 5.687758678716245 9.357939352117599 -0.02581413284962651 0.19961402168433365 -0.03229845502238954
Ni 8.661556560051347 2.259046388530723 10.449297727727656 -1.0669440485752464 0.907275971156231 -0.8013732603841295
Ni 2.1763758993039932 5.323241312056701 7.18325204924779 0.4480648623657122 -1.0375563394417484 -0.7698836744162805
Ni 0.8057606738744575 8.856933152844311 8.800114875513 -0.2106322271717082 -2.188858539849101 2.1758891241726266
Ni 1.4157275936456795 1.194024494684966 11.365585290758387 0.6092218656254282 -1.0477751889562792 0.7713965115163811
Ni 4.3368633939211465 6.772777109282597 1.7840102945666252 -0.7254470413694604 0.249887316017589 -0.4494329463578325
Ni 5.619652560452452 7.8432855812308295 7.842322482727552 -0.1238559528164125 -0.10872063983687082 0.024253730341042102
Ni 5.183972915495174 2.7468893347201373 4.944322811468674 0.11901199446054986 0.24652071353820126 -0.2316988180340203
Ni 0.8435554885850015 7.185367782588795 6.7218689194709285 -0.7204552445818238 0.9775640180485164 0.8235667657620334
Ni 5.412123877316813 4.35757635984851 7.5303674411621415 0.043778687747847184 -0.8705228227965975 -2.13146688930351
Ni 7.93757310607619 7.190137931484501 8.986706595235107 0.7709949052025883 0.4433913681494428 0.5512198351893474
Ni 4.678228307860655 0.5299055024785124 10.506504146452 -0.4899615025994981 -1.0099131238031833 0.8337699315472802
Ni 8.441803236779942 6.790651564555291 4.837834225170304 -0.11400091439920366 1.0670841736975363 -0.023706342478004336
Ni 7.262850961609547 6.003386553556867 7.081142749834849 -0.25401753613587863 -1.021283313313338 -0.4570439259358709
Ni 2.485320124456144 5.302265353129384 2.5418844775116374 -0.358494313094731 -1.010340184038273 0.26153672733105926
Ni 2.6193830733634216 5.305312444439188 11.375633437101436 -1.3094242734954868 -1.8166880148188584 0.8296435680837324
Ni 1.2170681227153652 3.358783358370328 3.915812507868172 -1.3451163275804576 -0.22626350595106196 -0.5242219664442649
Ni 3.5689147653330915 2.6941909787639586 2.828859718443543 -1.5127707656390592 -0.3875896877987906 -0.32343295061522365
Ni 0.9101008794249336 3.289815711313584 8.411560855530128 2.185531018137765 0.19880103886473505 -0.5192185996924026
Ni 3.5037741198618764 2.583407444714624 7.008857763489038 0.6643745995381719 0.37666301358395776 0.17717446173389484
Ni 4.28938862306749 6.819762169032892 5.826725086764034 0.5349763767472916 0.9554970109461481 1.9200386485930674
Ni 0.3176610827919851 7.577789613415807 10.92631533791554 1.3805402156057063 -0.8411338281115192 0.5669742698101268
P 0.09060743659084057 5.497179440991395 8.158020186744023 0.5730161051288325 0.7992112197358042 -0.5797927617310338
P 8.73587475434852 1.491650952114984 8.301780322370272 -1.8895515357478039 -0.06704305759242647 -0.6148158147734379
P 1.7203278999365308 3.1424580128224546 10.494173402243842 1.2349486708844153 1.019666089424889 -0.16506302318234153
P 4.1050214613760225 5.957680183909793 3.971824575623764 -0.047471820328718245 -0.09525140170584241 -2.16335422493041
P 6.988204651140974 3.968446475882983 10.58985841747861 0.36270655140386565 0.9668895690538057 -0.668871458967261
P 6.298573524194214 7.711707462736904 10.350042355800415 -1.1723569641951228 0.057607108990507236 0.547961733263366
P 2.314347468314027 8.585941538202677 5.675320016690864 -0.13112446145336773 -0.26522086105086584 0.8054317467242194
P 6.916960754326013 4.235402508283953 1.6516114565383626 1.271614915957197 -0.3392673465443189 -0.3179819548029814
Ni 5.573674129081289 3.317194189481146 0.23448727937568933 1.217547701799148 0.009759650489925128 -0.24519556696887448
Ni 1.5118470007665776 1.0367365432645623 7.169925559129462 0.6831878755899331 1.291487743621724 -2.179363198764156
Ni 6.714084326672308 0.47377372756432135 9.356850198348827 0.9535103195334222 1.261883547602046 -1.8407036610071654
Ni 2.7592953493386285 1.3578782023800684 9.419340055754995 -0.7006243258988256 0.4613862620649667 -0.9051794936385186
Ni 5.8258481411400505 2.133725689690861 2.5413938595358623 1.535696264086981 0.06982344855104104 -0.018416040613342476
Ni 4.129461672923416 6.955647931491571 10.576599035918889 1.321299684776834 0.6513375638485557 -0.10441378493140083
Ni 7.960244916417 7.403788003412159 0.35235983508238805 1.039190789721378 -0.12216493826723476 -0.7395176605299134
Ni 7.721646784390315 3.63089042608073 8.312663698206274 -1.154524306889076 0.1005141927666785 -0.4327038065286097
Ni 3.304098951828294 8.702229787802759 12.475141875092806 -0.72245119196593 0.03399229778504469 0.12403593003770251
Ni 0.04994690505321818 4.859294453966501 10.176803425496631 0.053204094826805146 -0.202449948471232 1.687883716858235
Ni 8.404857254648558 1.9945298429224236 5.955632465999812 0.7909363813215217 1.2744665264733792 -0.407215432449518
Ni 3.7309910030974747 2.9551072408901367 11.540218083961927 -0.48425699601555305 -0.8455373564958535 -0.2645801421430734
Ni 1.2071106636136817 3.685493214105537 12.703729042545401 0.4636326348969822 -0.016319820205946085 -0.8904244468165311
Ni 3.1394562651333318 8.049172825297793 7.8372784583629285 -0.3543126709132156 0.39995103757762085 0.23882848710026613
Ni 5.462219509445867 7.876477111569775 3.655873854203889 0.3622478665998923 -0.2731686551430328 1.0583429371697968
Ni 3.058617658182139 8.538484904797293 3.5626310463790327 -0.8890746176568559 -0.5516091002079662 -0.45224624743691144
Ni 3.552219244198119 3.929741161269152 8.987861043817661 -1.5230286959216417 0.9373316528910309 1.2119077299045515
Ni 7.289549285466884 6.16953464845846 11.530821072011868 0.4531389344545099 0.24014823435295415 -0.3615269292734677
Ni 0.5674237211028985 9.026055789262617 13.186586911077079 0.3687113628370489 0.1108428283861962 0.5130327825966648
Ni 4.480602671481882 0.15498449548977755 1.50132183953396 -0.5003413031719254 0.5494452597874279 0.7578727659983335
Ni 6.139154422601774 5.83584187513828 0.48444852274518835 -0.543204935304671 -0.3535349122069266 -0.36664419589537506
Ni 7.744536244110398 9.087042959079396 11.396963076270069 -0.012457509037062416 -0.2490733047567259 1.0063765714048345
Ni 0.07515977189702623 4.8562564313808325 5.932404742869445 -0.3149004876641803 -1.7935223753356724 0.10433433784371708
Ni 8.447262608710009 9.008689182541557 2.1062646861336582 -1.5326538777162313 0.26054993793775777 -0.04165367098504439
P 8.512557422491541 1.6359162156756266 3.608820779022572 -0.6520052793395417 -0.04665549507500997 0.32377670710788753
P 1.792768868337487 3.3387596154773242 1.5157229734624424 0.010655679941633262 1.7919267487137784 1.6590181987767947
P 4.509912787890482 1.0141100765444337 8.256466628478302 1.134081208543376 -0.5402985602911534 -0.019982356659197842
P 8.335762645453906 1.7558047487578303 12.580409811122427 0.38496999078775634 -0.1394473794967663 0.9000272600136177
P 6.452986690063403 7.94763938986751 1.739081114578035 -0.7293749156689567 0.5009876785066727 -0.6135240925452079
P 1.6465175541909893 3.3364742969949712 6.176176582015903 0.028227884497441708 -1.0980006607707349 -0.0550300922919504
P 6.83787241113313 3.746416902853362 5.929869127600929 0.8390658898388969 -0.09740624326531612 0.7473330428092742
P 2.4355237602235884 8.268953354741607 10.34130826758472 -0.7664705349696735 1.2102218575616965 0.0710578351787744
