# total energy = -340856.9730559234 ev
CRYSTAL
PRIMVEC
9.34308613181251 0.00000000000000 0.00000000000000

0.00000000000000 9.34308613181251 0.00000000000000

0.00000000000000 0.00000000000000 13.67455096752511

PRIMCOORD
 96 1
Ni 4.865701729723492 2.2370337945338923 12.637746045338194 -0.44392795737920326 -0.5320219221046579 -0.24897765971912603
Ni 2.2714817530375444 3.2154604586020965 12.279965642909266 0.18013457280348333 -3.7504044180093343 0.13872592794970945
Ni 8.028270977832184 4.7717196264991255 0.3240920368263733 -0.342898515539003 0.49201941356979134 0.1168332416416762
Ni 4.185244768014516 6.8623005461903945 11.983843068674846 0.02475766656065414 -0.004323309965702231 -0.3015289514532807
Ni 2.3639315901391553 9.229492873383462 4.958242194760412 -0.28050632645502654 0.34965434620559777 -0.636841941335542
Ni 3.2362581682926663 1.254916611450515 2.9424900517590653 -2.143228657825128 -0.9602952036657396 -1.3438042936372534
Ni 8.991552499309009 5.181946508522413 6.7488698749103735 -0.9502010526545313 0.07544336584097976 0.6643830841786043
Ni 8.930074992676508 0.673514114417393 1.684622893713635 2.0694110005130293 -0.8666836515561656 0.3836008783543716
Ni 1.6858944877337996 1.890825738566213 0.4764899173635641 -0.3037393288410382 -1.0269693079545215 0.058897288556840496
Ni 1.3056308828792715 5.593780401357369 5.231007988017537 -0.7243136990959654 -1.345583497024863 -1.33190471398619
Ni 5.923040099113596 5.686052719822807 1.3326903288836862 -2.831027035603879 1.12575211985239 -2.13080740134264
Ni 5.519259946509219 4.780221834863195 12.983315968524261 0.9302081544723722 0.8377096329213186 -2.7588628547348035
Ni 4.141864819185534 3.7398318236845425 8.832282778934704 -0.06220372722225415 0.3201635358353325 -0.7674267282353557
Ni 2.4623890316123007 8.79322681035945 1.2595358332254556 0.09929574697854512 1.9399742111747298 -0.5809692985376381
Ni 3.368070427194083 8.746707584596042 7.016411948720959 2.3083911826998116 2.0707227773459174 -0.7192077453279678
Ni 5.485101623675112 3.4360787510205233 0.982887987687812 0.13696652205644155 -1.7501360379302375 1.9032822550703352
Ni 4.943669783347841 2.1261220192703028 3.8446276147776706 0.6670614023417157 1.7870987311975157 -1.4203977139222763
Ni 5.830711722131472 2.367145611762496 9.901551334984237 -0.504349395890054 2.111059015071119 1.5485432952529783
Ni 4.742718687200146 0.4172435396951726 10.568951333848391 1.6749724081132058 -1.886730521359241 -0.21282769216113026
Ni 0.27808761510786684 1.1690816793178724 5.9078846791274895 -0.8658837813626895 0.18526263805866802 -0.36199769826229916
Ni 6.727713390713012 0.7580877299245967 11.806457104324796 2.2926819994946706 1.103413861366506 -0.07701456698284156
Ni 8.837606469402669 2.881435786927545 2.008997091740662 1.7546704354654812 1.1586902653413078 -0.9355231389273823
Ni 8.143770208377926 6.05459075160381 10.757782578688538 0.026442253351928655 -0.6983324445408554 -1.0096560134870547
Ni 2.860909026734292 0.08540701878860477 11.470718910656869 -1.8582131306458383 -1.1915903585034382 1.9040013926245465
P 6.94949022580962 3.4965004889221016 11.527578129823041 -0.24789805350170208 -0.44211044455449017 0.8622122460483731
P 2.6556787971462192 3.8559009824832597 5.554261015710841 -1.658869331903756 1.2906331089309129 0.5080666968406412
P 6.497032594549418 0.6225793461563377 9.11211941976318 0.21829668569550148 -1.3529023992837796 -1.4733141023053336
P 7.101371433684687 4.097457130883972 2.4454201186113966 -2.430652794445911 -0.9730303918442211 -1.7587536043959193
P 3.815286587144129 1.402621459832462 0.7883649347867977 0.054399657796803086 0.0899436163396838 -0.2795964130462475
P 0.5255943750548158 3.744213731072178 0.03732562902687569 0.6890173377875166 -1.048130258302853 0.3822775315572578
P 9.186337158621225 6.774111156356933 3.4273756663049952 3.3887245080977704 -1.052501133677039 -0.13190144882870833
P 0.2774027668956841 4.708037151543635 9.155070520939514 -0.36894430478346135 0.44690246662649485 -0.4443681302404153
Ni 0.10418008171819208 6.9276834628187 8.682410334574225 0.30277979314124626 -0.6701922346612136 0.17619307165723203
Ni 6.398818073315246 2.7258827462095345 7.56136986974779 -1.1902922085173049 0.11472750815258306 -0.2786726156803975
Ni 2.5010226926951873 1.6729262842070654 6.33634926524601 0.5414864099516675 0.35043030513967394 0.8522973009275063
Ni 2.283982802258561 7.70087989729883 3.282329860231196 -2.5416408901607195 -0.05361881376672056 -1.441813203483575
Ni 9.322447237135249 1.570180366207428 12.05895774379987 0.0008659475447210894 -0.4959781411072232 0.47573867413189674
Ni 4.10473539496706 4.28365549405709 11.320928685454197 0.8143660730993717 -0.09253477410562773 -0.22096163412217432
Ni 4.058216169203652 4.180974977660252 2.949381512077019 -2.154679322864231 -4.030282881072375 -1.140659633091842
Ni 1.3808800984443421 1.3051824147457822 10.218513662796742 -0.05345940537072084 0.9547539621325363 -0.5714287060370546
Ni 1.7468207522855534 3.5041337902775354 7.639602332709177 0.08114607265271187 1.458767057729094 0.628986192736549
Ni 5.574608388650698 5.273181744429155 3.6987474711138586 1.2293441802134442 0.5573105214681175 -0.8283919550648186
Ni 1.3612689606902963 2.9275252307296924 4.174143313093431 -1.5159789881637118 -1.5589750321092635 1.9971840847268185
Ni 4.689313606970453 7.475132250603619 3.0270122802926402 -1.607886927318618 -1.792365893133726 -1.2866036760565456
Ni 3.0839565215424534 6.921442281294306 5.187441177466268 1.7980053508076905 0.17356206179228817 1.5688359840637434
Ni 7.77820327798129 2.1352408713179196 0.15883526686998617 -0.4738496846393 0.17213612797903904 -2.0387835054351595
Ni 7.8266658656564845 6.654893377537676 5.066735979337604 -0.829456648883907 0.45382207656446355 1.4107931009529768
Ni 9.208639105176207 4.002811668545486 11.588538963793418 -0.9901904485632754 -0.5005220517241638 -0.7036332879284785
Ni 0.7030989965985198 7.729507113153235 6.018552599843494 -0.9575898889194345 0.5073154204969134 0.5483736239898039
Ni 5.0050445160330845 7.104323848896826 7.742421126780506 -0.1516889158682807 -0.6341283990591208 -0.19308084855150617
Ni 8.638103551602699 2.991431939751928 7.592561762740588 1.2113150906258752 -0.07737477853573771 -0.6030604740097227
Ni 6.601114573863409 1.7554631069413382 5.149958584592671 2.470801341640338 -0.5362686131961538 1.9459875072483457
Ni 4.062616762763517 1.1735383313944232 8.478535786781347 -0.1465775627836443 0.5359359124470835 -1.0027492590648925
Ni 6.120515567226748 9.338367855874122 6.910611775870538 -1.5454428019507835 0.7847546779908421 0.6855244941429097
Ni 4.3976411446523045 2.993431360180401 5.8984079868816925 2.521889161455089 -0.2981626060842091 1.3094222166129579
Ni 2.152684413093433 4.326717777958184 10.318077325665827 -2.028722521654732 -0.9744095315799348 -2.3053428827917912
P 0.9596937764089086 1.5564647157915446 8.067096172180415 -0.3234979995252042 -1.2982464025017963 0.17288071945454742
P 8.159148928122166 9.168211571559363 13.64175968503919 -0.6297534099198767 0.5582595156449482 -1.9241256741782475
P 6.159317403859693 5.011379128418621 7.583249508810403 -0.22154527453978617 0.015230443796509254 0.5865493637285769
P 4.443188689459818 7.311404009535542 9.890816129038837 -0.12891819783066832 0.4659270873581137 0.1874233931554127
P 8.423997390205983 3.1353434951714436 5.341813252099423 0.14171509248502043 -0.36027968712992786 1.2397399216254714
P 3.0644948731662374 5.85064986789952 2.7214821526496698 -1.259438171385347 1.1010451040240135 -1.6061007819524726
P 1.0231893896421118 0.4465425234412 3.366687650449158 0.4016896175352824 0.6132088752976342 -0.382883797682689
P 5.263259386975704 6.730740550614065 5.061854216842851 0.5363578304758505 1.6161653652773262 1.7895685328942468
Ni 7.449905918094842 4.057412663797817 9.481346036990812 1.4998448016060106 0.018482632185219783 -0.7493706420645933
Ni 6.396538360303341 4.282739871617882 5.346804328701716 1.7589094132474932 -1.1436657669080172 2.880057458668969
Ni 7.377169992694535 7.429612735054448 7.54727208710983 -0.18615738195879553 -2.3751647886809355 -0.9503812869861374
Ni 7.314393797092137 6.304331443440704 2.7309990201657586 2.1250041643973017 2.54481671678554 0.48231169936372426
Ni 5.712671172162624 5.441506783865499 9.955318926955167 -0.7525487826822588 1.4133580334666755 -0.10356172134375068
Ni 0.25044983207297294 7.743615173185922 0.9830365427570303 -0.17633448233110277 -0.6527701825300242 0.11883998765905986
Ni 0.21783031552190135 7.2557659317245164 12.094100827910431 -0.9883415682799946 0.455228469993687 -0.08200482110858136
Ni 8.336807710586758 1.7799980510776523 9.595610111552235 0.1487465454105051 -0.5997823174790832 0.9681692070971779
Ni 5.960879597876761 1.174799648019862 1.2139266240495867 -2.880704348224348 -1.9930782900885609 -1.4194322646852136
Ni 0.7829347331371307 5.213806432172386 1.8430283786223605 0.005679309772964413 2.110848698832526 -0.3099611413810339
Ni 8.340386112568558 8.698899012948852 3.629773072183194 -0.19942376005039847 0.8636818886153641 0.22121411645261255
Ni 6.624462946063199 7.713334231089275 11.35503281838884 -2.1231128609118595 1.216217155913183 -1.0749185821402907
Ni 5.834009831529841 9.182058025180847 3.6787280404966154 1.432827712155513 0.8415819713925312 0.7056706300734815
Ni 8.684828325260623 4.371583277479349 3.646209429275579 1.7241583829195533 2.3703072034783177 2.978744625529238
Ni 1.6249121646653597 5.222448786828171 12.609768173968737 0.3350895610175455 3.8264195971933845 0.35825468628009915
Ni 5.454474987392234 8.858049141820892 13.184003589643531 -1.3047204402619144 -0.7429313141971527 0.6602209823811146
Ni 1.786566240616049 8.639084575644707 8.887227599756043 -0.36750628678535413 2.3543149418151197 1.5255797444782695
Ni 3.369864299728041 6.783099205198949 0.49979811429306265 0.061027447525965874 -0.10012621329964047 0.9856159418187154
Ni 8.602254130181892 9.213114443424987 7.975518045013276 0.9292984981739093 1.5255802586989018 0.34652582787894515
Ni 3.1359975111994487 5.534732097114603 7.299585005600874 1.263548851119611 -3.0256654584504927 -0.6016394252924799
Ni 3.362305743061522 4.498191437415067 0.44064329886859194 0.15982131516742798 -0.7752158852624713 0.3521264618951742
Ni 2.2643529783322864 6.535797058837905 10.338726480287178 0.36281273796442676 1.5227109075709067 -0.03389305320301905
Ni 7.1973903296819834 1.5621079398046194 2.781006954284269 0.7492230607431355 1.3635619358801547 3.03858885138038
Ni 1.8770540296336435 3.360474498183107 2.194656358844981 2.011098123704749 -0.03932245174870647 -1.3927498702980208
P 4.441609707906491 0.5467508592521768 5.235137632080086 -0.2216334633782183 0.17608457110382578 1.048812114861226
P 7.054936295696308 6.340704077683915 12.75661906427983 0.03871232896853333 -1.4192461168163366 1.0239775723160494
P 7.896832442375342 9.197408715666743 5.749916450648915 0.16247495074019114 -1.4418286301025427 -0.08491633832842149
P 1.948864989508629 7.936923624892069 12.952917303542575 1.630162965107999 0.012392460127081884 0.2695110037857874
P 3.3840284182774134 2.2405187656545493 10.34827137706161 0.407691086534356 0.3172458479679053 0.7715106684967422
P 8.342394876083146 8.317691756396773 10.276096971136777 1.404011302144453 -0.020166190535229785 -0.8829523068092019
P 2.2143768107065647 7.234547783158801 7.546642363105722 -2.582731489553442 -1.4660867313189592 -0.37703273821855066
P 6.139640864502848 8.220234025137865 1.5184766619591608 -0.22665559918315803 -0.7004924283066516 0.7347348944292894
