# total energy = -340854.66811810207 ev
CRYSTAL
PRIMVEC
9.42142578796205 0.00000000000000 0.00000000000000

0.00000000000000 9.42142578796205 0.00000000000000

0.00000000000000 0.00000000000000 13.78920897299108

PRIMCOORD
 96 1
Ni 5.079222391474384 4.70326040656621 7.389857145943283 -1.3607997997539854 -0.12125451063782343 0.8062102767614566
Ni 0.007471190428071218 0.666593176845246 11.138908982032378 -1.3331537559019426 -0.6207756319012986 1.3539334116514552
Ni 8.586837951060476 5.809326339813541 12.030173950831182 -0.6810068087782143 -2.8078480263842547 -0.41611427760104464
Ni 4.865167603926115 3.265371866917029 11.384826088507122 0.7422250321587476 0.917927023112174 0.13698426266825442
Ni 3.7143404780889147 7.011029163395488 7.48760914630451 4.614216404444659 4.854490622852517 0.2537401141047759
Ni 0.2430077702777853 3.3136849369235217 12.659141722766535 -0.566294984354915 0.5095988172144513 0.1661364587521784
Ni 6.6726680876908855 0.5883209158649524 9.280095646379275 -0.6192147151720819 0.8572387040931817 2.4740365607481842
Ni 0.5378946201169504 0.4795486740866828 8.046017036180652 -1.7217533730224863 2.857216292404737 -2.6242185530536353
Ni 5.24953350038768 5.848331041417847 5.455135384969916 -0.5993768545105485 0.22358955866332464 -0.7385930918331152
Ni 8.966248177704683 5.02343813103982 1.3207632620152656 1.358973030957892 -0.1671332754478089 -1.3716429131160763
Ni 0.5007845671823606 1.6623916880861416 1.629470400932536 0.43811546446248417 -0.18371483395557392 0.4744844900098215
Ni 0.8101380158894995 9.022484666563646 0.4712625303521447 -0.23221612399007102 -0.885263728551198 -0.3594507634707293
Ni 3.9270574232150084 5.812369460252717 1.2663413397091992 -0.8533229139785433 -0.8498480680560654 -0.9846540921260785
Ni 3.0189073756202527 4.13786181896292 12.955678264212201 0.02501169155298918 -0.4032618471184087 -0.09715118983171656
Ni 7.010972634842439 7.78009070621141 12.685712969127556 -0.07088942792171017 -0.36412477190763093 0.7857201272279049
Ni 8.476880493953264 3.262611389243101 2.3764594280676437 -2.6939201313148313 -1.457621117050109 1.7716152908499356
Ni 4.806528651562539 1.6158969532027476 3.115492061361003 1.1470771065824115 -1.7278252902481792 -0.18311422425709753
Ni 7.043052588698154 5.848783269842245 8.142320963441255 0.5701786356800373 -0.7420833643745608 -0.05564947104350415
Ni 8.413577935963087 2.4557887729899672 8.357998120462053 0.4594360803171314 -0.5353260467772264 1.044743086998175
Ni 2.4021337547202752 1.882871887831063 8.447186045036247 -0.12410277871989593 -0.03898178057983609 0.09391365673102536
Ni 4.991329912907579 0.031414801214830604 7.006517242719569 -2.1179680834861268 1.1015423553754062 1.2517323181006572
Ni 6.1816799187520415 7.66741987855781 7.31798768573842 0.5290738952199276 -0.43708316654322793 -0.997765946917688
Ni 5.417903795646269 3.9752385932643852 0.16063059420353118 1.3855309839520782 2.7808429585503207 -1.3285226848878346
Ni 2.3389065681341643 7.385596777328436 11.141722219689152 0.5449993082009325 -2.057590353729018 0.11943185560678785
P 6.413154922065133 0.00011870996140441028 11.300738923703115 0.5109000525243782 0.2745205411852369 0.8018645981982513
P 8.986532506824025 4.727529998675557 7.251910517936053 -0.5600911695370483 -0.5770537655333159 0.31739394350999534
P 8.572376062905256 6.952211203947255 1.0985655364001834 -1.4036899142492922 3.1943125994396664 -1.1303793342117565
P 0.36492007421246214 2.4397723496258803 10.263831906541911 0.12219322040200893 2.034559440051483 -1.3024241880285699
P 5.781222227522322 0.7098686106324585 0.6777179960854308 -1.7262319776191304 -1.6249919624300206 0.9133250055637884
P 8.153518327657855 1.7189673482634025 5.465890884330175 -1.251338167986032 0.5841533526925746 0.24244602924819533
P 5.5668659543577865 8.74764284163591 3.093002176530172 0.3653689287273772 0.2700928444311865 0.3110911412204191
P 3.6015000647761672 5.316321985815923 10.82098486254035 -0.08860432870297 -0.166287639618062 1.8079526918283897
Ni 0.6073248732577171 2.3881052521384363 6.690303111957296 -0.1423866646307483 0.24052310119386963 -0.6798719238428227
Ni 8.148619186393544 4.539063802807793 9.539816083366208 2.5179422609921995 -0.01109148192747122 1.4989120053790959
Ni 8.940169671897745 3.9476432379506146 5.070015774467687 -2.306060477684106 -0.14934124157171053 -0.4135840549800232
Ni 8.998639038602173 8.379265104261908 9.025464663451917 -2.712168536002058 -1.4317604472332632 -0.47082940975573756
Ni 1.6921539712668188 3.8845573727471274 5.1813223797076855 4.129265210575559 0.3687545573701585 0.751661494981299
Ni 2.1719683295528354 6.274744759922896 13.194190130237432 -1.9391110918434862 -1.4727032081942122 0.38313165202743693
Ni 2.8430282042315596 1.779952235578541 11.026582036409833 -0.25322897879631223 0.5960655307491283 -0.06833169449686295
Ni 3.372615953477854 7.937192976562088 13.676522835561812 1.1055586756236508 2.1554735366307525 -0.5281362138970066
Ni 6.610788164952459 9.40691651300377 5.163562050482015 0.5513216508745343 -0.1334507955936992 -1.0213912996461119
Ni 6.247111718907091 6.4232170045079835 1.0732275546381977 1.4416558519701044 -0.2396862071148711 -0.6837712588972288
Ni 5.848792691267754 5.305722882119101 10.403296326198527 0.0948161139406367 0.37163470713143093 -0.04130091563131597
Ni 4.358332597282333 8.930493867900735 9.625653749029658 -0.965776281384969 1.9456848884062619 -1.6763600324893517
Ni 2.831383322303318 0.5985214932627743 1.7331654365043903 -0.337921888260018 -0.5637711894917968 -1.2564644334690038
Ni 0.5004293794406982 9.083092696858452 3.10568812597708 0.43992166443328756 -1.2733833207115295 -2.563020127167444
Ni 3.936497691574311 4.555946997318642 3.291718883350952 1.6662545686242334 -0.775427229942329 -1.720613345880772
Ni 4.374396127773961 8.789954463593626 4.975159920307707 0.315859766253656 -0.6674843488117472 -1.1787664672658924
Ni 2.6880174903437215 1.1840941793069593 5.985205511202233 -0.5145155377897784 -0.7982935930175412 -0.8455566397695632
Ni 3.754880872051072 3.7575942425974582 9.309205024772227 -0.5643383748491765 0.5879467582967358 -0.2147789023502301
Ni 4.936685644959518 7.8858744718184495 11.554915793920971 -0.822880538328286 -0.6469674598053181 0.29753217158906176
Ni 4.965599999844449 5.914648455570676 12.799598218529173 -0.418342395600615 0.07630494251032666 -0.43284161765805457
Ni 7.54337739031571 7.687562886294526 3.173104078344175 0.6399748305375688 0.02132292984749231 0.24831585776541107
Ni 4.1119623202406395 2.624102539695506 1.0900796584448698 -1.7312775104628377 -1.3680248567475148 0.7733469503745326
Ni 3.336597843759675 7.816674101460086 2.170849064202451 0.5303792442949123 0.9108037818038314 1.8221598365667069
Ni 4.536520017920556 2.2677559626955843 6.906628463053063 0.9257493473700701 2.0987503729070953 -1.4620220743312822
P 9.180783457953876 1.4130725048603554 13.39458856151144 -0.5987163381084141 -1.6738699190776463 0.2937745043188425
P 2.35152185688976 9.081387418841453 7.647894916334438 2.4175674220168624 0.4663212374727388 -1.0663002443436602
P 3.1403872361240994 9.23025536329789 11.740022309452483 0.7473839506518677 -0.12175279043048062 0.2506715024817812
P 2.8711511593737953 5.448108885825835 6.9398465251101795 -1.9865687711048172 -4.812282364915584 -1.3666899399861752
P 0.8647568459886891 3.2182458965245795 3.3977297053127424 -1.6920090518805182 0.4498306960168834 -0.9857329270125539
P 0.41090887854606123 6.936797751815698 10.20349050258899 -0.2874681024848404 -1.6348331168901589 0.9997636940740072
P 0.009894381068802515 6.49306745322642 3.8507193808915656 -0.17244388902744495 0.2811452455906061 -0.30421061205050187
P 5.116079008062801 7.011669820330052 9.181434478456499 1.521420213783941 -0.8015627506871164 0.19628624286268131
Ni 7.321173069702772 0.9489636628966525 3.021946727489226 0.38045719051906735 0.17623523774907712 0.15245304772781487
Ni 6.352480941791768 3.252238399758477 9.050491738172129 -2.352282998986755 -0.5820725589041459 -0.4672206093585566
Ni 6.857177284845169 2.373266506962885 0.6192316708150897 3.158377318995638 0.4613119571836055 0.10217538251918533
Ni 2.647382882126482 2.2637612782800707 3.2275439013587075 0.05973546818741971 0.3062821498675499 1.4808872866669012
Ni 5.2905449656252515 6.554325561881299 3.178316010935359 -0.41471919702573096 0.6805098145371377 0.3862712260976831
Ni 1.6988431833777022 9.19241891845661 9.819005896166018 1.5469121874074585 0.25448856223502625 1.1206438520915474
Ni 0.2247358576470144 0.2377072762868233 5.1154242189899755 -0.2479481900133472 0.14383573837244906 2.9036517010491414
Ni 2.298752452617847 7.9921575729774315 5.68712479811576 -0.6372828855277025 0.2861766373669265 0.12180601226591928
Ni 7.242117888262739 0.3095908686299479 7.315009573135251 3.2568515985141526 0.6287537650107687 -2.0564747520673357
Ni 7.579084592992116 8.970431290630362 1.0461277663061623 0.8528608867404602 0.1289829896303327 -0.4427362510639472
Ni 1.4274496001860006 4.263100828244572 10.861014615239958 0.81674640040609 0.6438996195132717 -0.8158341730044659
Ni 7.294095892791956 5.220590881226224 3.5974111661055703 0.5851424560787213 0.12210168912946713 -1.0270703523087603
Ni 9.271191457131394 7.777075850048757 12.131552257870547 1.9275447271621255 2.8339089851373647 0.5330454782731658
Ni 7.103962104609226 3.6751002408469016 6.639600768441901 -0.17381068746798456 -0.4301861823130784 0.16450792200981992
Ni 4.9771412460921 1.304848590046668 12.593532799811928 -0.3634161758763806 -0.8396310183137474 0.019339066648244113
Ni 6.242674227492688 2.8763235219778447 4.42131671109033 0.3205633423769125 0.6831490519321977 0.12036516605433464
Ni 1.1947215472803068 6.853832678789727 1.8726986325672155 -0.91070093767738 0.46427412513572297 -1.9345694952193908
Ni 7.55184725184766 6.030541410748109 5.678520210199041 0.5648204566919176 -0.19537915766737962 0.48390681176498596
Ni 0.9823814591745448 6.113129626753749 5.858151935367685 -1.5956993841134905 -0.7197250512840185 0.5206787291776969
Ni 7.514133285537988 2.5763735980705262 11.07620939527473 0.09208945903809301 -0.44430179577885415 0.39799777050599194
Ni 1.551689938363775 4.262271742799843 8.247766499872549 -0.5608835835313566 0.4175512671578874 -0.4311161503265156
Ni 7.300172712244802 7.384833641862264 10.275566292012483 -0.7532635493610963 -0.11713020405680472 0.033020420790078615
Ni 2.3160407684255526 6.040848450254175 3.52561142444947 -0.20700491483176606 -0.37499359630133483 2.018627342202259
Ni 1.7382341634278482 7.214145675928637 8.371442494662377 -2.38013678797423 -1.3522999898130903 0.7762132161787341
P 7.184948678278458 4.242694020593624 12.510576206068915 -0.8663203546794759 -0.2767005795556912 -0.3315630359215257
P 6.164043010200529 4.049130833525877 2.2497779985406723 -0.33888990860024215 -0.590310373432906 -0.23736141563643634
P 2.698635436891561 2.006207769160042 13.299167421820965 -0.12684923111678154 -0.12644299681729837 0.23717449643661087
P 8.556029889648379 7.579244757225757 6.6240874491999575 0.2532973701404025 2.181835314453733 1.3506367431780546
P 2.0986790605238745 4.348298779116007 1.6512715795587112 0.5220702102085847 1.149873438380626 -0.1463775309576963
P 4.532704340589699 1.7942633809256283 8.912117377446823 1.4698631676422556 -1.0815299168092212 1.6956924142693763
P 2.5855877522176303 9.348710946213576 3.9688649989080296 -1.0485668316196393 0.9087379004137381 -1.1597495598437575
P 3.919915982679727 3.4345052976417882 4.939142752732079 0.7612619941855406 -2.0280956867040105 2.358922872900776
