# total energy = -381166.6713612989 ev
CRYSTAL
PRIMVEC
9.30472753370916 0.00000000000000 0.00000000000000
0.00000000000000 9.30472753370916 0.00000000000000
0.00000000000000 0.00000000000000 13.61840928186073
PRIMCOORD
 96 1
Ni 5.238403484361768 7.778538303370257 7.65983789278947 -0.4297547512026147 0.30582577905642166 -0.863923315202209
Ni 5.905812988958356 4.882897755188756 6.158435414076119 -0.04992465274458499 -0.02824562510925458 0.27623109611844043
Ni 0.8677105156877912 0.29675847023408375 4.020249941813185 0.22623368115439105 0.3935186516887158 -1.01787685873495
Ni 8.858845097260756 7.576365181076667 5.005487541925595 1.0368063486496015 0.0016956425348680477 2.114965806324693
Ni 4.902679606164279 3.9904906313827917 4.3338136806488174 0.2332713047274628 -0.383621704289978 -0.961785157947705
Ni 7.844322727827901 3.484983387827647 10.280918259482094 -0.13088663441094878 -0.31786831204325255 -0.7307975070480963
Ni 3.6183666586339163 7.885002997096476 0.008556627543316729 -0.4372988820984598 -0.1270870581592005 0.36457831450528183
Ni 7.502615909753996 0.4561205406281525 1.291410593778777 -1.1738016670614495 0.46548177229057897 2.398245838870115
Ni 6.075466088128967 7.262637679034464 0.5981218501802026 -0.001410250083965313 2.3172288355960995 -1.838109675027744
Ni 8.227910125036722 8.727378600349574 13.094563686700987 -0.7354882276555462 -1.3487135580134129 -1.4771471028981786
Ni 8.495635053596805 6.522120929322782 1.1986778171126145 -1.4586482727630428 0.2746282704076948 0.09652821153573699
Ni 6.606821865084866 3.2257908945190015 7.8436593007467375 0.2247961773769161 -1.1069696970385645 0.3588866634371432
Ni 5.829998068098259 7.695223772027436 5.259878795768874 -0.26829255799765406 -0.6702056043976522 0.5833257145849567
Ni 5.607754648272118 3.10894212473978 13.003442488863122 -0.3329509174079879 -1.800159421036216 0.017918532151633654
Ni 9.39805406434993 2.769273042020362 8.512364023431656 -1.0164784357255268 0.973548212020904 -0.2761871302543824
Ni 7.419980623529337 6.484818276189728 3.4633926977977296 0.9582054110162465 0.9437249580118843 1.9879975331315438
Ni 3.81042554197624 2.035753447498518 3.9774882049701876 -1.6962557429720142 0.9091459344854342 -0.10728724982445394
Ni 4.511490246468627 3.0071670137471767 9.042324091240648 0.798774646419018 -0.5232066378058731 0.3869692806059723
Ni 8.144707250425656 3.496121146819981 6.02758954249893 0.507956653625338 0.06493141056606237 0.1998891297225912
Ni 9.326407661475267 7.385599654877145 10.882443779035224 -0.6345883694146749 0.47915772711577476 0.5656884611191677
Ni 3.0375283400562703 6.912565910806751 9.56301013700481 0.8965503572086108 -0.6593131258548646 0.06565440477501595
Ni 0.4947798230520024 9.308542584394834 1.0465994875198814 1.2767095568712852 -0.19363672105497617 0.44228990755514797
Ni 5.747679142613568 7.993821786917147 2.7935444240851095 -0.580998866223993 1.3684992252807722 0.2283684681092067
Ni 4.081630438675949 3.0388216971990727 1.8490801405177342 0.31535891535783755 1.2024005617450646 -0.680216451666435
P 8.880050571566127 5.465150392368603 5.008619513251259 -0.27298482126700085 -0.8523908890825771 -0.04020691123618882
Ni 7.443121481185089 6.6963705639505475 6.604451950953415 0.004671437333740341 1.1589358056932106 -0.8226673938762155
P 1.9248876175957137 2.38405731747348 5.898173807560941 0.06287658491956269 1.1927668953100428 -0.22693096433173174
Ni 9.134506958502927 1.8271507584014999 13.33979071428566 -1.3647233031781079 -0.14883447713862108 -0.740752561378279
P 5.3661387854868785 1.1898513524675618 7.897683479932526 2.4957808944038113 0.9764386461948215 -2.2794161356237
P 4.183479987489721 6.664808927775112 2.0877705969310516 -1.47244301255429 -0.30754224752689613 -0.9068766788352833
P 3.545724649901126 7.7339128295797535 5.969329851288655 0.5006673190527765 -0.5722123782806146 -0.3639370813768571
Ni 0.7052332224778216 9.390703329509542 6.35665123570184 -1.5467316959655364 0.08139752654188563 0.44389144771431294
Ni 0.7595170035649355 3.5987895116666064 4.373552311479611 -0.8644892150080079 -0.7288982331428544 2.5814418242077415
Ni 0.22634494377252512 5.554978233063666 9.522809061210006 1.2026599860540386 -1.1429975371963992 -2.123796774352762
Ni 2.3945158313476513 3.530930132943891 9.472801732949023 -1.30951837587119 0.30492152207459744 0.3407138491828584
Ni 3.9377793492678625 9.061288056656082 11.461403473101132 -0.20694269413526295 -0.883168536585066 0.7203354311745078
Ni 1.1828355878224328 3.0832703811643007 11.599412124020258 -1.8807092548658255 1.859658090622481 0.38430767461340914
Ni 7.846220892267698 3.877028782466737 12.586896815859191 0.5837214073614785 -0.9833186611441065 0.3407760698793615
Ni 1.929456238869929 0.7590098959082252 12.569165726856859 -0.702826475756467 -0.7083299220731994 0.2114251553866488
Ni 7.192973183148412 1.1719490564765427 9.127834538307939 0.7294006267005696 0.11404539448389392 0.022708240230793153
Ni 7.378537366593787 9.33599153095071 6.6678180766958475 -0.19731339857561503 -0.030614382451747274 0.7829345940629677
Ni 2.7218747593913326 0.5126625791149649 1.7560942752595985 0.1396201576292047 -0.08212232052305211 1.0182686948567303
Ni 2.6266967002997856 8.603932778669297 7.812854138928927 0.37117345122429624 -1.6511868756578338 -1.6227723290708826
Ni 3.9000952023013196 1.3911219161794848 13.581680136063694 1.0288865795818924 -0.03728716648623256 -1.0251276267600926
Ni 7.101712414395857 5.992626097896095 10.400828284656868 0.6607899675107072 0.06590174489913166 0.007369038770561503
Ni 2.0431786201600737 2.7572885528122364 0.3540858277342237 0.22590920793543673 0.8894317438859586 -0.06677129198827855
Ni 2.390570626825722 5.37492244838476 3.043319602543178 0.8101911157860755 -1.2695318081759233 -2.4846292486623662
Ni 0.5587693655467212 4.980094940179497 6.966197430485875 -0.1898003780280215 -0.758585475794642 -0.8067342675857266
Ni 1.6007481253175693 6.823761590152754 4.485781283982563 -0.7202174175394047 -0.8193748391678727 1.9503424417829314
Ni 7.252904933916685 8.741828842383907 10.86027340447296 -0.24185724662426092 0.371044896066232 0.9550118437796132
Ni 1.9067433986858966 2.658937581593383 2.7365380796887586 -0.2800766951167757 -0.17025690867845517 -0.7036993652797235
Ni 5.53201416523319 5.231713385184251 13.120928632486098 -0.9996611070578718 1.5885172645427545 -0.06857903462097867
Ni 5.327198500288118 7.6356642103650065 9.96514836972158 -0.26204323465383256 -0.30766591758895395 0.7640084465824262
Ni 2.453293795887812 6.038656585561154 7.477555486784863 -0.04997273237370103 1.6888972457244138 -0.7843350739549202
Ni 6.359716212988452 2.0296681556179945 5.623599668980593 -0.28842326730925805 0.31504009856583803 -0.34694620324581543
Ni 6.996857438552407 3.4733524782700718 1.3229880479912106 1.0184126766337622 0.5084526194251501 -0.9654399810914729
P 0.20524089099849652 3.3403786154802293 1.1861583060648409 -0.16486916200398058 0.8131188309558319 -1.2272281623117058
Ni 8.639197696447864 2.2668921869542933 2.7481001342617524 -0.4312637316479734 -1.363124077011788 0.9780800384529865
P 4.969710864126495 1.08027887970756 1.7973439938601115 -0.5631685229107913 -2.130153569808725 -1.0742117858812532
Ni 1.7372205657023305 8.686716940536293 9.893556864740031 -0.6010699259422552 1.4371456228045765 0.6961788885329623
P 0.9101251861895909 8.162460670774337 12.669791703985174 1.1689775061999286 -0.7097214031040874 0.9117232082943073
P 2.807273549726871 1.4617168848301416 10.748642725957646 -0.46904043617611474 1.5527755881667709 -1.1782139371965321
P 8.393152783303101 1.4272800878120737 4.910362519781631 1.0623554007632994 2.1869682648049236 1.1829612220735304
Ni 3.245116813839868 5.015359857958066 0.26610404500413926 -0.0033200655121684757 0.6139100151297169 0.5944879018493633
Ni 4.980913756212351 0.4061876501883364 4.624171428735178 1.3257371517228975 -1.7557305012988795 -0.07013480914387275
Ni 7.51554948118202 9.040957226749441 4.30100707191434 -2.3104809753493045 0.727218017226954 -2.698157823545263
Ni 4.062155643712745 0.4554115203815227 9.186012347914929 -1.1819731471286483 -0.7263505270203362 1.139846136051611
Ni 1.904175293855584 7.3005451394645124 1.666471138572749 0.10602715216510773 -0.2439179858080315 -0.47282278603668254
Ni 4.203950388311053 2.6812596232162806 6.676492874280269 -0.6765749982591057 0.13559869517463746 -1.144550740616132
Ni 0.4689843265988303 7.266768978109314 7.839532654035709 -0.7691424253748819 0.7956764671096683 0.1447075994544411
Ni 5.306076768531562 1.6780797167839736 11.039736478000812 0.02100925526181543 0.7546899973949777 -0.8269248836009887
Ni 7.800106662053825 5.206451049625198 8.06957529657478 0.6085826893795325 -1.2696552211276648 1.095501291387649
Ni 1.9016444079358559 1.5192294064104381 7.896049569757878 0.6459760424263261 0.5202364994339556 0.561216284280427
Ni 6.087180740235357 0.7012805741737753 13.02892255504909 -0.4057874417537399 -1.4505775799397664 0.9390604626566795
Ni 7.196071657454551 4.229128981321291 3.836020056312257 0.08638058157877382 -0.8972761796310418 0.6783891686497091
Ni 6.168876248967763 5.587991406751887 1.9996185376850442 -1.8261283342961518 -2.164728222459801 -0.2850170698411866
Ni 4.310508129313732 6.240652918029469 4.290766288667086 -0.03532978564954561 -0.012641342913094359 0.19434043199022014
Ni 5.446968954548201 4.217954003418374 10.843903597125246 0.05069932612708043 0.1548212908496753 0.33311983888568436
Ni 9.11187786086771 7.849412413850295 2.732996700346668 0.8853578309269009 1.4289957400039326 0.6457819241376491
Ni 7.454864047474416 7.94780990870738 8.708537457339068 0.32700652689909493 -1.0238261343398496 -0.023381612148733924
Ni 3.0020773277247814 8.219182290504717 3.6454843568855932 1.6417794663010048 1.614219297294549 -0.591332129829201
Ni 2.4811428457324696 5.638078755670627 11.513357350385672 -0.8331811489233456 0.009378098780790302 0.16071528773660707
Ni 9.242134743184902 4.763220348205132 2.680375674089905 -0.32706643360275284 1.8732186029157352 -1.0346355662505278
Ni 3.282996360086978 3.4284106437396025 11.997097114085625 2.5431365008696396 -0.5488860448498482 -0.20505139064982106
Ni 5.5644504458073545 5.293040845099432 8.541425479288595 0.8377834235820474 1.8608048026324144 1.8972489043920613
Ni 0.3397639909414082 1.3074258910031755 10.549854663581694 -1.3256016545862976 -1.2733874344765874 -0.8175560407915791
Ni 6.174849884116534 2.1808978940494073 2.9375592766997665 0.711528374405839 -0.2589255149604573 2.581305298629877
Ni 7.576625713450757 6.095936488950298 12.79642904724805 1.2202172782115113 1.5349917818207888 -1.2361336923314519
P 3.8794759258376503 4.679394056841779 7.704982570382625 -0.42131176264158404 -2.531072884836886 -1.0722927144816694
Ni 2.873002145818638 0.5182444852298363 5.6595252224220305 0.6940829252358821 -0.287045413125125 -0.6005824447828754
P 9.426061294564569 5.213448204815036 11.486992404600562 -0.40194235697603675 -1.118247326834913 1.829915569252726
Ni 0.7396607147682435 5.590150103565772 13.552564712786408 1.0484472753226395 -0.7606336165729222 -0.5207085539743677
P 5.0476286534346 7.270797925180059 12.108236502981223 0.7476539164838026 -0.9753346144973655 0.17698368587932745
P 9.18223090659957 0.05799636741789166 8.427943159971719 0.1632557947702737 0.685441190400484 0.6361035205076206
P 7.438431898451475 1.5433472604690253 11.665842296576539 1.3112124757441612 1.0698614793323575 -0.8438921075829466
Ni 2.695914569258825 4.492462078432434 5.07458724084353 1.028133760576268 -0.4697261493892298 2.2670396163362185
