# total energy = -340889.4459408627 ev
CRYSTAL
PRIMVEC
9.06108808472046 0.00000000000000 0.00000000000000

0.00000000000000 9.06108808472046 0.00000000000000

0.00000000000000 0.00000000000000 13.26181832080606

PRIMCOORD
 96 1
Ni 6.352158024814483 2.1201315179685842 11.620761231939177 0.8477644460541593 0.6190421941499596 0.2862563415649264
Ni 4.820861317622747 0.23555748313982314 6.024419374013259 0.5082633862324795 -0.31041545530963316 0.40854186457042546
Ni 2.945632889069822 1.32179528901875 4.889499966158804 -0.47209387829045796 0.3504411037729513 -0.7617952409811912
Ni 3.2521785608924203 4.3484433668729965 4.697269888030778 0.20810123321973836 0.8517650825731202 -0.6169426313084536
Ni 5.08481081424396 4.560989310650677 2.526058298064159 -0.6128566341645381 -0.21165166957515807 0.34466640607270316
Ni 7.23061239482593 5.744874838647289 2.65963142231723 0.05975320879923257 0.6850025602011687 -0.6523482645012572
Ni 5.11168600157587 4.730105459120925 11.330354264147887 1.030940633897444 -0.28750024127435647 1.8579956153183934
Ni 5.481713656691576 7.938537086622092 12.488190069939339 0.7730052507643977 0.6829935001909399 0.44032481340897717
Ni 1.8360211003043838 6.677541698816124 0.21295006830735047 -0.44872717854005945 -0.14636236144904471 -0.7715533488092197
Ni 2.489579263445301 1.4606383421161364 0.23112389272798792 0.49755499867603986 0.9190860764172818 1.3192055212519669
Ni 0.6021727324736014 9.073320578154908 4.490438772523576 0.3673193675855287 0.2660217596856063 1.0509479302573062
Ni 8.68642117697986 2.3500294454753963 1.2649215572836876 0.15732374555655487 0.8300264053444479 0.07915038237892175
Ni 7.127515334319367 0.5495676793467865 4.870840467415514 -1.68218718069409 0.11258603632954803 -0.4307273995285292
Ni 0.7812597022992217 7.426984296328674 2.426435258738666 0.1549822419075718 -0.4286270653560747 -0.002310136190415376
Ni 7.670636955585263 3.9309265489769345 4.10249009734548 -0.34700970949389914 -0.20344933627002382 1.2510846572143293
Ni 7.942958897619384 3.8065902979423893 12.522777149360994 -0.896338755418437 0.439570708851772 -0.10730910420132486
Ni 7.530389433830949 9.133939257605507 7.205477842519799 0.3712919790800315 0.06932002655206126 -0.9436133721346845
Ni 7.001176582812687 0.582009093104182 0.8267182752343046 -0.33911693700938367 0.6928400539677164 -1.0517609130769048
Ni 2.221434483029524 6.55216342264902 9.09284631692144 -1.0950454347971528 -0.035297646860029536 0.18802014619914717
Ni 0.15995629450065055 5.02525228210214 1.1022596218736276 0.04861133324980015 -0.9481379994779154 0.1719669493910264
Ni 6.329731831744195 2.303645735444363 7.211312277153318 0.38460900790391184 -1.9499097251208872 -0.005366663628552048
Ni 3.2217061215811555 4.4558806885838695 0.1970107082144436 0.1571514816447487 1.4614248070669154 -0.5137781454031216
Ni 5.791068265828028 5.571962094259282 4.778525195650096 1.3809101973506153 -0.4932188331945312 -0.18540919093886132
Ni 5.466681311518401 2.719123808515854 9.479149498498904 -0.04562731092081174 0.346389559411397 -0.32966710445039354
P 0.07179643774211637 5.751181355971298 12.153090191158194 1.828464438628496 -0.04415869679508524 2.0546988911138357
P 4.0471350039775205 6.371240676372474 12.474848523807342 -1.435190813071051 -1.588870019896483 1.6815017245912909
P 2.381725131681404 8.500641687476778 1.3679298191267801 -0.010042214727350448 0.7403452986375314 -0.16081633209084562
P 6.492124652837411 7.6701295346511476 5.858898665304745 -1.1568660676483755 -0.4808680249386622 -0.0050025954209139654
P 5.006432402099316 1.0749168823952833 12.816419831716082 -1.574567487230882 -0.5472580223281219 -0.11850214470366688
P 3.968258231986869 5.799413527976609 8.01704779065313 -0.07989625940601079 2.8951866010009235 0.558433065108335
P 4.9843324082009595 1.0358545315564898 3.9053797171618347 -0.11164526968283353 1.077908003785918 0.38717959684456543
P 0.22039012775382072 5.53608924643493 3.494979477866744 -0.863239401761307 -1.0448122496732135 -0.37971285615387507
Ni 1.3659771546392458 1.1732387494682937 2.5338290872266156 0.4708134689161375 0.07444192115965889 -0.2546669967944195
Ni 1.4813157451813477 6.618309365846234 4.7870254024053445 1.4904373922491816 -0.5775615584076698 0.13243135319024935
Ni 5.986180676083593 5.497715538292437 9.198543003606535 0.58884304485876 0.33820188139428203 -0.40517757608388283
Ni 8.499554356903673 2.3653245622037384 10.449994347307074 0.4623262573807328 0.36254277213249175 -1.1796835797635232
Ni 2.1761199813953773 5.323144614780445 6.876544940305782 1.388295691181409 0.18242671127176968 0.15212574629538317
Ni 0.8879032726917282 -0.07859497215045474 8.956806764485043 0.6510364876683691 0.12758508084154158 1.2445255159395727
Ni 1.3083576953527953 1.258467344223499 11.380868018139097 0.7169680573641716 -1.6398907339187239 -0.323881608116868
Ni 3.931624252761343 6.626826788668889 1.4907211546387051 1.0874187714898305 1.8766001177934584 -0.08247738986962569
Ni 5.575024742040195 7.647585547435439 8.04211257258082 -0.33305324731380703 0.34667443764166744 -0.4513507322058356
Ni 5.215054894725708 3.1000700748031544 4.932693267066586 0.7649965215273083 -0.9609148395276095 0.02818391863338372
Ni 0.5694803265755808 7.697503081829064 6.85841551521688 -0.1808053736182628 -0.2890238770077345 -0.30602092578636325
Ni 4.9314428369075145 4.160353299902068 7.406725515534108 0.5199873595376271 -0.9321863612446656 -1.4633641901814733
Ni 8.191549849895491 7.572713776389058 8.902990243878026 -0.9232121827705132 -1.380651287262274 0.9839390683369249
Ni 4.95665984511544 0.5082962352269683 10.556725810254239 -1.1408586364765256 -1.6175560749772657 0.8920501553454121
Ni 8.166106314484837 7.1961077713060675 4.616783866791932 -0.1907383164612586 -1.1690340704694768 1.059317128157608
Ni 7.4516123338095 6.058451914842632 7.017822707778112 -0.2044392109871189 0.48989568235856923 0.13788132056122704
Ni 2.265462310152163 5.3254461311601835 2.338588915628711 -0.8025330850201856 -1.2546739172274843 1.3305140042862504
Ni 2.230006272380834 5.506350755260511 11.16741958998574 0.7247525864055969 -0.3354482299085449 1.8630578603326495
Ni 0.9591071152715024 3.4120614605793866 3.792601790119395 1.2284435227760455 -0.055450467658820626 -0.06821188108954704
Ni 3.618083420918437 2.458626586464248 2.8258679569863725 -0.7029321480963959 1.4475454779816619 -0.2484441558131592
Ni 1.3051410090740267 3.198092925968561 8.054260773408835 0.08044287593810018 0.2515503055423087 0.38766707800394523
Ni 3.4878846458772346 2.164186528355551 7.140428290983799 2.0763486081731273 0.9488841336153208 -0.08114350154955058
Ni 4.214357385032944 6.824711891885872 5.756849066583606 -1.4377809423957304 1.2110772635834561 1.7181867387171508
Ni 0.5953705736300193 7.549200252745665 11.086813962383852 0.14096587302382174 0.26871884690179526 -0.04859642085146469
P 0.41810035197029516 5.864236552309879 8.060678742116586 -0.9263041914322756 -0.9404776547191803 0.08257971977544488
P 8.832377184242972 1.5682478245010845 8.209622190129306 -1.046374451954011 0.5511943812680508 0.027747859537229635
P 1.8895087034130353 3.1410261930567724 10.262936338271784 0.06628818170427295 0.47776598897457073 0.4333967188305761
P 3.851089301646707 6.281146277302624 3.6962679257775446 0.4321353356196493 -1.702904101526467 -0.37843836031682565
P 7.05705631318217 4.020169205764519 10.402398263687028 -0.3496579457500236 0.21473365093459146 0.347107411414028
P 6.276207984283106 7.523910755832867 10.151391625321008 0.8323689374346955 1.522869801746274 -0.02684925898236021
P 2.394111639126691 8.373895187005184 5.7776433576854265 0.5790823659275705 0.12717756099047775 0.34821221444243255
P 6.840269780169381 3.8912299219704964 1.2075041602620726 0.053562249497172275 0.7714705592874261 0.382376004808335
Ni 4.839771808506663 2.9715294788859374 0.5518981912084746 1.5038642071780488 -0.5322569209335994 0.9697617483952782
Ni 1.5708302346122083 0.94747267813928 6.921528712223942 -1.1136195982549144 0.3313707174050616 -0.3755425268262693
Ni 6.940512597921543 0.6607617281877369 9.389579736430578 0.5196209773371437 0.13338600379403479 -0.3494761687565207
Ni 3.0996804480144586 1.4802646589606798 9.318509091846009 -2.026140876970485 -0.08674387845546351 1.4930948844766867
Ni 6.500433670633554 2.335903209113142 2.7441351300236994 -0.380502441934706 -0.7378528712329808 -0.35911986249387184
Ni 4.212572350675431 6.8171911887552294 10.473295841488712 -0.05869905650310536 1.5674990104198747 -1.7506124633460236
Ni 8.078630569878548 7.074716373907015 0.6260786012321234 0.9953527094905051 0.10323879078669318 -0.7688747735357919
Ni 8.040238739559836 3.9364447516354417 8.35827387110491 -0.605064648923945 -0.4163145665373088 -0.4902535799186202
Ni 3.177995432542339 8.61607994998808 12.49147924492298 0.29897636023475604 -0.8891360670224105 -0.8420452841821948
Ni 0.24827743862752857 4.859416247527425 10.177132364421643 -0.4803016109122309 -0.2886898907070835 -0.7483977366283627
Ni 8.590554864784444 2.0079914915290322 5.856670543738691 0.7736372279214419 1.593057318504953 0.777208747322784
Ni 3.80360919995446 2.811447235260569 11.653677446713493 -0.9899266533789274 -1.015521471128896 -0.5310605866326531
Ni 1.2397652583660947 3.463320036013173 12.369072099546887 0.1150182999201245 0.2149372823049653 0.2526851904777003
Ni 3.1648387326077696 8.379359023135036 7.987646371956374 0.761960820024778 0.3008128992228626 -0.8165571672134194
Ni 5.397690186654895 8.016498688713712 3.4613610287639625 0.8339496516582542 -1.008001251492451 0.6634076076392122
Ni 2.9525918047376933 8.235305844374855 3.5435179146501468 0.09264096066618885 0.7104153438473185 -0.4767707149408369
Ni 3.7132067238888973 4.254787960176228 9.633742534947714 -1.4390384689519153 -0.18197831088044145 -1.472103369826684
Ni 7.14210368617519 6.244122671288403 11.63935458473927 0.31856508099996106 -0.8194247185692016 -1.2609461233894415
Ni 0.4186974776766919 8.875462658202254 0.2924910180564065 0.5630852191683657 0.9060636960156847 -0.22416522866113653
Ni 4.656665339995798 0.6954176718790228 1.719673104546916 -0.3331553201093101 -1.3657270618522737 -0.574982484826584
Ni 6.0271820997777565 5.870896452070147 0.38281194432898663 -0.999493471131756 -1.545129641585739 0.5211579828069606
Ni 7.5569565441671465 8.756508693504578 11.680413093288522 0.25659429572411935 -0.39592263314451814 -0.6982563398872813
Ni 0.17205375323525343 4.679943275348352 6.008187340774426 -0.7456260874204965 -0.7362132787470288 -0.7410765203766012
Ni 7.924709866167441 -0.4570240681610177 2.90307839487374 -0.95546898592169 0.9654718627706729 -2.163634218064674
P 8.509140988123214 1.8195480421218444 3.596326842259419 0.039704774788789685 -0.8704338626272171 -0.3144502875006391
P 1.8474561934982034 3.225031540917235 1.3108286540801763 -0.6250125528007816 0.05004343771063639 1.4173234458723267
P 4.843305632869254 0.9252186457430664 8.278663150977412 2.034838918965115 -1.1932163241426355 -0.36919678711389964
P 8.378942213082013 1.4515591318307104 12.48991439500652 0.9218942352900381 1.048765835004323 0.22141723360235413
P 6.309036306502764 7.769185349861004 1.4783881076132628 -0.9323709664516457 -0.7370038929691242 0.9755948101372875
P 2.0880462049738804 3.1066665469466574 5.9513734122208835 -2.239145461029111 0.9894121756363539 -0.8066504496226689
P 6.977808036579042 4.0704763669468385 6.330555484653321 -0.18176105266331277 0.4994491303749592 -1.8494518395134407
P 2.480373197926346 8.471175028945634 10.406999484228884 0.3532040112300691 0.3506485917980671 -0.584378067108871
