# total energy = -381171.39018166246 ev
CRYSTAL
PRIMVEC
9.22434164413150 0.00000000000000 0.00000000000000

0.00000000000000 9.22434164413150 0.00000000000000

0.00000000000000 0.00000000000000 13.50075640692944

PRIMCOORD
 96 1
Ni 2.351441435311052 3.1947768473208944 1.7958971729083881 0.7804606786011785 -0.11537388348733034 -0.4017510669008371
Ni 0.11985924721436683 7.573562483040447 0.2806459747628487 0.7471042146279198 0.2567429054868417 0.015234043340935054
Ni 6.063325636877062 0.8609935687417037 9.890626642841756 0.7862924547916071 0.10401474972076927 0.4628106532163191
Ni 1.4701570828034414 5.019711324505638 3.138857967352124 0.6579710100046733 -0.4984021771676836 0.5968615442878624
Ni 2.2048297531837955 0.09521826404672241 11.387360898071588 -1.7771223367110942 0.47206225372157407 0.4126576865110119
Ni 1.6085498767480262 0.9243435781380395 1.4944124885007877 0.5166505818549102 0.23662402324977957 -0.5370921375387137
Ni 8.659664111875829 4.35161995031218 6.888220668004774 0.9277905461698152 0.0556579556839364 1.0464114758395333
Ni 2.737120373364577 7.407764170812228 9.58440249182556 0.1521545426507896 0.587005477429389 0.2338711430949908
Ni 2.918517046891222 3.7635774107418722 4.658935340915367 0.4467070627862371 -3.0486104972824397 -3.036527340865661
Ni 4.257199591796099 5.540619107405368 4.545312670917952 -0.663552874967825 1.992771814591736 1.253667073229525
Ni 2.957416094552644 9.050776187010827 4.95778832072306 1.0450169094848518 0.5518204448878239 -0.9225082147249531
Ni 3.377335787863271 4.379053141619998 9.215224978093003 0.2540111083779754 -0.08552646110859465 -0.4518929778625507
Ni 1.1505613265014998 4.216999911998025 11.955013953423066 0.7248690573788032 0.5120935586118471 0.2933495009662819
Ni 2.487057702495834 7.180365706750247 3.5676966763572793 0.027842733243881083 -0.36186811466297036 1.5849138634622122
Ni 7.908396851326422 8.084360387771593 3.9635786584274744 -0.042798326112448874 0.0780635770726462 -0.5371263332107589
Ni 8.698775319389329 6.346577488083912 2.3106818379903205 -0.5782583273643783 -0.8020913694970767 0.6750233375012697
Ni 5.520344005019832 2.506170537865639 8.014480467101952 -0.2696128194709744 0.4461835861825993 1.8373470858301066
Ni 6.132342159192158 6.562187243843475 11.348033840969451 1.2533842518817835 -2.6359594956396473 3.00638269896148
Ni 1.1935098600351923 3.643264325930886 8.854996920381577 -0.176119023886187 0.5473912054718767 -0.9611639794239383
Ni 7.937767154327125 4.638201788762514 11.140189135795943 0.6769097558907051 0.2439825204973798 -0.3726407797984421
Ni 3.74920588684894 5.911815829469225 11.268986769821765 0.019451938077024562 -1.860919473833408 -0.3884355807388536
Ni 5.255107292556818 2.024309392089646 4.073124169528435 -1.0281309323627907 -0.38080274678394416 0.18048707104689563
Ni 1.6406321361187697 0.9366857469241392 8.723392319269347 0.012864257557177846 1.0398783027067058 1.3421364190165272
Ni 9.100024945717097 0.85183933234161 13.021830251704563 0.7575629480673985 -0.026137063406684022 0.04290785510711965
P 7.055634162411203 4.806370756729169 2.6746614353469687 0.4039347048157172 -0.3102501333763625 -0.790553029840174
Ni 4.320755304005536 1.2775897318478222 6.262933005185112 0.27175557684559004 0.38624165841132835 0.19249232303788785
P 1.4380840477740926 5.767473335325063 10.440148332747823 0.25209872184661103 0.06914210621330029 -1.0882289260959517
Ni 5.327758205381423 1.314238040208939 12.14571245281212 0.3277727156411581 -1.5712366230854358 0.7600268362268588
P 3.0655622730640295 2.3875547318712766 7.766228534448988 0.722109492355795 0.9103044735699097 0.8008094174608595
P 8.677070444087615 1.3411823414228385 1.6651024689706124 -0.345143859929754 -0.2544811060358585 -0.2563107030454295
P 5.694665608696747 8.912816937111794 0.2736493118149738 -0.6171110385655179 0.8004942002132859 0.12497181158841059
Ni 7.61016466969459 2.0670180927470767 3.3618499635298598 -0.22344403422439582 0.5597250444468812 2.5084551474373704
Ni 4.680892040737155 3.7877267365131795 6.276663437351113 -0.7555212350470214 0.3574694713746424 0.8624870969763145
Ni 4.395057373939792 8.791387706992051 7.94330452646636 -1.0635733323308005 -0.25612352673528793 0.004018120020457596
Ni 9.06070157835152 3.5079155646465505 2.2003531803049508 -0.9116820706437266 0.7416511619331485 0.43792366016665224
Ni 1.9317707992180821 4.566823835050378 6.278809941593658 -1.3723445671687913 0.3174823894587436 1.7308774468109418
Ni 8.551130511025868 6.735097523287003 6.771317822207406 0.4814226118905515 0.7288558099406931 0.40866064953647685
Ni 0.3599347236550751 7.800739562908955 9.085873883583497 1.0822323421928846 0.2272317834016022 1.2542478854336594
Ni 5.563827550354416 4.888439722117757 0.8052591756008269 1.5971284032505333 0.06664762192622069 -0.2659474548042452
Ni 8.53162102897609 6.804067923895125 11.563748754220914 1.4174160055861331 -0.40498962844279285 -0.13527345062473475
Ni 4.814091530476527 3.0849702873584643 10.817750437476157 0.5953798175360133 1.0848121871049188 -0.39330653567790974
Ni 6.769531989713393 2.700684224855538 1.1700265317125818 1.2108474069608373 1.6489415312670828 -0.3765483423829644
Ni 7.168890626055248 8.706708252988765 12.144159996155393 -0.33777842070361824 0.5677695120179125 -0.2527438116297776
Ni 3.8780330387672275 5.79054341315319 2.220374613302133 -1.6294463986569485 1.0310355076040953 -0.4413108314713303
Ni 7.399231655022136 7.94231475463471 9.771253518418888 -0.5468299336517679 -0.005201084584965236 -1.0546528899127192
Ni 4.24393498887053 8.132188597903077 11.682002043598466 1.0120227139470186 2.3964586650627053 0.8532113281013435
Ni 8.97795923604112 3.973412728788357 4.750065376855961 -0.12268815776055644 -0.7985463324582956 -1.2982196630289191
Ni 8.733873938396139 3.130363271361751 13.376306010122258 0.800282598423112 0.030732910307482552 -0.4873235507560188
Ni 6.075455645811084 4.215726952885557 4.492660130237042 1.8520139438136622 -0.2858544781408174 0.02202946899621367
Ni 8.152740430530454 5.469047442523942 13.47159437916358 -0.44894032299213005 -1.2467328080035367 -0.19905634940865072
Ni 8.368894422432305 5.665581260279279 8.862422515204305 -0.03128132661178483 -0.5539133228611106 0.7926513071300995
Ni 5.794472982587329 4.878781836677512 9.11538624144168 0.5556714432027979 -0.00859262676501746 0.6051422962394158
Ni 4.652185890316869 6.926465709861311 0.16514430642333505 -0.44877268706601425 0.620018699130616 -0.38123829165946604
Ni 6.475275499222674 0.39021639158557453 7.61527679969553 1.6422034412123008 -0.7683021888617736 -0.030697943304489068
Ni 4.143518808447897 6.131880942122423 7.533287163642937 -0.07556857856493437 0.1400184215088879 -0.29748126374646827
Ni 5.120275094390585 7.511242832577898 9.820504121993435 -1.2558658806530565 0.30737898247615447 -3.468924671897445
P 2.6686757602159523 6.840448726355796 5.833069471851005 0.1197558146051099 -0.39136843811493244 0.32066644361368
Ni 6.803394546973312 0.1441589297504076 2.323196501960501 -0.576160307184769 -0.8722688589534268 -0.7638197276103877
P 3.115447511326531 1.6100626687367559 3.154424965889808 0.22199676025490797 0.20435642146532548 0.18447202383657263
Ni 1.663102631756243 1.742791717064999 6.23215137795102 0.8853326341159204 0.360153960185341 -0.29667650845698584
P 8.857609253864554 1.4696128466611544 5.496117194780809 -1.1573327228721486 0.1650591665275996 -0.709242663695456
P 9.299980994129864 8.735377506043472 11.337556834013359 0.35107873735695017 0.5797490529772918 -1.0235728806784632
P 6.24120783633233 4.245263294031366 12.288888067769854 -1.4193885559314716 -0.04133948217873526 0.9299140202707211
Ni 2.5141219201478644 2.4803516063018924 10.691869540199333 -0.815172371050751 1.162439705081411 1.0505684354307003
Ni 3.1458509405634407 5.04418350222576 0.1256779617661394 -0.25188840560801784 0.35711388780743664 -0.7370938815797693
Ni 5.810790842514542 6.647005062967681 3.007117768421392 1.0259318678289429 1.1275205246067228 -0.4306749490240389
Ni 7.2443734116880245 6.1983423218711895 4.845556681407966 0.5575223803686076 -1.1156777663355237 -0.6398632446603689
Ni 6.873545663279955 2.6591377912138388 6.050323005247102 0.5699410657479347 0.7041071422411035 0.24212129891892492
Ni 0.0873213053787254 2.5275617855599326 10.570659849404784 1.8069643597731913 0.5397082350053222 1.3127548805306166
Ni 5.486453774735728 7.445500951457919 5.793835580596956 -0.5512136645417605 1.1791541896226143 -0.3331118684658844
Ni 8.871510336346358 2.127105452592109 7.5418196794330274 -0.896804639311262 0.46666473685508664 0.9110621776715407
Ni 2.394740493817743 7.268827140725356 12.574482901690955 -1.8406735791001785 -0.5676892935992804 1.5078764136612355
Ni 8.495959725144205 0.8271190198379712 9.510850360846694 -0.9965403020407031 -1.5596409478280366 -0.12983865276240864
Ni 4.615094813568808 3.8602577328996537 2.7666428779982932 0.08429618824591933 -2.081104634800874 -0.7675208306110588
Ni 8.966382687590778 8.970533641218392 7.211914799188377 -0.8893116733683266 1.1200136747067162 -0.2829722714970158
Ni 6.626960569117012 5.381194815080883 6.847907528807545 -1.7827371117947104 -0.3559705182316127 0.7897963541798075
Ni 4.284097771303025 3.076317855130242 13.44317510576067 -0.4180595742528735 0.12294064009099473 -1.0549735064769317
Ni 0.741692394181716 8.426408191028218 2.6484707628250157 -0.8949994677817231 -0.5074105513138809 -0.4777094247050224
Ni 0.6121734166588261 8.773843009659343 4.941911384314515 0.2737715788343543 0.16339489145129923 0.6823229564864766
Ni 0.949203178196738 2.028654056886547 3.764820851961877 0.7812204395853385 -0.5441151058237662 0.061850971868525735
Ni 7.286971420248718 2.406759810655028 11.580516762008187 -1.061638577201933 -0.8722580603201494 0.08433861144808057
Ni 2.072211396952289 8.68460673100708 7.133907311315873 0.6018443422144345 -2.08634685703642 -0.5992228454311873
Ni 4.982278947125972 1.5579728128809223 1.4760920240567872 -1.2308261640756093 -1.4918327299348115 2.1149066709519837
Ni 3.836126855811136 0.8480232223066254 10.064799734622216 0.821292882126192 -0.8567339965426214 -1.4385877545677417
Ni 0.41852497289174906 6.203655542514533 4.7593948757425535 0.7232024683096576 1.287872772576956 0.4563916370638527
Ni 3.5079432376707347 0.7205954029779127 13.481585263328173 -1.1096297603692309 -1.1121445563712846 -0.9309504319550354
Ni 1.6172668793660114 6.22332183836802 7.832234231732857 -0.4152897248172202 -0.14782403359623572 0.25890726012801213
Ni 6.8094826122938095 0.5010357842331419 5.319433237272712 0.016574616529229518 -1.0922758424718157 -0.9382330816593778
P 2.301629991779708 7.067616581882909 1.4416511005914205 -1.5684737156283182 0.04254610089232672 -1.9567509164124368
Ni 1.0176293426625735 4.908428869920057 0.9114756218924421 -0.017140259224712413 1.7517890001526284 -1.4968528088572222
P 7.646176498499473 3.298606034059563 9.454700872343055 -0.6917607048606086 -0.14235735405470967 -1.7692786722969596
Ni 3.9493095247240237 8.459062359565433 1.9615792584350338 0.41422271700528657 0.5244618503692129 0.7772557985106356
P 6.205362045672551 7.311259111140946 7.95503696628627 0.1259262050818799 -0.11399988595793915 -0.6702205167959877
P 1.94371632132421 2.1566417937379176 13.066639334897564 -0.31590681744150756 0.9253477410562775 -0.8288935772915854
P 5.095286353552361 9.102976734963399 3.917217118577746 0.3392184955842545 -1.465675097702837 0.5637112827881389
Ni 6.936492568957343 7.196222349607725 0.7535917945808703 -0.10889341796930924 0.7968509470337438 0.5120341661288214
