# total energy = -340867.25539283664 ev
CRYSTAL
PRIMVEC
9.29677125117811 0.00000000000000 0.00000000000000

0.00000000000000 9.29677125117811 0.00000000000000

0.00000000000000 0.00000000000000 13.60676445813872

PRIMCOORD
 96 1
Ni 3.9530708985977983 4.731266450992097 0.8805362720543817 -0.5050795891878592 0.5672221241548747 2.777749150116345
Ni 5.594592539707264 5.531764958135086 2.3844898670620216 0.6006706336213075 -0.3605722786696823 -0.2792367157139836
Ni 6.232127939809901 8.65029257247872 10.40801827885946 0.10507301578195452 -1.2732107996894073 -1.4680615956571426
Ni 4.921487691972907 8.890716379379887 1.4742792301629768 -1.2356253852364656 0.7788971907688005 -1.7441034585829123
Ni 8.934643624560197 6.351554266071545 2.7269857169278815 1.026413949671684 0.36299117252382 0.11875565547536968
Ni 2.356461960444117 2.2102423388153505 8.42566212094524 0.6449023497461732 -1.5007549721251057 -0.4650202592731282
Ni 2.2545321580828634 -0.13645243352581748 9.77674611369396 -0.965376217733073 0.4432373590700818 -0.81339522454567
Ni 2.3997756187076233 4.37837959965787 7.807003815305802 -0.40251391320879065 1.4049011609485742 2.6054854954205062
Ni 7.611871089959116 4.866748301576787 10.803185917147239 0.4681824590511937 -0.13923217816216665 -1.9582987205155307
Ni 5.2317953299895 1.7663865786791475 4.980389246954684 0.19307776322771264 -0.2993627970398974 -0.3242940130639383
Ni 7.4877498941067735 5.851834206191747 7.744589940063895 -0.11012369083198452 -0.2177850361664056 -0.17899557410303366
Ni 5.604121730460664 5.439429423927501 12.879850384174286 0.05690519782747618 0.12092643787444333 -0.24758232203349617
Ni 8.077630043670942 2.018301195113194 13.427753751211865 0.6713410035536761 1.2471477840537684 0.11712300496795311
Ni 6.050766522036887 2.8775552979259325 9.127676209232547 0.2616719673573429 0.5914953948799426 -0.27826175339522397
Ni 1.024736634920574 3.0846036952615283 6.1828187936275 -0.16853889754608395 0.9302436356959979 1.5799428926101822
Ni 6.625251218052147 5.426107150415674 4.551721622363681 -0.47656451246730186 0.32924518642162653 -0.2579099292117493
Ni 5.32269916139121 4.9258478777908055 10.482053118434782 -0.9067463239050061 -0.5807553827546192 0.8250901443850951
Ni 4.587101415857478 2.4854081806876946 11.03960374522339 1.5593252163598306 -0.3374002114285931 0.7679784869737678
Ni 4.887256979432399 0.7470048841234116 9.001460450768748 0.22709551493405403 -0.32099605903895684 1.5775432820297541
Ni 8.775092432648137 4.920037395624098 4.554742143413223 1.6388790048247581 -0.8842370870588966 0.8296931903747453
Ni 5.324363283483754 1.3781441054569377 13.199500347837798 1.4201920256693736 0.9440504596721032 0.3218859178430779
Ni 9.441708133898713 8.282837680256124 1.562573457813974 -3.714432885010732 1.1042103891258725 1.1691459134569928
Ni 0.12908195310699208 0.8429029411570491 5.931664653099431 0.5468772419499356 -0.31244097038009416 1.2741428245853734
Ni 5.8770470504095265 3.734169117642118 6.34326991301754 1.227810260067421 -0.1394121553834567 0.03707453625479421
P 3.5307743514929477 7.323215632688544 4.413667355114146 1.0507203876275324 0.1726953429166187 1.8129550301389872
P 5.594378713963529 6.21079184929375 6.205078983227444 0.6189038687998825 0.4450016500593562 0.684875290594685
P 0.12567096765584798 1.7041446937093745 2.063479785732927 -0.5944130827473698 0.14975853161478725 -0.8499856220751942
P 7.30954008186098 1.0194560687274699 9.08854330909763 -0.0732008496637062 0.019885168959701237 -0.09722060961707128
P 3.890540813712556 9.500091858709792 11.002865693418302 1.2655031466325044 -0.044898660284903316 1.5290556188420117
P 8.603883089316794 7.109315514781967 13.610574762105156 -0.886901521264937 -0.09273069216651772 -0.6053217592400737
P 1.607179367311356 5.636734804765962 12.357323484532301 0.19599005177850115 -1.2886947542576193 -2.747792970073887
P 3.6488526458919153 2.6278347195580345 13.917951128078288 0.3657039434692927 -0.01733232063086047 -1.0522141985642395
Ni 7.629925420147511 0.9111765714544382 4.463399504398284 -1.0510520599353383 -0.02024975138797158 -0.27799101623234057
Ni 2.4838370263098173 2.087162381367281 1.9456450667463874 -0.6965797235158069 -0.23365079955406856 1.0639633686803676
Ni 3.3584493955855965 0.23835713460411084 3.4351366040603786 0.6371669287751285 -0.09341511982805202 0.3452593024616957
Ni 1.2129776635789706 8.819586780887917 13.231408726865917 -1.5062627893172125 0.18513074046649408 -1.5695368667855099
Ni 9.056487111403191 8.642994606877336 10.734961559738625 -1.2450752177954558 1.466065134052404 0.023214233332934212
Ni 0.283901088342486 4.72607885251366 8.717813164287305 -0.5566101529669835 0.5297575515505134 0.6037621280624376
Ni 7.273357047312458 0.6637271943558631 1.8663036300178535 1.0993263215606939 0.9912446008594027 0.8698887887570245
Ni 7.3369562609163745 7.0951007512093325 11.888938192881124 0.1484765795785701 -0.6235529375361196 -0.3906341310520692
Ni 0.27815103519031203 7.377750494112396 6.004842330345522 -3.351455339333667 0.5083875705151696 0.4179739565176027
Ni 0.7519805162124067 0.33354770732913014 3.7048907952619383 0.13160654329610882 -0.25092398481221945 -0.5899244508483968
Ni 1.562127212783571 6.308965755982444 4.574838974292858 1.033192148935782 -1.774996548617343 -2.3810346171981513
Ni 3.4147413468166614 3.6400579000843867 6.0971778645531085 1.3139800111869693 -3.4671914912564223 -1.5223465822529525
Ni 4.8216961470490025 8.494236966638152 5.927378841453268 -0.8116648721181247 -0.09873241827590737 -1.3907348967505209
Ni 3.0474816867948658 7.343863762116157 12.491908196670453 -0.008609338935565817 -0.8900248973852672 -0.14624126249014816
Ni 5.515635059640305 7.737284537045336 8.151717874843625 0.2865767010188226 -0.6876081161448158 -0.216936057902549
Ni 6.602241708671984 3.469424956583981 1.0525033022602635 -0.344028258268072 0.3636257207840254 -3.236931205441141
Ni 2.370909143303419 2.310907780257128 11.019003029330257 -0.4851478832609387 -0.9925270671162518 -1.3158340336765726
Ni 8.033944514548766 3.165281078049832 7.953493972984251 0.09784178814083795 -0.5283169624492449 -1.1323655114038498
Ni 3.304035392190812 8.923887259973188 7.523601963591079 -1.8401542162615987 -0.3838189079024486 1.0277151849816109
Ni 1.277292728585825 6.304949550708816 0.6791189291961852 -0.5004665158958801 1.8565840796828477 -2.0873529297034312
Ni 6.666268573763369 0.4762828990121653 6.973697931333861 -0.41788653901011896 2.329709227451297 0.8046982109923043
Ni 1.4030222659019134 7.094013028947725 8.052156889852094 -1.2536753007596408 0.9220868109168184 0.2536107876157632
Ni 3.393786423930646 6.763233900161387 2.457095792862908 0.307274081467174 0.42995375458729823 -1.4030743921524804
Ni 7.046385668723655 7.95563780848448 5.783813448078254 1.4274008847129869 -1.9898968070367857 -1.61907996782096
P 1.7499591834974315 5.490087531649725 2.384544718013675 -0.5383257528354987 -3.126815999249589 3.348133216938969
P 7.924809714300795 6.895982499934859 9.65775487633696 -0.12892693958141666 -0.7656788923063137 1.0081303208711476
P 4.7031530140766975 6.924281872279592 0.6587729448412415 0.17225388450382592 -1.198054626071543 -0.6993919961536214
P 3.4425758805880577 2.9105774301757656 3.965351004028205 -1.1623625719865724 -0.5326284453404053 0.14050333156510642
P 3.311946944709001 6.584020036597187 8.539455533375191 1.1878542884997736 0.3310241326989203 -0.310953072980658
P 3.929940531188568 3.59051540493817 9.240421875518198 -0.1852749793538422 -0.3032464483650196 0.6148487248939024
P 1.0266052859853871 5.398300506958676 6.514143642898934 -1.2158052651867448 -0.6092092672199378 0.007838779318128436
P 7.700023077006673 4.9109265595866995 2.0276258568943266 -1.2007231740426418 -0.4290024464176224 0.022654247064406146
Ni 0.23136875149256814 1.8347271457310972 9.462062485347976 -0.7864451783193875 -0.6018991067117698 0.5827366748507061
Ni 8.217230364015395 8.245064897786792 7.989293980548344 0.40045163136312323 0.6644165085197009 0.390057946833625
Ni 7.953508847818598 4.797050405890695 13.024205073446828 1.1625332932364818 0.3294984400830132 1.3330151734415494
Ni 6.688822541341661 7.49953820032659 1.6164835761952616 2.6030807426337557 -0.7734258832415841 -0.6205869129292602
Ni 5.258179567412086 8.265508498242136 12.558608813235669 -0.0011860498883011833 0.4058285794043205 0.12679652350197518
Ni 3.3936097852727785 4.3335133805594195 12.461701126820746 -0.8902480691396668 -0.5216341511124306 -2.8551578672138116
Ni 9.787641000175823 3.5750455772175274 11.199782469209454 -0.6171557757605243 1.4879315951081922 0.2096197267467938
Ni 3.372348068928362 5.791098398199585 6.309647209330956 0.13318880018156418 3.904419925128263 0.25925410194446963
Ni 1.3936697138063805 7.136778177694693 10.546807920732014 -0.022362683965916324 -0.8059074008090573 0.9344515031297584
Ni 0.8692518508480619 2.790425955739716 3.8882008163343795 0.44169778249710384 0.056501020410522046 -0.5845847838030385
Ni 0.21121149159839905 3.7444327533413904 1.2929503510900957 0.2609587433404022 0.9424741163239189 0.5168755533815227
Ni 3.292367944000063 0.31652624845068983 13.361230702981661 -0.13236039074299785 0.9591955428436578 0.22028157733601417
Ni 7.544106922738105 9.131037921794917 13.47042500256702 0.1556612702524674 -2.198781712500084 -2.0157176247546316
Ni 2.8788382523883413 1.3201694385903946 5.609606825626035 -0.536015102424451 0.8362381905821147 0.2441812667717472
Ni 5.44597435104008 7.971804894065127 3.5978059331223813 0.7226694786243231 -0.47283255622869524 0.8781191470866168
Ni 4.295006153144214 7.038622864548933 10.288632858392269 0.25950555583364343 1.162599884808359 1.1647542121472003
Ni 5.056095646039725 5.206108350426919 8.118993239280726 -0.1324758332749396 -0.044636921983084415 -0.094354858033502
Ni 1.4547123152569454 2.462510232565133 13.148529868594292 0.3042170398084051 -0.5580720822244906 1.2662497949905418
Ni 7.013661033160757 1.1691247925703943 11.382766173603414 1.0457260197367346 1.4135369822467012 0.048963317272580194
Ni 5.106363289360347 2.945979535921082 2.471886956266479 -2.3196464438986566 -0.1541250361135991 1.5073449666377976
Ni 2.5071533291483816 5.228532163204677 10.147870441614476 0.5267743005524735 -1.6474338363733048 0.5722820551762854
Ni 7.732654744854903 2.907825585821613 2.969540343849222 0.23807335410179642 0.059422822043007334 1.7691524311317401
Ni 4.255262455123933 4.938705312729296 4.378834211782593 0.2104167687267925 0.5028265314876244 -1.5204290535152654
Ni 2.084652253071263 8.463222937025133 5.359854638235151 0.5904188739863122 0.9733787763225754 0.9228224035312623
P 0.751547286662057 0.26722918807119483 7.962610387084529 1.3401589835751824 -0.3027042027083045 -0.07813608218179446
P 4.571203936649366 1.4242282016175298 7.1078066487729155 -0.7346158523529218 0.7440518009548411 -2.279555489415042
P 6.489137187007718 3.2614561788731784 12.117123729823483 0.1270934859171037 0.5935034264489069 0.218019777885031
P 5.530156616671341 0.8932152089807113 2.9614716758932453 0.3493098183819855 0.504991143239111 2.0046976194950443
P 8.408399875685811 8.155211601560824 3.7091087404763945 -0.9147450258397666 0.6772889936069949 1.2053334191211436
P 8.274033637677128 3.041475972427357 5.479471548311863 -1.16967144694316 -1.210287420692309 0.050525519553377495
P 1.9825179217377413 8.80543709471555 1.9907102367542258 3.4080892857776273 0.5212202035034637 -1.2389091981940599
P 0.09502973857864479 1.3715805848014246 11.758081486101133 0.5283177337801934 -0.1637029096100213 -0.06073537020684378
