# total energy = -340864.15487551317 ev
CRYSTAL
PRIMVEC
9.33410373418028 0.00000000000000 0.00000000000000
0.00000000000000 9.33410373418028 0.00000000000000
0.00000000000000 0.00000000000000 13.66140432064020
PRIMCOORD
 96 1
Ni 5.287424475089219 3.8317243075362817 0.9697629869375481 0.1413026875379502 0.8939005782905896 1.7868508768527678
Ni 2.94846606153563 2.8333858950404216 4.342495804882724 -0.6712484438398698 0.07314891337984822 0.9007960198588422
Ni 7.5562464322355565 2.775103750535914 2.7941667908500647 -0.6241036678332671 1.2842038083658012 -0.5658887500554318
Ni 4.138106932650947 4.210492908088561 3.146986582670355 -0.28604345422317184 3.2264452183081533 -1.974847883123463
Ni 8.09960328615875 9.179736450783533 1.1497805139897486 0.830787966100821 1.1696228530934114 -0.5392397800093358
Ni 6.584976920934936 1.7633522307926197 7.184355199407641 0.6722851126345003 0.5538091931830785 -1.7674932982617626
Ni 2.942725587661467 3.318404599835944 7.004557023796161 1.130710749409246 2.4505071101676767 -1.7936455311770982
Ni 8.562322816831712 2.1166387278059315 8.96070610323629 -1.0939411459893806 0.4617017364228564 -0.9258532199377861
Ni 7.906116647235953 5.910111877722183 11.907362282033384 -1.2042815808178613 1.4523439278115695 -1.2875678397420276
Ni 5.22454995148538 3.3336191891284406 8.108003046222748 -1.6247885881699629 -0.020197557993797473 -0.5824181151690228
Ni 0.6398126829856903 4.750554823349023 5.908106912212964 -0.512583353764072 0.2629174097286698 -0.5568096705722991
Ni 3.2050699107626364 3.068297286895795 0.3923039845602842 -0.36412888567268903 -1.2516790962652184 -0.6643771706413332
Ni 7.337483040058722 2.968459712004665 0.2939001280221156 0.47765748842116446 -0.4077615347609751 -1.479075687379459
Ni 8.78993493946823 7.825301976012373 12.587304144335823 2.611702937085128 -0.45410618346378573 0.36757724923260565
Ni 5.719752163592629 1.7942761168822154 11.761389965401706 -0.018555908625316427 -0.8684790528936914 -0.05135212921973092
Ni 4.5373918934884445 3.89961124491317 10.26862220459824 -1.9357375473855631 -1.0966328338889306 1.4092362979888182
Ni 2.2043419676785065 6.760756764834502 4.45339895990039 -0.16536538491410877 -0.7281271593047847 -0.6298796510850958
Ni 6.565216623062412 3.964781958066673 11.326220042272796 0.784966536891332 0.8958723573049797 2.56967028549411
Ni 8.636435601483504 0.026859817268765542 7.382882254415069 -0.6099350896423689 0.24764762805379284 0.07033921184519498
Ni 2.152164327098718 0.8093862812284587 0.29109989686398746 -0.09174210300100329 -0.1583403597465273 -0.3028756952891623
Ni 6.386337856681182 7.6021328868134175 10.470701819534948 0.11412587001284215 -0.18167260671456453 0.49331962043845357
Ni 2.2820670505242844 1.2645937251145483 7.188248454127825 -1.2276210268747505 -2.366886864942859 1.1612413138979356
Ni 8.314745046037737 2.227555883979389 11.49111258742956 0.042541472906636416 -2.392367268602151 0.26699466512183695
Ni 6.787722990887276 7.2219081660589115 0.013421507940908387 -0.5771118724647609 -0.8343916242916792 1.101728246133967
P 2.1434742764046604 3.909337381135735 11.950026603958625 1.1393270303233474 -0.4953299660002631 0.7428163858858433
P 2.091501986109801 4.726342157935075 3.0388976599666075 -1.0322583242676027 -1.2341439155949325 2.8664524662910247
P 8.274319042218227 4.556125439936323 7.379849604070816 -1.193671409402183 -0.428209775312998 -0.32651364642307634
P 1.547174385385124 8.787797429684192 8.996007684036428 -0.532499633072025 0.42531162782959653 0.44460595728283425
P 9.562882746046354 7.208224369799526 4.876055583394011 -2.4243024267478503 -0.4139560936074613 0.43018849630592365
P 6.020459653560154 5.19943187799697 13.190768893478625 0.17260741118850273 1.1003174818293695 -0.18174922558877085
P 4.5159887933364855 5.569827787386446 9.065530889820048 0.6879511013065313 1.300809278132966 -2.5445099841783985
P 4.937442250842498 3.355638340135189 5.687338554526909 -1.0238575017984173 -0.09671153119113667 1.648108750953142
Ni 3.6751913857969165 0.9585751300504399 2.890125112176801 -0.10249754174529445 0.38088553630573757 -0.7561686388230332
Ni 0.9289636189636206 0.29792125996518776 2.2546779895666327 -0.12916245263099047 -0.3874158812250876 1.2852034532749093
Ni 0.2481592854644778 6.303264332323379 2.8950973893032503 0.6607159197396621 0.2717362935718804 -1.2644937315313836
Ni 6.010920199414798 0.9933166646189503 2.016846890023718 0.38051684011240916 0.569999944010328 -0.7648869925326375
Ni 4.57988073426111 1.1441464488995947 9.620798060269147 0.0880469135376032 1.5250706660523348 0.012338209850378751
Ni 6.889474057069794 4.729366407585853 9.215697019316217 0.12852584748825607 1.1287019465093335 -1.4290381632060938
Ni 0.8426530273870215 2.1008360899702283 4.765043219361178 -0.1778303501503389 1.2532811506450157 -0.3377365117220893
Ni 0.785122278243278 3.640711206136498 8.09226481370368 1.2679492941801518 -1.0294290823489238 -0.15825782733505003
Ni 4.436910265430945 6.99075841805929 3.3269891751563794 -0.5015633485044846 0.22284291030528716 1.0364849607544406
Ni 8.453879198181268 0.1670664579458577 9.970789618619728 -0.4291690539024738 -2.0237448659344826 0.42888648966504844
Ni 7.439906161719191 5.217250682266527 1.7332908158997276 -1.945103047760863 1.5952509837221622 -0.44035412398501583
Ni 0.9737430488236343 7.820028207331231 7.02748158287737 0.2620674030235487 -0.739312743607959 -0.030468086681870107
Ni 4.146124927867054 8.190816149082845 9.227964832019977 1.3199981923565913 0.5527447564743061 0.11473470724143464
Ni 3.8944028149590513 5.703221465655813 5.405230199911672 2.3084917128334177 -1.9422190413448488 0.6688133520358159
Ni 5.630667476348711 6.94946434258076 7.632449122741699 -0.10631537282948787 0.3115678237465215 1.1119373254564848
Ni 0.7353668376152703 9.312000702485788 5.116551569589079 0.20112325924000846 -1.7924594812887968 0.09256279913008575
Ni 5.806456654352138 9.16720074929898 4.125607634171449 -0.9194665996851519 0.539891811771038 -0.19152738802145725
Ni 3.8027699173612364 5.056088045012389 12.957609512917854 -0.2542278523744718 0.29225832478463215 -0.6485553731177283
Ni 2.2246529776787964 5.719724161281047 1.3534002560634255 1.4558863937471895 -0.39620262627878217 -2.737817089808098
Ni 3.2292265715534216 7.938029948334753 6.398455390312789 1.4401640979159263 0.5718210563794669 -0.2668303716298308
Ni 0.17395315977408093 3.9966299204384503 3.655628037515847 1.258026121529169 -0.8952617203041743 -0.3629721463604265
Ni 2.5498344879683614 6.905155351555313 8.664089750990792 -1.0470599080568097 -2.591621335843904 -0.3417777716709985
Ni 4.4955284376744284 6.51320699635211 1.0441287258039582 0.9078020188630301 -1.060913011889818 -0.4187540292167369
Ni 5.9959296286149515 7.118383620142913 5.28208630109144 0.6078442685516112 -0.34902622570329567 0.08243676643967739
P 5.603598575153471 8.253279972116824 2.0061229380984726 0.5870949518194019 -1.0711290331908716 -0.3532711170225787
P 0.22158602518422738 1.89050139357936 6.80115289952166 -0.6337059668097216 0.5444184959967978 0.03224189075284125
P 4.344446632589553 0.2823939781933669 7.559551638412534 0.393073079510865 -0.40674517768131885 -0.8061259445777665
P 2.2597865446094447 5.809387562964313 6.7863434103367055 0.43388342865900753 0.1739533836934359 0.786054113528556
P 6.1963981772253485 4.592257755980037 3.317111826451275 0.1888279868124232 -0.018702975726141987 -0.10174857939441186
P 5.249686693181511 1.8248266388173937 0.17497244391563957 -0.9628218267423353 -0.2192284534811515 -0.4070382834417055
P 9.435192205235706 0.46506985802501716 12.95918137600795 -0.1342072141437495 1.3658535601278088 -0.32363015422769426
P 8.943564954907004 2.0274326972118284 1.3867146061516766 0.7574989275986824 -1.3695585197832219 1.8998873704561732
Ni 2.0018385844265367 4.81778837345568 9.9957630134983 0.8594035729549845 -0.40368376514717574 0.11825660435176406
Ni 4.673875160135613 8.593060020844097 13.615912122240664 0.759039532612925 1.8741945936757596 -0.5798724659290335
Ni 8.130069801159184 6.609180252245024 6.5978159807949535 -0.6887787394141492 1.0100167392605832 -0.5375292250761323
Ni 1.7077956446153564 2.5912312385893568 2.1804009246868965 -0.04663621180130033 0.12898016141685528 0.37673937534784796
Ni 3.7793599848792847 1.0162785601156015 5.462745081078852 1.1414543610789956 -0.8602067855825701 -0.46827193344120643
Ni 0.5777903630643091 6.884666993581674 10.450906052067753 -0.16107909883392904 1.671290074165612 0.5314313397085106
Ni 7.891462104175082 2.8033207465059857 5.131291986405466 -0.21352857488289678 0.46529459598043743 1.3105079934779689
Ni 7.927622422530377 5.324732888219346 4.29134771595874 -1.7572901324765158 1.5798919847675887 1.530579768796022
Ni 3.9605442749140387 6.28341069341225 10.881745884415812 -0.6330655050122452 1.3992295644850934 1.4171807496468753
Ni 2.6027215204415426 8.023502337384686 12.55267181878248 -0.530912233980247 -0.8202888663417098 0.009346217101590355
Ni 8.074139850827503 0.7215579643641542 3.7434302188893422 0.5600770284696612 -0.25786982000243336 -0.3936513206118382
Ni 1.1692178518687026 5.765563945339606 12.394664108633169 -0.26465650390696355 0.28481241002954816 1.2912365468428664
Ni 7.690816207591337 7.761708726411282 2.7791258158893717 -0.8855519492155781 -0.9945962909404549 1.2407524220503858
Ni 0.7794490099169102 2.727966526040756 13.442562878986353 0.29729794409106863 0.011488203145257635 -2.0904066289280903
Ni 5.330249343600858 2.519367972967927 3.7866676547916134 1.4784210845145958 -1.8013426427110395 0.9062814684534457
Ni 9.345491467137002 4.307100883043983 1.3681621413186913 1.6160064711019588 -0.24671740293003963 -1.0705829308794141
Ni 1.189304843376342 0.20693334894412865 11.074590336993012 0.235937024485084 -0.15771918122276063 0.213357082302039
Ni 7.137247844044837 9.301658515408436 12.716622552859727 -1.2411882240362238 1.7141303092595899 -1.6245651593052475
Ni 6.140710913594039 4.9324671734848895 6.68830918431141 0.9106361458777156 -0.5770735630276578 -1.1285718486893725
Ni 9.06736317440785 4.111402061506265 10.186817184955071 -0.28740022536138243 0.9331515533714122 0.49489056446999935
Ni 0.2546492878786329 5.9239263514356155 8.47222911296048 -0.525115681903128 0.2402845028205023 -0.7059884184242164
Ni 6.44722421616275 9.225510896115068 8.329467728056791 -0.8521995990073775 -1.0732977587074162 1.1204255654331543
Ni 2.858121270270554 8.273450970559209 1.5588345479275696 0.23905140174434958 -0.486956140114271 0.38233332449585766
Ni 3.357047789818113 0.9662477634237112 11.906091910497981 0.8113663670410995 0.4014541044857086 0.017163913373796247
P 7.860958252759206 7.574242584478461 8.878327969616091 0.6621922471748725 -0.4117408311236974 -0.556879604578286
P 8.58461265685041 4.116619825564244 12.317080904166069 1.7201921991829534 -1.3679279261583346 1.7730913611748302
P 6.460207954632604 2.5588699005052553 9.727138705319835 0.674688065649038 -1.4692173065281406 -0.34656747975015795
P 2.911596351286942 2.7733209366985725 9.084382979386953 0.05381730293077183 0.009565275090931913 0.0007870146776696123
P 7.456072829605452 9.09710162930717 5.531175263300416 -0.666210110085014 -0.4928881893279899 0.7014979867530307
P 2.6267941742975847 8.717530295822895 3.75797928657659 -0.05154110530208542 0.7072837401968721 0.649020999900237
P 4.579516704210553 8.566308479180114 11.291274090829743 -0.39680220753599404 0.350594341521364 0.9552470997188708
P 1.0960664799145339 7.304673664989321 0.7460739881535665 -1.7142197836496027 1.2629906646232958 -1.033198319583369
