# total energy = -340889.84010755405 ev
CRYSTAL
PRIMVEC
9.11543963338644 0.00000000000000 0.00000000000000
0.00000000000000 9.11543963338644 0.00000000000000
0.00000000000000 0.00000000000000 13.34136730621985
PRIMCOORD
 96 1
Ni 6.747795148850681 2.1192667302658426 11.423104913831944 -1.3358271889690478 0.2106509962247856 -0.025851413845465153
Ni 4.594381982700697 0.32247598708747693 5.546646410569302 -0.5184374985520039 -0.8441229926468301 1.0035285604330781
Ni 2.885182407983171 1.7894519029406928 4.610122523406713 -0.30187476482847364 -0.18056060459730838 0.722035701695066
Ni 3.4478875958005615 4.497411938670933 4.828854783467761 0.5910709057480142 -0.09479374534313352 -1.0223117545778522
Ni 3.7288254372178717 2.998195625306072 2.6338797715052453 -0.9366030022551224 -0.16730271114613768 -0.05253149423981276
Ni 5.468133308178142 4.77841358816384 2.4220980339646614 -0.45806979609722404 -0.2601051370908553 0.039173584875668015
Ni 5.534010588513083 4.5137650369026865 11.735186565404554 -0.1719137275555878 0.30088309033916566 -0.06378675543865787
Ni 5.466592798924426 8.233183340689584 12.386898549417117 1.4801414096398122 0.2295126090159789 0.44991785641405097
Ni 2.023837195489794 6.553581597610019 0.19942849410486868 0.5202910068209748 0.9033948909342701 0.48140050040336446
Ni 2.8019857928431393 1.5426969591650086 0.3627562021244319 0.07707421657618338 1.4264999701652723 0.5776008962860376
Ni 7.9137874605656 9.159284634475256 7.020347697590516 -0.09866891202782362 -1.2916852043445108 -0.9012981563062414
Ni 0.02362630730595477 2.4059837602444305 1.2075167842260293 0.27208853470497657 1.1310192817886005 0.04306649217217099
Ni 6.753218835276487 0.9945947052201208 4.9561309287746225 1.4007136052297877 -1.2589856572289608 -2.107871361371757
Ni 0.7862157611967688 7.477577224900969 2.509658209931639 0.5244093998647227 -0.02967155892250374 -0.23091386023887975
Ni 7.599897305821763 3.995224152838277 3.667328125500744 1.1869425753187817 0.15971487149655073 -0.0883374481948285
Ni 8.066334338440964 4.104554732655253 12.3076644157717 0.12099740032169483 0.4075956986070723 0.18763550916621877
Ni 8.265187648321515 7.080773033637603 9.261857027542499 -0.17461287165430572 -0.15716742248434865 -0.14799938283183545
Ni 7.224632897792308 1.0617754933851298 0.3815048378229109 -1.0442810597600918 -0.08013742888253941 -0.8409008861651066
Ni 2.1115550685578914 6.579569715257026 9.235067662774773 -0.4657561089978882 0.6736349417941753 -0.6769388093564277
Ni 0.2113496657143936 4.946292635061394 1.1870845268757082 -0.39399276311165693 -0.051836267945001055 0.18599745934216355
Ni 6.173467775835138 2.158189656380441 6.803629949630482 0.07238915239568823 -0.028261823059170684 1.5524542002716104
Ni 3.717932487169407 4.667259920472644 0.45694968332175934 -0.19653795386217118 0.023087992167715076 -0.1552491224157133
Ni 6.218607431600827 5.887516442763723 4.5021911635332 -0.03492098024690115 0.057496294444255816 1.3221239804503424
Ni 5.538303960456871 2.7610392391881566 9.339583467515935 -2.7820927717970214 1.0303261402418966 -0.5082582440261569
P 0.5964468981934551 5.888181869837813 12.191675007494135 -1.1767224402526701 -1.9090852349053573 0.40754504787479495
P 4.461260106125149 6.302414781178722 12.558482110875087 -1.0231334791481992 -0.08677678857592797 -0.6586559518868399
P 2.350589235186254 8.617152993318438 1.2401710226851217 0.10069057044354271 -0.2928368229959215 0.11546284365671082
P 6.697423230885981 7.828129676795371 5.53905507266105 -1.0097154059700804 1.4892814242678674 -0.18984100145796984
P 4.900906862432686 1.288257699999487 12.464078974572223 -0.5966599698000176 0.8492428303718986 0.6390628602462607
P 4.319022790178501 6.180678088377678 7.890925027078944 0.608613542617468 1.7674585883690852 0.2873835131908341
P 4.75381101730124 0.9719793001404211 3.4220343866562466 0.05571066329874277 1.305193523243591 0.789743389454685
P 0.23025964468974108 5.5096723653922455 3.587907125348221 0.21718931156393562 1.0325357462987057 -1.754229491273321
Ni 0.6305441107049928 0.25000095173573295 4.686555482533389 -0.6520795842209028 -0.05927832604534307 -0.13149007232290258
Ni 1.9802653952959346 6.362640489103582 4.773020894231897 -0.6046746125743779 1.0353976412275328 0.07627151816922993
Ni 6.230822120358101 5.730594153990232 9.163278108463734 -0.36881394985318416 0.23807541098432547 -0.3428411799385063
Ni 8.686831411871129 2.7139579948364236 9.917424842409037 0.28378396876503387 -0.5797374830130662 1.6989443455477709
Ni 2.574418848943621 5.099003590845437 6.979429401797584 -1.1228249189032662 1.9566575853676818 0.6596612532229027
Ni 0.5100653485371606 8.830937392888853 8.928403316820406 1.699750386388834 0.6410690920430121 0.3564585136116248
Ni 1.4941390136351576 1.2133196729296718 11.233497394105498 -0.2898952238690943 0.14955875689915532 0.05174550800340765
Ni 4.10626843525702 7.048167107007178 1.3651683081492083 0.6536867808070227 0.35471633410953746 -0.1508391662734757
Ni 5.861929404449044 7.998406084247525 7.8777039938151 -0.9235741940956224 0.20305492904508254 0.20226688592614842
Ni 5.119850600687142 2.8709258608067705 4.75180835527141 0.9471319268109044 0.005741530469467532 -0.7585008865006357
Ni 0.5678280647439488 7.390005198862808 6.737323332101161 1.063136501903698 0.5508297988397803 0.37181288458050804
Ni 5.239691282098998 4.543964487539141 6.732574188188818 -0.17588813882230353 0.38418708987514477 0.2240914380004076
Ni 1.00088435838618 7.699975714677072 11.272414850956475 0.0269346196073149 1.1277609227523029 -0.3276595871020615
Ni 4.589906301969487 0.5509836443300926 10.242968174844888 1.2348764228855829 -0.19600213596335922 0.5588220730166376
Ni 8.621847444594556 7.348119754952602 4.611270157223535 -0.9013878878065701 -0.5762649510834335 -0.4149210286238919
Ni 7.423960210520156 6.374080365514313 6.8960723549246215 0.13584834929159828 -1.107696290791944 0.339049574106558
Ni 2.265432800581435 5.587080676531629 2.5059755724257142 0.9923661160583555 -1.282815669769023 -0.24739951659872877
Ni 2.724650405218724 5.365529922617037 11.353303436847744 0.14382031175348134 0.2267466162350676 1.1300967699743314
Ni 1.2124263598713036 3.3939788873598746 3.6293851091185387 0.00702322539536855 0.67115279880227 -0.062069515637235034
Ni 1.5739629162078825 1.0106652248313706 2.7272555977909847 0.5811179083003605 0.16412225653562704 -1.7690657849552052
Ni 0.9768287138858464 3.4537397078768075 8.006061230231374 0.5208486790966579 -0.26062655681196406 0.1653782404299152
Ni 3.4987244011731877 2.992981593985803 7.552307419953122 0.4598821667156145 -0.010173340988576026 -1.1416682768620143
Ni 4.059323922495854 6.977467759244924 5.893255523391768 1.466784785827248 -0.6950157214627966 -0.7023539069954227
Ni 0.47007591601614374 0.23833592397253595 13.47064498631841 1.093122506742827 -0.8393991048085995 0.02305302516472159
P 0.3289196911789077 5.683986912485796 8.009543328071134 0.0625945349027696 -0.38217134499669664 -0.22417499885314937
P 8.872111832528113 1.5383580100243648 8.19310731149454 0.10806937940611709 0.3448723514359222 -0.6481355119714902
P 2.0655403306125777 3.3718830623243274 10.152313307211422 -0.07051533241174307 -0.6827294478962759 -0.4805363526308563
P 4.2781765063566 6.284202133315263 3.5585563221172154 -0.724278732092972 -0.29985439196433517 -0.023486770268030515
P 6.930404745771932 4.006281180795421 10.151193019712712 1.5702516334643473 0.8704384906129075 0.9690161284785053
P 6.504221493415511 7.95943758093607 10.383052424012082 -0.8311116679888267 0.35096149505279556 -1.8209429334404703
P 2.466410007835454 8.381847041392856 5.667745934158306 -1.1944255139593882 0.8186492738557579 -1.0297959787700395
P 7.2431737014731254 4.1416636863350025 1.2832824931907405 -0.640746932816903 0.12248478350049873 -0.4845953531915784
Ni 5.224714615212281 2.936985449929134 0.8234869696973236 0.8051664088779746 -0.2876920455701884 -2.221169593276981
Ni 1.5041386506252543 0.9714050274600418 6.673205331564842 0.8411166017203384 1.0528384624117997 1.5800591064730725
Ni 6.846159855104224 1.0001642386758631 8.99689763979879 0.8330824185619523 -1.5465979986011493 0.3755461263706952
Ni 2.6761289214463577 1.4400935736039042 9.034360272526138 -0.8860288888519966 -0.4093075390918564 0.4946483665522062
Ni 6.590362395472408 2.166238589345122 2.5058689217850723 0.6434854147939886 -0.5105256999040949 0.8863639035939123
Ni 4.518796759435534 7.057701856589348 10.222328997020844 -0.7386015764735473 0.3807361552120669 0.2891053809779473
Ni 8.629522644545021 7.173568206435403 0.3889412132618545 0.3612363946162424 0.3467870519601318 -0.051437232734369474
Ni 7.685600666788848 4.047601467464618 7.962474845334522 0.06731430897594214 -0.11904516169133045 -0.20911244809307214
Ni 3.130214533717717 8.78410226540014 12.42873750458653 -0.023237630371701914 -1.0454498832572123 -0.7212882820060803
Ni 0.5500602503218002 4.935755187148402 10.183692295702498 -0.8424882852568845 0.21381653843696077 -0.03212284867647371
Ni 8.662283533644755 2.162583298157311 6.107704438492335 -0.106119711878914 1.7506556578791335 -0.9429361435620018
Ni 3.765214271187304 2.921060777347822 11.372808654014023 0.4057077375557399 -0.648125227558845 0.3160310017241976
Ni 1.4535844238731324 3.4019822431277005 12.455353676006206 -0.7534538109950315 0.32501237928720156 -0.4283943805199783
Ni 2.9278973568761466 8.342978807914486 7.760886903642639 1.290665504830745 0.008207475511456832 0.5134822114292577
Ni 5.873004663284931 8.06871346811682 3.2332673104398175 -0.7723367639424634 0.8861152779182159 0.8104865355393075
Ni 3.232179838522845 8.272470884379024 3.3555673373939947 -0.07536520430487666 0.31299401467008675 0.7422563996173153
Ni 3.6993643371704756 4.829478279520743 9.290741120277703 0.6744252989059546 -2.2501358986023443 0.7451416915849103
Ni 7.6849808169116125 6.569943811281144 11.521978261602394 0.138772979137561 -0.5914614563182137 -0.04104946174214221
Ni 8.194688840225426 -0.05023518637413356 2.4138139226642052 0.15593663540104113 0.5423269035750918 0.794804091807044
Ni 5.015250933903768 0.5352950616284918 1.3012380856639336 -0.7223162090499625 -0.9485385773504438 -0.19879512532746407
Ni 6.459081837649823 6.1241805951555985 0.16035880941639583 -0.7862297198744718 -0.7449205767130397 0.4256319872834927
Ni 8.003383114144144 0.07763710866759806 11.216046796973464 1.0226663097037936 -0.4134778684194621 0.1883371632189337
Ni 0.08584282718946251 4.946265288743281 5.616889074819064 -0.40232699400896516 -1.1611389839921165 1.4718886827127167
Ni 7.328439521350397 6.43644820169138 2.414680800948397 1.6303583689482568 -0.8694229048641994 0.05939351146696868
P 8.759053038008357 1.8912348989583982 3.333207164616686 -1.2911984945160795 -0.739340768632417 1.255624968286844
P 2.001486138151856 3.529133506915178 1.2296736827053627 0.4358963453239783 -0.02446121836615787 1.1240274238517995
P 4.610133461933959 1.14304875081786 7.925358599303275 0.11446576985076416 -1.094667996853076 0.015369026256902564
P 8.697906670707017 1.8733412914729286 12.38692589573523 1.1431052664188572 0.744975341210375 -1.2590813022665608
P 6.724651048287457 8.20863546246321 1.1160278538901074 -0.43634783103910013 -1.5075889643278035 -0.33021166409995395
P 1.8656934378405754 3.3872152313465183 5.949315475524034 -0.15628939075476955 -1.6490849988234821 -1.1036072083242348
P 7.046189056663648 3.886303767793 5.770301007890744 0.11427319422398385 0.406513521286487 -0.07524719066977363
P 2.744139214594137 8.543390857927495 10.130232978422805 -1.7446500751150018 0.0810915652656926 0.08090567450713164
