# total energy = -381172.8184644797 ev
CRYSTAL
PRIMVEC
9.14076578143169 0.00000000000000 0.00000000000000
0.00000000000000 9.14076578143169 0.00000000000000
0.00000000000000 0.00000000000000 13.37843468388744
PRIMCOORD
 96 1
Ni 8.369212033296275 3.8631252837332264 10.24173995336995 -0.33655791803295587 -1.0791344199938513 0.06314038010391061
Ni 1.2634183662790246 7.745034841169613 1.2199128914906106 0.43031422325051055 -0.2048169060415118 1.6286177321080662
Ni 5.17096777176279 8.941378268064799 1.8469867922968515 0.4261896595591757 1.0002154368994454 -1.6496637541450878
Ni 2.4800268709357214 5.222658802318201 4.268322634233424 0.23844590694986678 0.6147193984048898 -0.5918502071162002
Ni 4.108582267553645 1.7711513429776795 11.248199510232114 -0.4256111613478864 0.26220624259425807 0.18575474720373816
Ni 4.199276945744767 2.8193778009745643 7.351570577640401 -0.3485171472773611 2.037549890138375 2.0830761567049483
Ni 1.1863160068210412 7.296643715994517 3.800652719925806 -0.13243598117593963 -0.15061650873970833 -1.1631932954179838
Ni 4.567457851092499 4.549286008697423 5.5500700640791525 -2.970597313831755 -1.5418278309060156 0.35449161969324106
Ni 5.5612419080304925 9.08742942389404 12.394557573468731 -0.04477036223715515 1.255252929659406 -0.4550623767294679
Ni 5.436625847984175 1.0541222519329132 7.078222375157962 -1.075005228316826 -0.17896137843098858 -1.1476550905730685
Ni 6.532411710398355 3.505556807470345 8.615591320385137 0.6334575982443413 -0.5851787086332955 1.4478434688380548
Ni 6.969733368198984 3.3359041943654044 0.2565099978164584 -0.24082392026374005 -1.5548059883332384 1.7101404713739063
Ni 3.8828784786103694 1.7837838813026272 2.926733352975297 1.9747555805199732 0.5654727455639358 -0.5976477876345836
Ni 3.4730705258445393 7.1631336908323 2.3094921739318246 -1.2446856956665209 0.40358220657230487 -1.1992651014398765
Ni 5.752283913089396 6.283225294134681 5.5699905349702945 1.209577281999162 -0.12715442106202618 -1.8310360560104144
Ni 7.7272194886404355 8.054723986212469 9.336862640834106 -0.07780518120493697 0.4309531423860901 -0.19494644100533523
Ni 4.922960514286323 0.11837565923991993 4.014172782144536 0.7196872560675476 -0.43736753055286615 2.0667681635735438
Ni 2.0061147276685474 3.401443485096139 10.092369785481527 0.03316723078058804 -0.8730841557658705 -0.4448895499615242
Ni 3.315565990477555 5.182978738013862 11.243838450872612 -0.1646074237021617 -2.0889647542752408 -1.1368207189617259
Ni 6.335263673790199 3.197640970991195 6.501745355241794 1.109117853729819 0.630689548580901 -1.8125436536331814
Ni 6.935601748730566 1.4527967519637315 4.990303278107875 -0.40623455659348745 0.3270468932187271 -0.6548882573142916
Ni 7.86231086628472 1.6089393132276648 9.173699971441694 1.5113677146439455 0.6254936062022582 -1.1473031065502886
Ni 1.6126596049051276 3.2732442448592423 5.136743830559869 0.25371825972790496 -0.18770955693726382 0.1627174057683004
Ni 3.010566058286145 3.5068182331496813 13.400910183371126 -0.8168677564753027 -1.1926360261591333 -1.7302395561166266
P 6.277146684882807 5.388865346719449 0.7770473592369561 -0.36183417610124136 1.3205581786251193 1.163825529685344
Ni 7.771287120525075 5.193353507188114 12.629951488228416 -0.4126731131299796 -0.549455544200073 -0.9904172198621009
P 6.74319776956861 0.6803161193166045 10.568187778416394 -2.6681957299655337 0.5648194282506531 0.20961869830552932
Ni 8.756049241626076 3.8310594773338655 7.555150057060012 -0.5988045269468462 -0.26451149368866705 0.2155270933701643
P 1.4849448252552226 8.261926865192144 11.72675973290467 0.21952747277880902 2.5253696638045215 0.308935528329997
P 0.7073727860617891 3.1734088008758286 0.4176251356713983 -0.1913317270708834 -0.5415296044847772 -0.23028676817784208
P 4.109615174088174 8.703828046654712 6.003987696252268 -0.6317064198811895 0.8017746095876063 -0.822476618021648
Ni 6.498408061651028 7.081451807712378 11.403416111921288 0.7187351765669234 1.1094430982797217 -0.18497570294586854
Ni 8.911030925634389 9.08989743065796 5.074413862698809 0.9770711375724977 -0.8969378224550165 -0.543448932994677
Ni 0.66460862737913 3.9864707773344152 3.098578835793809 -0.3037300728696576 0.029904757979232366 0.5572878957602982
Ni 0.7419157399908609 9.093919367606567 7.655060455322923 -0.88758337782331 -0.6500820941748998 -0.9777784480521677
Ni 3.2965349160980026 0.16703469778202829 13.539377245822504 -0.5389947538780652 0.466581433112661 0.027672011993971696
Ni 0.7701533936764096 5.500117607177436 5.833800348348478 -0.007824895361057491 0.7451185516564587 0.8248253207594828
Ni 2.9739572912880154 1.2710509057155885 8.707381062318175 0.011624471612805786 1.4599677629054146 1.4175571591496876
Ni 7.793435196039799 4.8476863079867965 2.3481155657105757 -2.1866651317422083 0.2301733825284294 0.11386901680702971
Ni 5.689066376869905 6.674294677026313 3.046951790598943 0.5855021534109852 -0.20255227837705114 -0.4930123736106799
Ni 4.800684490282831 7.274824708048317 0.30664435595744266 0.33127430103651334 -2.181502356594346 0.4414699827570139
Ni 8.247822663574638 7.274733300390394 6.735078941391896 0.9972908070534825 0.16521189005538 0.4674527799740207
Ni 1.667723578037895 1.9547801869790349 11.992267900567061 2.130009845142009 -0.21776215334827015 -0.4650765664323603
Ni 6.123051655156347 5.156497939513592 10.423967517975347 -0.19072109007007798 -2.3909441630023793 0.12767198412839303
Ni 6.762064310163901 8.15934005070525 5.149011652329705 -0.423183011522368 1.7016992825850885 -0.4335445572623501
Ni 2.053646709788466 2.611955543615873 1.9872865782895839 -0.2927010687490056 -1.2166563003331303 -0.36394350913476026
Ni 6.144111979541789 2.9827324264486164 11.519688480952404 0.5665736919375984 -0.7896474873067691 -1.153777915641355
Ni 4.5463061190491345 3.4863520585407395 9.558035352174143 -0.5581638706073484 -1.07483759239071 1.5957464353013422
Ni 4.324724815478183 2.2976594526137024 5.280869941113256 -0.0755400393198441 -1.3824448888275869 -2.533168333913334
Ni 2.308262740932762 1.277422019472816 6.430197839155786 0.9069047038597413 0.1836865518207998 -0.06391968147209637
Ni 8.130053037106746 8.984211896567478 11.692966321770566 1.436112553554372 -0.8751130132704412 0.5356698032698903
Ni 0.311235762614911 6.843782756346992 12.591635226180285 -0.7204513879270817 -0.023861379998629872 -0.7687642160998566
Ni 8.195135289547867 4.018838229004921 4.817828910602853 0.9023937033632653 -1.4124738310895093 -0.307959794680289
Ni 6.3948888890533215 1.9039392476423065 2.624995760095157 0.4104393387034544 0.007123498418658699 -0.3660410150937373
Ni 1.9716448998658138 8.078435132677674 5.78500876870238 -0.49152036244618574 -0.09547971566656459 0.7316392862231013
Ni 0.8936652492150183 4.5582165368764915 12.074679216797207 0.8939466010371765 -0.7320712315541973 -1.059269305638808
P 0.949423920548 2.1642956797041615 8.25472119951808 -0.11242611371291607 -0.8652050101281099 0.8773362461740051
Ni 3.213984660227813 8.788014499601722 10.525643912189329 2.613140697972919 2.365176824230288 0.9593711491895737
P 1.8037747360903702 6.747393381067272 8.067757804155697 -0.7453697484353163 0.1799797923931739 -1.277897149421483
Ni 5.210748384490845 0.20512883922140546 9.142648790045277 0.2650431978224209 -0.07859039611039369 1.1327223805226363
P 5.320611248548404 1.7653012528706127 0.5022759395206566 0.10810537485037511 -0.4626818409479387 -0.04415226903718203
P 7.614413297997759 5.28111399955991 6.3383276584837756 -0.7648471404336377 0.4903433114189491 0.8126758298811423
P 8.4856379671927 7.148462761735671 2.1459675302140364 0.7072528869589367 -0.6312068545369516 -0.11554563317850422
Ni 0.5970336881064523 0.2816690415831631 13.24581423979041 0.010997893772400414 0.6905826253921075 0.19281551070526148
Ni 0.46104742949110256 5.268198097495401 1.0361533345384255 -0.28183250146561784 0.6839764329294994 -0.36106053116001047
Ni 5.67038265159046 7.864669183859132 7.143616327712597 -0.18859015977000423 -0.5146435787272104 2.6121415672844432
Ni 3.3334361876014857 6.125930996380919 6.557118286258341 -0.5478303498918242 0.44203871077629037 0.9233363670532033
Ni 2.130365157083173 3.7752825244692994 7.446222293343006 -1.228502401038439 -0.4572151614064126 -1.20521077750035
Ni 3.747339203442263 7.161195848484334 4.47216993809075 0.7091778718957916 0.23130235392655002 0.6195577003337975
Ni 7.339203121523429 8.756634250636784 2.9988969566757055 0.318127222131594 0.3137800009064919 -0.735137786294663
Ni 2.548280969106766 4.791178093858847 1.8162966711492308 1.2838983613102404 2.121340342392469 1.1723006570358907
Ni 0.9860783913750911 9.339303225300648 9.853711703257414 -0.573069069853955 0.6497087699958811 1.3539632364481262
Ni 2.2575406315513327 6.930089866957814 10.363832247981016 -1.9340881847075981 -2.7220035198146086 -2.404904224726897
Ni 1.952184209494024 1.129606695845661 4.08982724430102 -1.2682585978904544 -0.37424771927424577 1.0921711985731515
Ni 7.484587001449835 5.798572751061564 8.589851837990622 2.3141535391048853 0.36123048107897143 0.8650150056044908
Ni 8.041753239553206 6.472996732748457 4.171422290145915 0.2852744372676313 -0.3207358633990347 0.2729789077297299
Ni 7.435473666847849 7.424413340239177 0.09912977686424898 -0.8464889217758454 0.3508383392113699 2.3893217969076077
Ni 2.407065278381646 6.12302423285897 -0.17859136797322314 1.967658821574192 0.40991149122444237 0.24898768702145505
Ni 4.9357941494587 3.7833721021954783 1.6239283409738652 0.9239151223748088 -0.3569475374329014 -1.3090938867392616
Ni 4.788435864121159 4.642622368202517 12.75916078308536 2.3538822251530753 0.8506934467754962 -0.02388940502308789
Ni 5.59871904777889 5.483920170193493 7.652865757456194 -2.330926901908483 -1.3036889136736065 0.11537722592144002
Ni 4.957265808304793 6.8708028600290065 9.488681619878285 -0.8104194297467979 1.1584586089464757 -0.40979064937586196
Ni 3.199926162439268 8.26486105101147 7.958549418928866 0.9172518514220203 0.33367442583757373 0.6883192832792275
Ni 7.421844785051541 0.6785802878926483 0.5998417313578446 -0.8677758561790797 0.2619514462709746 -0.241131681312146
Ni 6.054377081758856 3.9554835812985454 4.055338220890123 0.27753695941405754 -0.36675063956625226 -1.5264953143140034
Ni 0.11399540427225358 1.2974951411526894 1.9361138291545954 -0.23079738926567347 -0.15073529370575975 0.44208421930224506
Ni 8.655409410252942 2.3393139223291777 12.173291626317612 -1.8899557131647582 0.021650231279924007 0.10018329178982101
Ni 7.483279871941537 0.3352101631349346 7.1508539860669345 1.4144039582326866 -0.06315786360540736 0.32815195335744773
P 3.9463885193352146 3.964724895514552 3.366856655491264 -1.0444957468740592 -0.1287158520118751 2.3128936985558552
Ni 9.05061041928269 1.972531554147666 6.162655851104612 0.07414033075884006 -0.04754663943071167 0.8820308234361971
P 8.888700034803819 1.9113249864024786 3.9428921764196634 -0.3397057196333182 0.6167387428277636 0.42390574862100544
Ni 0.8039769693376277 5.238837957770559 9.048383728735686 -0.2427144524182336 0.27202040047120246 0.7643622303774191
P 8.545875613763904 5.899962125229667 10.704500362370528 -0.461474708013715 1.497496355978492 -0.6288013304192525
P 2.3768367659065364 0.37503647969195114 2.231041551519478 -0.02354410586852719 -2.058432904234971 -2.044096175897325
P 4.322750410067048 7.008928971916333 11.644950793140236 0.009257514042525993 0.6069924620742773 -0.621354130112588
Ni 3.274505670538579 5.072247501206036 8.77258762917407 0.37883559575524434 2.2281272555417373 0.44010601252995174
