# total energy = -340891.04118715296 ev
CRYSTAL
PRIMVEC
9.11838055063705 0.00000000000000 0.00000000000000
0.00000000000000 9.11838055063705 0.00000000000000
0.00000000000000 0.00000000000000 13.34567163588549
PRIMCOORD
 96 1
Ni 6.481135163675293 2.244571434859522 11.606730964729842 -0.11171057570313019 -0.33068371864036594 0.5230302601290089
Ni 4.643781485263398 0.3192591222636832 6.073001009983596 -0.4983507551044578 -0.42135084340963563 -0.3972788900620965
Ni 2.701210813823241 1.5499879157560594 4.715346183078028 -0.9555530609950639 -0.49097168903156735 1.217667000985832
Ni 3.77753533415109 4.300328563918176 5.162479650330856 -0.2864879979597582 0.3137144377758791 -0.7823573814032591
Ni 5.438512177815982 4.225904341966821 3.099332073846135 0.12897887586527465 1.4590182545079518 -0.6208586785334081
Ni 7.189533029293862 6.34606459276554 2.3929457229742535 0.5146698039794555 0.5215619031135985 0.7398827571788161
Ni 5.0713605854524335 4.463565812309886 11.497896710142145 -0.6661018666419238 0.1783949644045573 0.44595835754567065
Ni 5.828386774480286 7.585981978326084 12.296141626554082 -1.1384973353332006 0.6533597364849071 1.8516632453424624
Ni 1.782506619475679 6.494712432296411 0.4151689842767841 1.6444220461301744 -0.06233408215253136 -1.0173952911128414
Ni 2.8023245356093924 1.595889843384474 0.2402155287317658 0.37500568048619287 -0.21313288210637488 0.5251138821309149
Ni 0.6859046445073711 9.006516245583812 4.161527663530316 0.7774650863079643 -0.38384384760311313 0.7970208969527048
Ni 8.720645897336212 2.4080548795257597 1.2570690593525673 0.11602103015302599 0.6494550021138621 1.1917615939739798
Ni 7.041787909436255 0.4303592944150788 4.741610766379753 -0.10816425311276856 0.49454937908049673 1.264307069441874
Ni 0.7528016433245862 7.470360913103935 2.2167959359026463 -0.7353583869459013 0.3395308846183507 1.0737780407779443
Ni 7.689594136379653 4.137173380951307 3.9666541938619293 0.5367877189244175 -0.5969962700935139 -1.055172766971931
Ni 7.98590503034329 3.9658207738807536 12.835319674309943 -1.1771968087859273 -0.295347248122601 -0.4912028312057669
Ni 7.900392857657699 8.55431751794211 7.523355117114825 -0.8720174050642531 -0.051884090463800964 -0.7462318393252955
Ni 7.082647372627142 1.0385470697588148 0.46163716333660976 -1.3227083921989027 -1.5293330408731145 -0.9319212805087371
Ni 1.8802465404627615 6.4271087589875 9.185438932177032 -0.5445658202079395 0.14553215223826552 0.4679256058453812
Ni 0.18070077079813504 4.903928882013232 1.4567597694591916 -0.4836607571924509 -0.22286785000595166 -0.0476350853794599
Ni 6.227160910549703 1.953977765493226 7.074460890580104 1.048958153520787 -0.42073017910650123 0.8055854986932642
Ni 3.7238189544015894 4.620055459103459 0.9875306424866228 -0.13320808345527382 0.7964238867986543 -0.3817609969321554
Ni 6.032866458045481 5.8743342940113905 5.004453556416626 0.6623262016495756 0.013664641971286145 -0.7264999081140069
Ni 5.552346040452677 2.8515364353731094 9.35592985228674 -1.7017273076095465 -0.37886439211065076 -0.3598382287171351
P 0.2097391654595272 5.619402610929308 12.52728801400273 0.8002394038900025 -0.3734725316711181 -0.5037369591170356
P 3.9267302765142436 6.201665918565387 12.676800276008606 0.02915091053234334 -0.6693527694790536 -0.5641457992223962
P 2.443871878279119 8.54619304088273 1.2093662515678931 0.24923965513126106 1.1093124862391281 0.2581454422613232
P 6.327563398653888 7.962179004183351 6.069050927534523 -0.24094759032579793 -1.2795272288257382 -0.2159461831854539
P 4.903664448977628 1.214540932523222 12.655967511993383 -0.11270713528844459 -0.6964665949767102 1.495668558741134
P 3.7835808204478 6.016964002387167 8.231183083949768 0.43862248600588977 0.528714969218612 -0.2715385757387775
P 4.523582993011162 1.1295485075282974 3.8279654495546875 1.242318995206557 -1.3106116089353688 -0.923703777694951
P 0.12171031974544066 5.866975760917205 3.646584447568416 -0.2680819846487448 0.3967577274513038 -0.33667310345458146
Ni 1.4950405546339252 1.4419442247610097 2.516419537515748 0.3651542416134098 -0.11824143484311249 -0.46019044198465264
Ni 1.998666948510083 6.488749011424544 4.820896908833982 -0.49277403234762873 0.22177513116240516 0.8719875802675822
Ni 5.756716303451415 5.71991451959995 9.535615747330993 1.1140821397136298 -0.4584780872792362 -0.6701469832455749
Ni 8.412554055717447 2.3426943278292014 10.221969927998888 1.4530592087110394 -0.21031443882097328 -0.7203930238853207
Ni 2.183368864688303 5.170486500281295 6.9152202283782085 -0.06460179514078551 -0.24768953703532176 0.5396732680023286
Ni 0.35947665146469315 0.02992926043995714 9.286331989154164 1.070864209565259 0.15124334369042983 -0.2336880805499072
Ni 1.5393741208097993 1.1145214164016335 11.447436504082773 -0.2689877842924658 -0.11335248218192735 -0.539954032467541
Ni 4.216156793171673 7.162952950025522 1.3494473725832914 0.349774673833546 -0.4383008410004129 -0.015889674647062955
Ni 5.220391396965903 7.721809374820493 8.13187844886236 0.5659699969153286 1.0866654382635736 0.4013247779966959
Ni 5.661356279784758 2.6135649400917513 4.9387528891259995 -0.4509249575223266 0.0707816986992523 -0.04944694177721807
Ni 0.8500336705157007 7.4658929066403035 7.252411557807971 -0.03789677504577344 0.1584786850966045 -0.6747194331076057
Ni 5.414494363478825 4.6244322817617105 7.45083481301981 -1.4425526527527608 -0.6813551932565685 -0.48014991582571503
Ni 8.311276203081611 6.987962109120298 9.446653179449815 0.49888117368663115 0.05481129141292496 -0.7164111564194371
Ni 4.904175078287758 0.4245435913079269 10.597157549130598 -0.527151224275918 -0.9663514371621487 -0.49762544690265914
Ni 8.402359706275936 7.544839845338517 5.243768189151235 -0.40367990849243385 -1.0727349442254106 -0.26196481600741334
Ni 7.247763007409686 6.072020784075757 7.262394360820999 0.4344177038959228 0.7507047874949845 -0.5037166474020616
Ni 2.110476530667337 5.325754284082773 2.8194862396200078 1.4937507728931307 -0.030004002561258007 -1.1461371112666456
Ni 2.156779667039424 5.302620952657806 11.459474590069071 1.1441666178038359 -0.4274836957802509 0.38896934175513653
Ni 1.1649825342990596 3.5144609372485514 4.066719301886208 -0.4405574982450735 -0.7606148475198449 -0.023967566559190977
Ni 3.61983294274596 2.9272372305997867 2.8492340442872583 -0.5615271306526265 -0.6512216070959816 -0.19631272522524254
Ni 0.8774371395466252 3.346901576481817 8.190919051008015 0.2034490791597077 0.20517814603567244 0.3451466881432314
Ni 3.831935592440943 2.810996115501053 7.126681855921369 -0.4391446770579469 -0.6602994010275337 -0.21138067530195853
Ni 4.17975621806388 6.68620754197546 6.110863261491634 -0.7757403903073737 0.8525713805244994 0.26150484565185933
Ni 0.9426308248793374 7.52267306225058 11.435252524007863 0.2349805741090856 0.3598716530582319 -0.2858951015707657
P 0.12583547510084286 5.557579990881504 8.003973101379385 0.40794845396080065 -0.9338377808051596 0.5493390732268668
P 8.382007480915066 1.487043734902078 7.975546550052095 -0.05761559363093949 1.209533059024788 0.3750771571540766
P 1.8662042344342042 3.227605803902845 10.43594184570417 -1.0140919377712214 0.6910865616117194 0.48223276649667274
P 4.0986026312754635 6.116892334703374 3.6676178159554764 0.02512456298176963 -0.5081898526820667 0.28026387142691733
P 6.938741090976043 4.0284822849380575 10.405393447225679 1.189650461168248 1.4741443115161128 0.9960250529671815
P 6.3424354773114064 7.68748779047537 10.273337412921794 0.10188253386911486 0.9630308574293478 -1.515355752757416
P 2.1475245107933296 8.462003033375153 5.766504884958985 0.6380776135148559 0.561346382100388 0.057659302384681345
P 7.148062634606928 4.288082578855609 1.7228860883278072 -0.249967277325905 -1.5194016406920154 -0.9360756689967425
Ni 5.345687063938895 2.9550300544796846 0.6457089994196523 0.5184133301822879 -0.19135460988901884 0.28079223312656154
Ni 1.159821530914538 1.2154071786743341 6.879026640508629 1.2316712856847238 -2.1431906054983414 0.6603690779232047
Ni 6.841046761891651 0.6970035372982543 9.350644838926902 -0.49878629997997964 -0.46781042042375565 -1.062370313161635
Ni 2.752346691880481 1.7075717682141953 9.178165200021851 -0.3529296745227599 -0.12092592365381108 0.2654404332608396
Ni 6.469345097639628 1.7099790206762338 2.789792233397932 0.013932808031008263 1.3378655595553153 -0.42842934752297185
Ni 3.927459746957286 6.8483049927999184 10.445523439973522 -0.28424702444438144 1.053338799086986 0.5248950812518896
Ni 8.397408425643789 7.352250529994906 -0.007145162989595836 -1.0283548754481386 0.706029556074797 1.4044956979800391
Ni 7.5823437444914115 3.7144361408279623 8.280788897752727 0.5383532636393245 0.45145846142829343 -0.6654734890293055
Ni 3.4594041555599606 8.532004840765566 12.291804012932145 -0.9073330496464115 -0.15633104262598238 0.9203919397128987
Ni 0.10457141168617021 4.670069776354522 10.370320508324221 -0.510455765898108 -0.04627034382144934 -0.33684948113144564
Ni 8.589313862447048 2.3315060749090457 5.906234036485615 -1.255613398322618 1.7246792884200297 -0.9835474893254609
Ni 3.734952497038517 2.417574468807457 11.372060323203248 -0.294267641905177 1.1587630275607719 -0.40491095268605753
Ni 1.1355028100196274 3.1553426381390026 12.753630838583945 0.4583616163060299 0.6438973055204266 -0.5415442597727964
Ni 2.8205521783049026 8.872995799365523 7.9356162498380325 0.6187511452721022 -1.1704201521837263 -0.6590336469412327
Ni 5.464900771093023 7.960154723703909 3.7153817168897554 0.40708919128429893 0.4534744634170577 -0.4387579831424895
Ni 3.0779914160349424 8.134625816918467 3.4319058553714408 -0.5214678007378954 1.256578590449365 -0.18793221447103117
Ni 3.455738566583675 4.128292078307271 9.21058195467258 -0.047557438063989065 0.3872757561027976 0.49256885831535807
Ni 7.47444594758497 6.1803745000090995 11.480921021094506 -0.18535159822804853 -2.114770402484435 -0.3326326148366207
Ni 0.5794147255560006 0.21425002831168782 0.3602170639643807 -0.10277753487955847 0.18752623728186416 -0.014147752255291763
Ni 4.6284808427205935 0.5415925949223296 1.5380218649760105 0.05725049698203688 -0.47368333426476494 0.1190356486096337
Ni 6.067771618745039 5.375458576395544 0.17559994872516424 -0.5322646342430832 0.8445281985050488 0.5074414045518164
Ni 8.041071232598338 8.872767839852072 11.202890656433498 -0.19224498291377215 0.00679156900053669 1.1853160954589521
Ni 0.011263935478621409 5.073676654109091 5.613949819367569 -0.12161112264629378 -0.202583902945935 1.8875069945139495
Ni 7.9449726201081 8.99900270002048 2.554161426400684 0.24777618321185713 -0.8669875559498295 -1.1801764602395417
P 8.665379392895247 1.6625725602590455 3.7444347009600083 -0.1947878039402839 0.9520699875424701 -0.6282480290189438
P 1.9824362311523998 3.399113423442544 1.4836516973419327 -0.8861798126075643 -0.23356929558385578 0.13426403552361393
P 4.666869224785676 0.977380973109748 8.341685090337869 0.6916722589118603 0.2513361326489736 -0.6408688031067479
P 8.625367939094396 1.6318162627042896 12.261068687652626 -0.25034265838745273 -0.17085880392851222 1.4633762743663312
P 6.315809806140375 8.016141580207378 1.1809068740706654 0.9307468005846616 0.24892906586937774 0.5006058696872218
P 1.8223812975684595 3.0951430898269665 6.152074694171288 0.44373589597305513 1.1336901437525442 -0.8098051932015667
P 6.888471459069915 4.1099367782842275 5.996810557722025 0.7259049548424853 -0.18401565302544437 0.5045879942634213
P 2.431890326252155 8.7358462376931 10.104301786345955 0.011732457945579795 -1.141029614836751 0.7702472284032864
