# total energy = -381164.7751704366 ev
CRYSTAL
PRIMVEC
9.30440684714599 0.00000000000000 0.00000000000000

0.00000000000000 9.30440684714599 0.00000000000000

0.00000000000000 0.00000000000000 13.61793992465213

PRIMCOORD
 96 1
Ni 1.7153232503790137 6.299511517803109 0.801192248880218 -0.14332100351955962 0.5332899901838042 -0.4956621525287012
Ni 3.857151211611613 6.675725909012643 2.9464591189269598 0.40679145753822193 0.6693710243114988 0.3641610244622051
Ni 5.771802772394789 5.53001845301083 12.745997308901561 -0.470198461039958 0.9711092635621082 -0.5799210597787819
Ni 6.578625117929329 3.605681004577431 3.9876594759015807 0.43346305329213736 -0.22749017926931142 -0.5213654708320763
Ni 7.719801327739347 5.529888191313325 7.5227684145333695 0.6481013162994451 -0.623121506425656 -0.04093093388640692
Ni 5.051948718759034 0.07071256249080836 8.520268763317016 2.1977977513202602 -1.1297918371394027 0.11816584441017068
Ni 4.289880570724564 7.0138294492948825 7.485508916843343 0.49138615086116666 -1.309124739977197 -1.6174570875055563
Ni 3.378793040743912 4.485812772586621 7.199259767015914 1.1755199353041368 0.1390280325711606 -0.7970124123122725
Ni 4.004523713525048 5.693496883380111 0.6607264082566588 -0.4349167550195284 -1.6156768556766818 1.03186468837361
Ni 2.208186991704638 7.512964360914696 4.400896102423544 0.03960450176549954 -0.7821869172636658 0.2167193139060526
Ni 1.130094661115094 4.808433779679646 2.72470439641585 1.2685301063842862 -0.19188168603708244 -0.6718107441012431
Ni 6.752273265110997 3.531022443092906 13.04743032045464 0.9991767112222857 -0.4523727457124467 0.2010173297897635
Ni 5.696297509876477 8.496849570986939 6.104037092763713 0.256829551663377 0.2453603746815129 -0.26236359410772875
Ni 4.928376889861229 1.087722391797979 13.05532883152695 0.49447738819198067 -1.4143633348027382 0.14948625179000705
Ni 8.483525660213528 6.589008836101903 0.6618494501772947 -0.25432658273586517 -0.6981676368282169 -0.46440422295568407
Ni 7.194372162037372 1.6648840602235286 2.482822380758763 0.5394534386820388 0.433214427616441 -0.30827449770723037
Ni 8.429262358795564 8.320084447472107 10.365675997028408 -0.5038205199697775 0.6483016052357092 -0.03126461444123648
Ni 0.9124552778044585 3.8612358462691043 -0.11461540675361173 -1.4119637242223102 3.71283314462378 1.6979938087090434
Ni 9.258173366464234 0.9880628887993805 3.312223730674472 0.29272472289808943 -1.105145499345632 -0.08159652992656916
Ni 2.3853801179398455 2.45653091799869 13.009272947492521 2.0740538986016794 -0.5293528599129271 -1.0665743239406535
Ni 6.044282330355199 4.68804405796376 1.8468382515025585 -1.3244179186908416 -0.38144706523616245 -1.267433787996314
Ni 4.364622871871772 2.3675249609746407 11.271419075648554 -0.06758633169040618 0.5283519294522385 -1.3114973539744317
Ni 2.2790214419266834 8.417036368043986 7.098637257896472 -0.1337125338955181 -0.07562925659954071 0.775317186727026
Ni 0.40092968742979246 3.7674660328791427 7.161988173596832 -1.3996417123218474 2.0804821707255265 -0.6227109012507985
P 6.643588487356667 9.233758602588937 11.15629285695258 -0.6131345704162731 0.5226975593799386 0.8253644810924045
Ni 7.795176328560153 8.434835698567401 1.9477873453064607 -0.5063692545335602 1.5613859555436014 0.14793459103217105
P 3.52720763623739 8.001464335373889 9.116529587918947 -2.454625503211424 -0.14757669347212005 -0.20481150672487308
Ni 7.8167067262764025 6.5789228589521995 12.028032049879638 -0.3056509440414542 0.11662575361656043 0.8624847829834695
P 8.086087916717577 4.286149503531731 5.43566897506697 -1.127677104789245 0.6993881394988793 1.2501166368741052
P 2.2139464196157697 2.3612910083083105 5.88062153360941 0.034564111128114666 0.4976434446247881 0.05502366453404717
P 2.3135687049865097 2.77109430866031 10.327518624066292 1.095467609936236 -0.754376579919617 0.29778542525044843
Ni 5.863516311845558 7.047753317088076 1.6552874948801661 -0.34133399926536057 0.17125861047009214 -0.671025014975154
Ni 7.570642379688695 6.852425901678723 5.6613455051136885 -1.1206417952090184 -0.1971269935964218 1.2449129811859787
Ni 7.088757838581384 1.2230549910991289 9.157901633487361 0.8978821886461569 -2.5430678524152333 -1.1677500615507308
Ni 4.2665358136502025 7.62237488241227 13.23749609372547 -0.7605274300123612 1.271870483611429 -0.9778581522501675
Ni 1.6076619573907975 5.932164226430905 7.091024392117978 -0.978820516163437 0.9555679733933995 -1.395533603690745
Ni 5.07924784879338 2.489822086118285 8.867743702294074 0.02643042627738674 1.0254952945121565 0.04160584846624447
Ni 0.2709182784717385 7.16509119331955 2.574226083457608 0.9744804940271862 -0.054678622489802604 1.2642186234931259
Ni 5.432201222591236 9.596286211153439 1.6304624066577256 0.592403765626825 -1.3676733869453674 -0.4691617922453275
Ni 6.736865167177501 7.62777143845178 8.529528509128259 0.5001358720293386 -0.12209114760650586 -0.8389661310362391
Ni 0.23439755069470564 2.9873194221123156 4.600399335678642 0.05904178455450477 -0.7056492899172429 -0.2551040843318381
Ni 0.9001204254913933 1.0151294086596105 10.356443233997366 -1.8544721755461675 0.6354887697417572 -0.8437342418488436
Ni 9.480260256303982 5.808043437522185 4.7782902924362 -0.8911536116730717 1.048720069368052 -0.6153794005863917
Ni 7.507958589967703 1.532463740302321 4.960525476805563 -0.5374659759383646 0.00030467572461237853 1.1065266959638749
Ni 4.527468602567456 3.350172684920582 13.417429367811772 -0.40343205414768585 0.9755968670198166 1.346356627745462
Ni 2.1524535939862544 2.7708616984861933 8.089628243567635 0.7951568471607725 -1.0470917897360095 0.9449130647827146
Ni 2.6462756892292396 0.6869546010493719 11.665999435765654 -0.07310469040547408 -0.5557295501342429 1.1376956653675117
Ni 2.560489057014967 2.554366757232213 3.300171732333133 0.5426426350432977 1.0177084514778862 2.9076042579389862
Ni 4.056144563365047 4.672301001379536 3.732731751239327 0.8516190439135591 -1.478973100363324 0.29483328460066
Ni 5.435476373842801 5.009408970116555 8.255862639279853 1.0246848827957191 0.3207669737472863 0.3441616985221428
Ni 0.9435785191012853 2.1795945491022017 1.7819753696704395 -1.2946100913007896 1.2289307468251094 -2.000510320886574
Ni 7.542273242853412 1.1241863626925275 0.040967303865449445 -0.5935103684274424 -0.09096434429471431 0.26682008721718564
Ni 4.4092654164882665 8.936557235323393 10.850025275540663 1.7577873838279081 1.2498618405508217 1.724493911882101
Ni 8.791948142278466 4.2968216583202095 11.462342715241528 -0.5096728649854965 0.23998445508158028 0.08206318515034255
Ni 4.9510052075993105 6.905991372574338 10.10384440239837 1.985767872470077 -2.237472701312379 -0.3128220078685967
Ni 7.220824591037934 2.157515191375036 11.168644457198184 -0.5553531406314306 0.7443050546162279 1.300013264594232
P 2.065373649203892 8.23935010823965 12.750054960778856 0.8540767614254322 0.36856892372191363 1.4027907994737905
Ni 8.183114272545174 4.509827446962438 2.488542730160643 1.1759770774462135 -0.1421408671685294 -0.3995278339972732
P 5.810592845030505 7.906094163986004 3.750149601077192 0.16706179877992516 0.2459293598111055 -0.2718928737544027
Ni 1.9390104982166858 4.529664442611118 4.9973895371995924 2.6282220177860736 -0.6348755616377905 0.8816276744605075
P 2.837611514050748 3.3993464757288723 1.3939322858867174 0.19583038627218533 2.9376177735819407 -1.0703435611750984
P 2.8487581935944246 0.47563570138983796 3.1883951001444424 -0.281041115912574 -1.6257026153438003 -0.16285650244932595
P 6.1835134761745465 4.2488853536382205 10.176563925471457 0.15277932071898206 -1.4148970958190212 0.7817521437190923
Ni 7.470340872609534 5.925753490032246 9.993103350704848 -0.09948729416406092 -0.830372475829957 -1.2521588641151145
Ni 1.094719305835412 9.239666901011503 0.9853218105075884 -0.3827308170445925 -0.5704871680593917 -0.01617532420828182
Ni 9.294832729905043 6.888350216969321 8.759699067738914 0.07324455841744805 -0.34230999002538465 -0.9941697449259975
Ni 3.211453281484292 1.3203790879495947 1.24622854708534 0.7035263300369691 -0.036682700133014244 -0.8278080575368905
Ni 5.002663275067168 2.478470709621386 2.332222180069283 -0.40505956244877983 1.1241827184827413 0.3552506093464527
Ni 2.346785437850387 5.914709158965181 9.25206967549541 1.0171489794299902 0.6461786453554356 -0.016390011322249192
Ni 8.297474738547953 8.615778500809371 4.510956071527253 -1.314711232926039 -0.6512059233666978 -1.4077712834075173
Ni 9.02008289664525 8.70356558052105 12.720572086429902 -0.7873692327955537 0.9849888497576778 0.2246902479266711
Ni 3.021755032288566 0.7971271534773529 9.123270630764853 -1.2774178957922193 1.0192647402214123 0.7385504115206377
Ni 8.803141343856966 2.8560621530616923 9.459770091286384 1.5746947568373655 0.21736028992416115 0.4187524865548401
Ni 3.2602455916070303 8.393496218423365 1.6322330353031027 -0.37416492975245236 -1.4947884701290255 -0.43020418003520744
Ni 4.0747812905152845 4.571655231242681 10.071133829273371 -0.5717984306716475 -1.6568990955512628 0.0832939722336501
Ni 5.249137015561321 0.5974220145911221 4.0064664736992714 0.5075455342298485 0.36018429920264416 -0.4242875574404563
Ni 6.483878341808077 8.050647430589143 13.195470878788136 0.8793782163046985 1.2897622762901853 -0.34006773095842724
Ni 4.071403790787108 1.3417978327822688 7.009004183843004 -1.1264571163392147 1.796370900528061 -0.5673457942169327
Ni 0.21148172678141575 1.4951251551530935 6.846038426297476 -0.03557018379512583 0.1391164785199088 -0.6062833518223947
Ni 1.8590391203553327 4.613832108013538 11.34710763498407 -1.174478895634132 -1.2197495945464734 -0.30910907779338376
Ni 5.910661741935549 4.708169490228344 6.022643071077462 -0.22140154987307029 0.45192794486554433 -0.6098983228671625
Ni 1.529914332794001 8.067804757031997 10.001913693659695 0.9838285109009896 0.7052499975962951 0.4215277353071321
Ni 1.0413213142651614 -0.026815300872183808 5.148847604211214 -0.4320304346106688 1.5460719508943501 -1.0099349781800542
Ni 7.338339251001738 3.065876530115039 7.785812373390907 -1.2184401317064304 0.5150199882300227 -2.0937688605321036
Ni 9.10558109224362 8.348006972773085 6.662672756481905 -0.5903461117668478 -1.0596755399382911 2.1438022709404114
Ni 4.710551418411301 2.6715371541383233 4.8783815199179585 -1.2047176399140156 -0.3750409045995025 1.1363113834254752
Ni 0.7660178687909731 6.878943461528038 11.975003443265884 0.6225625485983923 -2.898372454928073 -0.6035749517522959
Ni 0.21596179873490517 2.0215219791793944 12.48036579446715 -1.5319748493713359 -1.2466844712641045 -0.6849174566865301
P 6.187244543367379 1.2173420852228205 6.911349780545292 0.9377522853682173 0.6195803260416168 -0.1882626012272564
Ni 3.1826933595564917 0.3826232667268009 5.245085876768903 1.0236163323218888 -0.010943643495697283 -0.534441330179428
P 3.7325279847268003 6.175586121440645 5.344088488635796 -0.6567150261103851 -0.790059378033207 0.6608984680641135
Ni 6.7240623031941125 6.040690829266835 3.7108208032782217 0.36952845942170554 -0.623821617816474 -0.09961456377054458
P 0.5420003145060552 4.850452481532104 9.40363660406852 -1.4439631599470422 -0.2905143455103319 -0.2591376309712634
P 8.357060160749711 3.0910635597684046 0.7898473854681938 -0.0782929194746329 -0.4762716638172313 0.613428447507608
P -0.08695247440694634 0.28272650135060334 8.520745148953608 -0.43835046329142574 -1.0140561994372794 1.0879170512824878
Ni 3.429660233619772 6.054265959028292 11.621822111497393 0.3892333940498006 2.0314579183080235 2.122629750627854
