# total energy = -340891.588079369 ev
CRYSTAL
PRIMVEC
9.05453338887972 0.00000000000000 0.00000000000000

0.00000000000000 9.05453338887972 0.00000000000000

0.00000000000000 0.00000000000000 13.25222486088809

PRIMCOORD
 96 1
Ni 6.331056370701097 1.5382022075751396 11.42252994392376 -0.39936354050526707 1.1616467768664702 0.34792733621216204
Ni 4.648008795667488 0.13689005459674358 5.919808527693272 -0.2742256356526374 1.2498541272413377 -0.5337232210664808
Ni 2.5932001968725635 1.6063194607719926 4.736040589164907 1.6086849977398812 -0.9166496990616472 0.4316833356838952
Ni 3.172463957774952 4.358589696746286 4.922724238139619 1.524860864034374 -0.3513875268466206 -1.5837057020867242
Ni 5.274573437960328 4.710648056283709 2.9516546786561997 0.0076084084748772205 -0.6173630066753238 -0.8631938932353521
Ni 7.232208786548071 6.1573904240952695 2.6255040549385495 1.0656942353285452 -0.3777781010250075 -0.3852461272672784
Ni 5.229418480936174 4.6641077556813135 11.788741444292237 -0.4670971964068149 -1.175268224304647 -0.9686032093108028
Ni 5.74168775075741 8.008055517563031 12.108623614681667 -0.23542974583136228 -0.038266756790682484 1.354106961114842
Ni 1.8102999845017151 6.240384275325145 0.10681451714909411 0.8808095494345861 0.9901860776879012 0.899877878919947
Ni 2.764647782846565 1.4025290822392835 0.35396524422747494 -0.515608256633325 0.0158909601986436 0.9592135405657869
Ni 0.46706541831784987 0.06702618194732209 4.924699031828603 0.4539002381005667 0.2742359200652825 -0.08925404647182693
Ni 8.827354953362212 2.309041781735406 1.5325268261709408 -0.0033367776827168336 0.8621361413947991 -0.7120672776284447
Ni 6.972452338361003 0.9405667988279532 4.67766420277507 -1.3722311815193788 -0.8219639400512876 1.8549809968617856
Ni 0.6773234499089812 7.415662683533507 2.1895056454527775 0.05081194044554475 -0.8524078583634416 1.1623270907629466
Ni 7.744641037966747 4.097873468040958 3.8365188947456548 0.19501457523910928 -1.1657325169000698 -0.532545912928928
Ni 7.515706220762277 3.902920313902789 12.71014251271453 1.5435808090413803 -0.4513520177574162 -1.4858487444372346
Ni 8.01663016049503 8.757435848060325 6.9370355317839065 -0.06871041799252037 0.7030511901727635 0.22700012700677036
Ni 6.880585044603822 0.7269441027029988 0.4189451016736022 -0.06835740552847583 -0.865677064668522 0.6065926555326973
Ni 1.8193816812924162 6.12150730905883 9.39096342637714 0.21533863150844204 0.600853696166391 -0.1706806264794351
Ni 0.2457762489399677 4.767148343396346 1.2423734046079375 -0.7822810196393688 -0.14487883492498274 0.460175272476001
Ni 6.016021997382194 2.105477766532475 7.031219880584698 2.317173299767816 0.3522046234312773 -1.2230694029483258
Ni 3.6067193696214317 4.615892366438559 0.6883681694955187 0.5527627541964351 -1.4338258144027243 -0.35340661415917846
Ni 6.226404076078044 5.851501129299405 4.838426534130221 -0.620112544396003 -1.0144956009675432 0.9839295552552281
Ni 5.309460554345742 2.6386358444256417 9.208719215026038 -1.0944150003020054 1.509107200744543 1.2998196605261871
P 0.10547082442353077 5.436251182621102 12.254902314744292 0.4592823283480864 0.08627439501821271 -0.04543216419087014
P 4.091716385470991 6.275316664376514 12.61129417386699 -0.033973014511335047 1.0765118947693395 0.1560875591566086
P 2.367081339490534 8.421603212001402 1.345432101389352 1.6442685512714454 -0.3912820490487132 -0.07078658379525873
P 6.335139965170295 7.7950204606421805 5.841130066982287 0.3177456704224592 0.6090881682610414 0.46537892816412757
P 4.6000107152213205 0.9352789514443347 12.63330574405462 1.501519361094956 0.21127937383740386 -0.3611011545899588
P 3.855284414784267 5.9428432601315 8.279605495231543 0.545416341133693 1.3056488656134546 0.36342414629618053
P 4.7988663731648655 1.385452232640817 3.7315080406082335 -0.3326380141532594 -2.597522788930004 1.0961520375977702
P 0.30945587541984904 5.662080294941015 3.4608445017391323 -0.6597273305741477 -0.4876248840465215 0.06812086403763752
Ni 1.4300820267398848 0.8706947770986597 2.662093423563896 0.12845308526879168 0.9882410381463882 0.24890592594092617
Ni 1.744998691127303 6.717712101561819 4.7344098677371855 -0.3949139893743457 -0.9628503659874256 -0.10365119573376343
Ni 5.88438719384958 5.545140998777602 9.137408427972675 -0.539646014308819 0.412200030148303 0.8787297840874222
Ni 8.422427174521795 2.336911634897697 10.314100248812172 1.0526227468565679 -0.30494466200304904 0.09279831217965953
Ni 2.3756288188229586 5.22344248903003 6.915527393641701 -1.4835355229230256 -0.4209055283421009 0.9429310013556793
Ni 0.5933028146152318 0.3169647997952511 8.997160952468661 -1.24092879972725 -0.9391455661713181 0.7506626214031394
Ni 1.326407621701474 0.9802437632714743 11.568953516517443 0.12294989606237536 0.18090924618597876 -0.573452935555935
Ni 4.194747918652832 6.720835915512757 1.6789377224181552 -0.13407377388967878 1.6980519156404887 0.3142194024367556
Ni 5.375947991568192 7.862322805851832 8.059088677534865 -0.02792269455219707 -0.22723384028413124 -0.04894686221234796
Ni 5.38612528687502 3.126575583562317 4.890296332968915 -0.4555519147713767 -0.01757220455580845 -0.4856356215306346
Ni 0.9979091575273643 7.208956745313255 7.237729335434702 -0.6469749160044858 0.9015501244160473 -0.6123658105710487
Ni 4.979966091520608 4.757831228742676 6.820681158464641 1.3427467989070165 0.48743256553005737 -0.06128892871746863
Ni 8.376747054572556 6.973131428350337 9.124461350962681 -0.06664350816116264 0.9023155418271621 0.9484938401554375
Ni 4.411984278974365 0.22851015959780643 10.385423712212004 1.2617591062090399 0.9309198358274161 -0.5425698728238333
Ni 8.128037136878664 7.285902168371457 4.581837361653409 0.3989619341914742 0.24562288431428017 0.271641419865229
Ni 7.211147942345509 6.290193262409537 7.154863153122821 0.3383119246095851 -1.1293678622281067 -0.575692366409415
Ni 2.3571394620466752 5.427124213164445 2.5439634562858497 -0.7047707439670314 -0.49886086197165697 0.8227833506287894
Ni 2.7574222653600446 4.930736594560448 11.542183789137875 -0.7572366750762314 0.07437507247746546 -0.9879651587771823
Ni 1.2941825380742507 3.258101732696637 3.700166679420464 -1.3532083605599725 0.8057112256378511 -0.991109875053751
Ni 3.820877188657982 2.849606467778915 2.5953687575718383 -0.7006844897127997 0.051002973410428296 -0.393579072613006
Ni 1.0476728719458017 3.1470478831074566 8.171520627075735 -0.46519715117062466 0.6660460737033238 0.41185010300805197
Ni 3.6112466362169955 2.991717366213663 7.070433252928833 -0.5141165025791468 -2.2810382446081556 0.007137382375729644
Ni 3.8668742172689097 6.916712632036421 6.009460177178584 1.2205088413100011 -0.6775491892469169 0.6481344835302257
Ni 0.7707698542546946 7.4754769297940955 11.566064214976155 0.661933337086531 -0.28255472434362305 -0.8859101038859453
P 0.1827304397834653 5.280839174928588 7.923889104284904 0.2485899373624041 0.618992828969263 0.7434455348294099
P 8.252247223194551 1.862798167943873 8.043384495168173 0.1923830511535332 -1.401321671127432 -0.39850144961528783
P 1.9048202564838963 3.1016212900875693 10.524691487224738 -1.792875742890609 0.15591066725911212 -0.7340116431100198
P 3.985787401667989 6.062290661988856 4.018988563973216 0.3266691981643342 1.7666677170366736 -1.552198375507062
P 6.7000285982395456 3.7035847657001146 10.545020725145458 0.06357772475164535 0.6430907504587312 -0.3628813864188331
P 6.467906585351798 7.783095640429465 10.092934221085692 -0.19335749925166054 -0.5188205929230355 -0.8927027013277464
P 2.3889480371471072 8.414078894919575 5.849120692523457 -0.7095936192769714 2.2981823604876097 0.3142602829770201
P 6.863879430866191 4.093509183042834 1.4557036393108185 1.040966136454246 -0.9331968047870509 2.722349333189802
Ni 5.452929632759159 2.9652238020964234 0.3294700155855174 -1.155449646916823 -1.1779771385953777 -0.0176994741622921
Ni 1.6187603893766018 1.0601771822827488 7.049666681054981 -0.13386474320266623 0.5248094635166187 -1.4867563438531683
Ni 6.703514593518131 0.73565818544614 9.144393094876312 0.48859804659306816 -0.9354331503167375 -0.6144715440601418
Ni 2.6542549141803367 1.458821115088524 9.331686113934786 0.5679356052821315 1.234536523047661 -0.329200192116304
Ni 6.49521505745624 1.9327353823121427 2.5344616291550808 -0.03318908515745897 1.605767309872454 -0.42151102313658373
Ni 4.082372107217747 6.940055218603147 10.306467277332054 0.24941089060180271 -1.0235577111698115 -0.031973981803435254
Ni 8.330224863036541 7.051561794851884 0.22069428654722512 -0.8861247909999125 0.3801162622398808 0.27187333337037695
Ni 7.421321766777963 3.939165610266873 8.453593783218976 0.4413090316991174 -0.6679456047188819 -1.6058475282910858
Ni 3.1998901388108774 8.280397766885766 12.279657408488834 -0.516336393048601 -0.4209464088823654 1.8857375613183522
Ni -0.12679606099527452 4.712250708658538 10.15081985177657 0.5141391282869662 0.13622681567693956 0.9374702353514242
Ni 8.741364051646073 2.3691910457240666 5.851095486212442 -0.11109145406189254 0.49604550401004893 0.42318635395647763
Ni 3.693923578785182 2.588989838938689 11.5264805122245 1.2664164024753932 0.0017601772242163236 -0.00926522735200985
Ni 1.3754017007986654 3.158212122532117 12.669590880364744 -1.5434321992786582 0.8995644614445862 0.24739488861303846
Ni 2.8441918569306206 8.451899680058915 8.202994184448094 1.2915350519198918 -1.267416047384501 -0.7414997239569489
Ni 5.629076521459355 7.948920361291776 3.738028209959164 -0.4322772605141523 0.6095581659189244 -0.7840270557961981
Ni 3.0322001841111943 8.443578564056269 3.6469196860834 1.4325124949079393 -0.33184225772484144 -0.5260003985009264
Ni 3.2958229179708747 4.050310005187964 9.150753904443079 0.32157635702245907 0.010426080429330431 0.6641354869441723
Ni 7.133269902368619 6.137271251344583 11.38920020724722 0.8074914574667255 -0.3754689932758566 -0.28485971832771584
Ni 0.46358032849258485 9.170974487965506 0.5998854602451816 -0.49570791816497206 0.2408264913669014 -1.657721591452558
Ni 4.726312398704359 0.2920268044802475 1.4644765765197023 -0.4701526954036871 -0.6179947267220518 1.134645565687278
Ni 6.085225794561982 5.769847348981817 0.4710702383482856 -0.36197327278226693 1.336759728085646 -0.6627013256008071
Ni 8.114917118284719 8.959542083419484 11.097266664458841 -0.32273232500377325 -0.5211142740532186 -0.09159889255491965
Ni 0.12276588827190361 5.056576496850739 5.6865691854097395 -0.4459251903148901 -0.6619798740537501 0.2682208242194542
Ni 8.016267979167385 9.01740960504398 2.672403820508633 -0.23781830066819687 -0.8358478971222314 -0.36316009400151655
P 8.595459303804244 1.801209233177823 3.671860397758361 0.44042894308700925 0.2801623128520465 -0.3794143510768498
P 2.009870950567359 3.261958963836057 1.5175651155259215 -0.6469250366031568 0.092017468149577 0.1277840842262251
P 4.618762653460147 0.9655482559022742 8.063250140989506 -1.403336130454299 -0.9013112689323638 0.4218879468600283
P 8.39732800851599 1.6086645848684944 12.516633556620345 1.0394975223285194 0.17475633921070546 -0.27201088738950574
P 6.501363085493015 7.768200933330061 1.4887816599646462 -0.854958135589121 1.1512052698181723 -0.6134590436352274
P 1.7533379161963316 3.23187075004194 5.923227519426241 -0.9804534237811694 -0.751761510894273 1.4049754658299352
P 7.013070974256401 3.9591399104865004 6.024713443792358 0.024701359401421978 1.207022119677476 0.11811416523662883
P 2.388459092354786 8.428113421365822 10.302505013607616 -2.0299715635704847 -0.4273165740747673 -0.28626019821966825
