# total energy = -340895.5139181012 ev
CRYSTAL
PRIMVEC
9.05273356578861 0.00000000000000 0.00000000000000

0.00000000000000 9.05273356578861 0.00000000000000

0.00000000000000 0.00000000000000 13.24959063787060

PRIMCOORD
 96 1
Ni 6.304405055756539 2.056943991187491 11.27354641061892 -0.5169686273159613 -0.19095094669269694 0.5174100857287541
Ni 4.5686067840427524 0.1307830297418666 5.899380329141029 0.29268024281339916 0.43988772587155855 0.20206762543114878
Ni 2.8378780430662545 1.5746143524684215 4.747115824582798 -0.4799712241560056 -0.2965482104092377 0.932021553532027
Ni 3.3413729726134993 4.316243733393889 4.874643491372649 0.2147179672053076 0.6495113092730944 0.290602534348764
Ni 5.156672349568105 4.411768176857921 2.862017156835857 0.21718314091634852 0.6235380251377841 -0.04492025755145812
Ni 7.504824670678926 6.029962388200096 2.618026074090284 -1.370698546924936 -0.09644182246951778 -0.4850514668923905
Ni 5.06621743684136 4.496474603837919 11.460180279438813 -0.43766063631325264 0.09495443929071389 0.12892436847825536
Ni 5.700307099274515 7.885609798183435 12.618870414206556 -1.0087404436513208 -0.19279571321091957 -0.6835784261601324
Ni 1.8919760293560794 6.497345963977627 0.3912328871900506 -0.32742330272153936 -0.603219111074774 0.06531604759899073
Ni 2.6091335740130743 1.3980407863420052 0.43505716986720927 0.4673697333419112 0.4873063243648381 0.08303069126993441
Ni 0.6413300386540167 -0.1248725000661969 4.635170627896684 0.569060205804878 0.9644495921537455 0.23114860195750514
Ni 8.638453218137549 2.1687814603454374 1.4521290582154793 0.005347123244526275 0.761198745047773 0.41384193662710017
Ni 6.767425214006619 1.0440426971439858 4.841943207570453 -0.6723941274085388 -0.8611310971690525 -0.08246684834666443
Ni 0.9250988322203774 7.1865577204453235 2.5283931495616567 -0.09158577992879711 0.5887240027823926 0.20037815354386782
Ni 7.591577015420759 3.889760407386117 3.7243932200091443 0.5013075237399366 -0.9741814747295288 0.4092250066803791
Ni 7.550631501983703 3.6380944172136296 12.630609093683416 0.5779683069277852 0.06697440913802014 0.34841070360648385
Ni 8.098602511017186 9.155844093545038 6.933391692338607 -0.7764315028371274 -0.024779006716892808 -0.23938744492752967
Ni 6.8678471862722095 0.7100900756452084 0.39667176945248334 -0.4335013627292405 -0.1706873113476544 0.083653669565914
Ni 1.7787806501792167 6.471817255622001 9.157083412755636 1.8440995740625918 1.7107153700407698 1.6055809048932608
Ni 9.112119390935932 4.836712538177587 1.2791693432860727 0.3299535253425607 -1.2257266380655147 1.55284603639339
Ni 6.301345231847248 2.1922551982057703 7.117945243009521 0.6988253250168739 -0.9957445456122851 -0.3574571300794682
Ni 3.262722824317867 4.279417213680879 0.3271404395705472 0.3029356019928202 -0.17982269799001935 0.7706323796568469
Ni 6.194224236821671 5.835482515290904 4.892716368451079 -0.43767272049811073 -0.7903334576302001 -0.5349288113388079
Ni 5.291078283240441 3.0835511236885913 9.050517350291122 0.38414260979045456 -0.15188843347359648 1.2244670546268006
P 0.04150316181815777 5.511448973843637 12.50828946445278 0.9627755468854322 0.17756372675251353 -0.9633658721712635
P 3.9461589368384407 6.040065238740834 12.567170253419683 0.936242276481594 1.0368863099579175 0.07424266066465923
P 2.4491536683178152 8.355292768259662 1.4391175644142233 -0.3053141295273258 0.247907823693715 -0.4756749107734969
P 6.5932958859142525 7.9815506673866015 5.669102327039819 0.24727764630888383 -0.3990197840126031 0.8745699962827778
P 4.600436194886152 0.8402520878717572 12.65524067615321 0.64234435921101 0.9041325404312429 -0.511403731633674
P 4.192981714610126 6.32045555218013 8.134705717326787 -1.1314951929837544 -0.18502069725119102 0.15449270386566294
P 4.741939471590689 0.9861052030035569 3.68540038117929 0.2894751056125402 -0.006668156048794967 1.023302400625896
P 0.2950484994568254 5.432210397873141 3.6260017758585072 0.5732115089690902 -0.9386452294961317 0.35880541657724657
Ni 1.4775690497832032 0.9486721501487643 2.59372672693845 -0.4627137226271386 0.4899918416168013 0.21901993701477118
Ni 1.8039019855291683 6.508082505860525 4.81830652050785 0.8475389603069144 0.3644258480878175 -0.06844996524228211
Ni 6.008444040767002 5.620778835833318 9.004845404714892 -0.4074604585807886 0.6046054498993394 1.375827126400753
Ni 8.784482861571808 2.391858918253007 10.359457512831916 -0.6177401875090844 0.26856098116769234 -0.3775968382521368
Ni 2.399354581557425 5.364849008201433 7.024693940917155 -0.06367336978924518 -0.24455561939203044 -0.12563309932149333
Ni 0.2227416014962243 8.980773281172889 9.128861516195824 1.1184558433012932 1.2011440636301443 0.4058982562999913
Ni 1.4971501122559763 1.116899096025575 11.423055019521643 -0.0539977943726941 -0.11254669845118037 0.10961281263383703
Ni 4.233275431238103 6.693464381642978 1.4207531893183993 -0.10925234397062474 0.3467716253411641 0.6877772947328284
Ni 5.947663988320309 7.868011284338279 7.767771272015224 -1.1600483220310989 0.810151777907708 0.6213353610595106
Ni 5.119022031110286 2.8501354441703386 4.980825717938482 0.02854310174501536 -0.3861886936862059 -0.5180991413759787
Ni 0.8171676175501802 7.532236347594116 6.9276413960451695 -0.205153206335008 0.021045250706073434 0.0904570656409926
Ni 4.989242044235726 4.507745256994925 6.969006051041398 0.6746682681546962 0.5669202766437398 -0.2317273572791106
Ni 8.010790996460598 7.093884888021017 9.14355591314719 -0.2145485315069789 -0.05305574217439895 0.5752521935482028
Ni 4.5502297351200856 0.3705347174083824 10.377794729727363 -0.019358349921953757 -0.10815859668581372 0.3615063604481774
Ni 8.35940270925025 7.196769203787574 4.513367004473238 -1.1756376918289237 -0.640437114885968 1.2499862819438279
Ni 7.36150179454904 6.20105905058355 6.950046006083943 0.510447795478308 -0.05359953049301092 -0.13722774613762817
Ni 2.6158507022399804 5.0207093457407455 2.7449444919183152 -1.2405145950079668 0.1834944904146517 -1.0442118970850531
Ni 2.2617892439077445 5.470593987741175 11.392263051932696 -0.30670406789631693 -0.7524945324055556 -0.05115543982789254
Ni 1.096114020002696 3.2036990021623057 3.906999527712932 -0.48037308758011454 0.5133107188483998 -0.1500863472678512
Ni 3.6735630269077233 2.577548586973081 2.7043873407466688 -0.3519637110650648 0.33865079600624254 -0.9649437581813447
Ni 1.3812479657747405 3.4954233378928237 8.154261432145873 -1.6690367593550612 0.10972928360704326 0.7829762459341806
Ni 3.59234190230961 2.630516130444276 7.127113851457244 0.6240244778558995 -0.20575021648905856 -0.07274139352878439
Ni 4.069248953686473 6.729340364342747 6.008994446961336 0.19533364914142487 0.8854156807480299 -0.9355570774891112
Ni 0.5198876192956023 7.391339604031361 11.337753827953359 0.508354403284389 -0.1029179171121647 -0.09920678680916463
P 0.32713229211043376 5.724260632008199 8.052769426785376 -2.2836098619900733 -1.839437135589916 -1.5043617156397575
P 8.57372617390254 2.0085480781133143 8.11259170003206 -0.5247783531683672 -1.750914825077791 0.6038528880040309
P 1.913512482256092 3.363787540659078 10.443950295302272 -0.5569230562217119 0.191582923849741 0.3092368616204997
P 4.168638914337687 6.206961432799106 3.7393655358777154 -0.2523740869951847 -0.30489118305729423 0.4887191455519648
P 6.894733804646752 4.042950762986794 10.426354497277154 0.5415098069904352 -1.1214954014585654 -0.9848163287355555
P 6.149711946401594 7.692189095088997 10.364319735972982 0.537964255731022 0.25637575195541007 -0.7477009676716543
P 2.375527787092173 8.598449188980275 5.781498349852213 1.2824953103151269 -0.4352507413201794 0.6795608203603071
P 6.85176047891478 3.917362191703955 1.5577943737007784 0.4450057638244142 0.1783967641767702 -0.5101806578598503
Ni 5.119031083843745 2.7489439895606966 0.4536795478666274 0.14717662982022395 0.03038221183628316 -0.6129067706761832
Ni 1.3636313464626664 1.1449716224833046 7.01757939769138 0.5218393251447013 0.08904912954987244 0.1385778324076194
Ni 6.786807116343284 0.8101354541988857 9.199296308877015 0.05869031475235699 -0.2184992886246108 -0.22614137855090086
Ni 2.7264841578478207 1.726211426980237 9.244862337471769 -0.15979483280486673 -0.8927353543378946 0.239762054658129
Ni 6.213099186084608 2.0184879794517814 2.426927397128193 0.9734736500292268 -0.5511396167707153 0.976403679191828
Ni 3.950839200036972 7.044538437933598 10.40659962232196 0.5574002529684464 -0.8058390094649669 -0.3684519385280751
Ni 8.431426256653571 7.094228891892476 0.5500748642894576 -1.2817885140560892 0.06389551310238029 -0.4648233127709737
Ni 7.636759208116834 4.052564765920722 8.224272556901159 1.0912782544452366 -0.4153192925035751 -0.09298625982074953
Ni 2.958071185207266 8.249828423457165 12.393282633310685 0.5108815405816168 0.3365512331647365 -0.33827747182722384
Ni 0.1703045482057525 4.834585145814619 10.309029261096095 -0.38378265534787454 -0.09369022786630961 -0.6368509401966064
Ni 8.638317427135659 2.4569390190929354 5.906243206376632 -0.005265362163997383 0.6305447954729205 -0.14628137169946417
Ni 3.52613926252071 2.6228122542702907 11.671802408426807 0.4969479612196603 -0.10283255648721 -0.17495020038906642
Ni 1.140191779216719 3.537102122740095 12.794122281247894 -0.3931548405913939 -1.0298360879793556 -0.9712121076885596
Ni 3.165161515825461 8.42947991895979 8.109570802876647 0.4048628730569414 -0.12369114510377408 -0.47693449421221096
Ni 5.6170762678484065 7.897142980610764 3.71001747927555 0.2892221090614696 0.5087963759178141 -0.9558495091895602
Ni 3.1748388878936042 8.400873281227954 3.5583099614155294 -0.1211390681058817 -0.9189246111387528 0.5764292445754394
Ni 3.483464676992901 4.521985206726627 9.28794972764533 -0.2419572625372349 0.23667081732731496 0.028372894715738232
Ni 7.2641668043931205 5.92331213531441 11.374641000980548 -0.4057581311777012 1.2114271907237073 0.23339703167204964
Ni 0.5595820449685637 8.998009685679667 0.3096677587204782 0.4057213644024948 0.36904894868212573 -0.01146146367238026
Ni 4.508650530340869 0.15947838426160582 1.5899505882220624 0.8526397718685897 0.07195669284395995 -0.23964892611903243
Ni 6.209070719695156 5.658954212831786 0.32439474551229847 -0.2853880800273601 -0.6945200127733007 0.39498083805653916
Ni 7.750008903694453 8.933690014450331 11.3996165873218 -0.0003226734467413798 -0.3821795725268128 -0.3987642163583713
Ni 9.149416652788835 4.961585943517131 5.908654854570227 0.09246175477584721 -0.8064411618253402 -0.33718038210830314
Ni 7.99276700414285 8.716505886024859 2.520668452100715 0.03170864395719056 0.7904399013010774 0.31474107926818057
P 8.5610795052597 1.5348637998480117 3.8724180858978636 0.5434892993143091 0.38056054886615104 -2.051911043956053
P 1.7685691668369663 3.0898789843767416 1.742162343335774 -0.17745214087531375 0.00028873488501240593 -1.0007062604929347
P 4.6695085511816945 1.1219233630955652 8.242967356768254 0.7411726796348332 -0.9750610491210047 -0.12127353680121694
P 8.56640251253385 1.5559204578746737 12.491117334353564 0.018079483209530154 0.8785027556782806 -0.013988343859292037
P 6.398354323598629 7.579663618188133 1.4721754311880677 -0.1841570636993151 0.8310101094139559 -0.0928618184277433
P 1.9071936743014015 3.219631813050923 6.062402858552006 -1.4635989319000988 0.23226780316361287 -1.04610885699745
P 6.8482570710659765 3.855432442107913 5.85233055753227 0.3296318803370839 1.6116047424898374 0.1629503477147129
P 2.2154935649961582 8.537614820132825 10.126861105691743 -0.18865777978314607 0.048685381020845186 0.509897836512109
