# total energy = -340867.7152693057 ev
CRYSTAL
PRIMVEC
9.24943248668642 0.00000000000000 0.00000000000000
0.00000000000000 9.24943248668642 0.00000000000000
0.00000000000000 0.00000000000000 13.53747939123033
PRIMCOORD
 96 1
Ni 6.434265858019253 1.4301102294487584 6.823173964454312 -0.08400231115458436 0.649174751869282 -0.9275066963808091
Ni 5.30887817674914 8.990290986381051 4.096684573042948 -0.1712616957938857 -0.2721525551736926 -0.48962597363695026
Ni 7.558358618762882 1.1041047374741184 0.5727886710822315 -0.9851140624816326 -0.3050559907699327 -0.6110638039301733
Ni 7.384719025593731 2.9084192507797115 11.163722595760865 1.4941397808014332 1.6679404409670886 2.3363637566533377
Ni 6.800154902209595 0.8275439359167975 11.52161273087047 0.4527609822898009 -1.9752163222064756 -0.1625148028391911
Ni 5.598727637737884 2.494941877241088 12.75801857359221 -0.1149643067537375 -0.6964257144364457 0.010028844990911761
Ni 3.6165280418227383 0.8495511102643906 12.759277421332598 0.9539720896611894 0.7196312060186316 -0.14867969672831166
Ni 1.2606698785583472 5.816847750991755 5.382014363141714 -0.29343846113566235 -1.7087065671408572 1.8597851031186485
Ni 6.8148614996175185 7.8029136096216885 12.947610662704408 -0.7804233976053399 2.026119793924562 -0.663193177635561
Ni 1.828094803831236 8.591039239769085 12.605586078873928 -0.46606952647324895 -0.6530769151371656 0.40525959427472785
Ni 7.533181663955103 2.4350518028912105 4.899457604231343 0.20487964095864714 -0.6075694176236698 -0.10993831429405582
Ni 3.0972001646763925 3.338443858760333 5.4358127613577185 0.16003240273696953 0.9165080312774604 -0.40673720726151885
Ni 2.022406878262469 2.697319456665849 2.7403783390011367 -1.73700875651966 0.2942876965098351 1.2979923775094613
Ni 2.612409667857837 8.849514626287593 7.208924314691217 -0.142837893235554 0.5815475396386113 1.0530366944655347
Ni 9.053769840475756 8.243630561378133 4.071789725921296 0.12041504545566357 -1.331948679850248 1.5207123890836391
Ni 6.228410492037649 5.297408880657425 3.162436410914182 1.695651533729112 -1.218779003103088 -1.115472335192937
Ni 5.270252547330593 3.555805518562978 7.05190317659302 -0.07371198497216983 1.6732849931084535 -0.9825637852559529
Ni 5.6213147514926955 8.618926278250148 1.5673690304263461 -1.0816263331777694 -0.7508207442475586 -0.9731057251668466
Ni 4.7650578027875845 4.926932118030397 12.878758813368028 0.39994692381256286 0.13430671583609127 -0.2129076534694462
Ni 2.1091480546722225 0.867103758000879 10.806752779168296 0.16509644752343824 1.5872759359364856 -0.4807752081145397
Ni 6.3425947341765285 6.08707916600427 0.7349173457141749 -0.07615170476191402 -0.23869093308113729 1.0486977007705487
Ni 8.9493252505825 1.7847334650586912 9.820303595787266 0.5528630272197252 -0.6440052918532004 -0.8481681092504813
Ni 3.9366971419958694 5.81171431604748 1.4762889453096386 0.09545837551032592 0.16859983269100642 1.0118391371813027
Ni 5.539873499809193 3.7635015215786547 1.2814034060738202 0.956452689991198 1.3999692708645954 -0.884714026695315
P 8.152135176749718 8.98837635388832 9.820276772433504 -1.3583382255873704 -0.5056889406370839 -0.13655026045462934
P 3.3651654687675596 4.981679508003667 7.103196828533511 0.8553283744443463 0.623197868189546 -0.1115208282898273
P 1.9166396195457351 1.5274605047433476 5.5787544135601035 -1.0792326361346123 -0.7697353217638744 -0.20049513873770633
P 1.994769574454371 4.8115084519590265 3.715618135338982 1.0148236737309233 -0.6867640229769657 -1.8860538070071906
P 0.5955274755272879 5.588812246277951 10.832677088108502 1.1757212526816654 -2.3613708202206363 0.5805957172483034
P 1.7567539322543082 2.883260794836597 13.120551923732492 1.9891658424080325 0.8612095158154717 0.2701265258825993
P 5.336173251560952 1.5226692987953572 1.1034591270973428 -0.258830898364122 -1.843612092903212 0.5495427045972406
P 8.736236828517253 8.621377377818135 13.003060084591679 0.7548532624457193 1.8890828236415014 1.0465166339588299
Ni 0.2236947461203846 1.5820599037993055 12.785499561993895 -0.8027940519910561 -1.4782886727017894 -1.7764798180310886
Ni 6.756765815140055 7.167533105005394 4.799889315063534 -0.952863687088359 0.5009138878459437 -1.5244906251791486
Ni 9.190041727023516 0.5405044524705229 7.418322213255987 0.5911804347426851 -0.8574163673216266 -0.21236180826830525
Ni 2.3801749208652914 5.455620420696755 12.774155133238663 -1.1366299431071587 -0.6482707519977738 -1.0604851803237803
Ni 0.21386999909730503 2.5409485536605927 1.4006683613926818 -0.023282624677024417 -1.1394471008409794 -1.757804610219089
Ni 0.8869299162045798 8.520096093782435 9.357295512110635 1.5550947232182508 1.7880711224131143 -1.1488987331721825
Ni 3.028430635287768 0.06531486641261193 1.433375279061964 0.7196306917979993 -0.4915298755278826 -1.8532827832237566
Ni 6.431028556703044 5.972080973820172 6.832148688646078 -0.41382136780180984 -0.5273828806707498 1.2668087528178054
Ni 6.448223251408282 6.896339749030349 9.71630945324858 0.5318607139364453 0.12193559586524806 -0.1949922066416061
Ni 7.76829298440291 5.741307637136088 12.122068303944262 -1.2121802668396477 -0.1361810500406687 -2.3291919214952466
Ni 9.000770593213238 5.626929156918235 3.4383839751078895 1.7799376946727021 -0.6008125585158104 3.1840135315065035
Ni 2.733308997869768 7.135132343546302 4.168500865441742 -0.11907087272294332 0.06352321736462609 -0.67744737356173
Ni 4.861344393363991 5.2746275288236415 5.00185529474952 -0.9639682816419528 -1.273192287746646 1.9489242212791662
Ni 8.305361272762084 4.991197173873324 1.5526948060315846 -2.00685297527515 -2.6651877963771455 -1.5643656069972154
Ni 4.3851096214525604 1.8317945767640471 8.200517107392086 -1.1670224393560868 -1.3170509368028094 1.4351586742815348
Ni 8.633605127361076 7.025831801678734 8.400087484104077 -0.0158387668044695 -1.0616244361345457 0.956994421427281
Ni 8.4655614407528 6.83539523939462 6.10743346679413 1.6701991550942783 -0.3484024760763677 0.6356281235330989
Ni 6.282353181398034 0.46451296631705163 9.063125641279601 -1.0101530077281313 -0.07688549760414501 1.129954330859196
Ni 0.04851789729765006 7.505590607308666 11.231030714841028 -1.1043253174371819 1.013019530642649 0.27561531691131247
Ni 2.8838805068028432 3.763908496601264 9.128376686609121 2.1976285727322473 0.27247908527517584 1.1502040822471675
Ni 1.3994576107004193 3.214704953022469 10.749286056089408 -1.2302286397009263 1.1449112092793443 0.9245470995318529
Ni 0.44031367650676817 1.1000719849773544 3.6385768386158257 0.045045470275412745 1.8345098734916276 1.210855120270321
Ni 0.10415323277479525 4.265051989782844 12.956504916834884 -0.38501344243118213 -0.9701983217120644 -0.8084283674586982
Ni 5.402408436490601 4.047588586224546 10.646767198007682 0.06293134941689807 0.5405068196472175 -0.7016640800172497
P 7.330693091342359 0.20738707197578699 5.008501936823315 0.21957169575318317 -0.4836995808501864 0.73325651011155
P 5.668616348438683 6.4740569159116355 11.664312047945755 -0.6132399856458859 0.06587937630162849 -0.42605853329795007
P 8.453000711645906 3.2811251265987584 2.9500065484309737 -1.631888432439538 0.4631911764841894 2.8346510055097114
P 6.162600780995274 4.822765011107104 8.748230567422192 -0.22257885801062313 1.2699557830872192 -0.7112003016424591
P 4.864220966819251 6.787242694674085 3.5076150511698816 -1.0795866770399214 2.131572304533122 -0.636876137007587
P 5.032468140938831 2.642757055339219 4.887070764452291 1.6426801237384032 0.4001194448346851 -0.15326268811330382
P 8.988949818692907 4.918959107360189 7.553574812360758 0.0301361572637481 0.6757031371771136 -1.1795858778433943
P 2.8837972619118544 8.244194776750387 10.2421998026345 0.12208446273828653 -1.7982079537367999 0.1888981779287263
Ni 8.474357650900558 4.387514473858888 9.668359471096117 0.43777427907298155 0.7690704344863659 -0.43846719137494816
Ni 3.5795025641976324 5.659413163268316 10.703069417555966 0.37246028835651984 0.6636251229666571 0.10794056713773668
Ni 7.186096715695774 8.576480633278473 7.260230915836973 -0.4207191233629076 -1.904385258326527 -0.8383570366973304
Ni 7.863793373231093 4.679546800877991 5.22744339966827 -0.29314921203001776 0.18323917987073604 1.1496669787967748
Ni 3.610765645479885 1.2275199130803607 3.425280304323106 0.22057982530272333 -0.041602506032134806 0.07504947283667075
Ni 0.7067972215383451 3.1828406586386344 4.71827139922249 -0.5071886651110621 1.4585683114547268 0.9872570769665642
Ni 4.118060011162263 7.351051091905152 12.977190347302233 0.17880222714530497 0.3395555672086991 0.8285953293248762
Ni 3.9778941136027193 3.7670348047294895 3.0476925781192152 0.8200836923094393 1.7745257796285117 1.7700044947193903
Ni 1.4675889292581337 4.71499062557432 1.3642801696552527 1.0524939345881874 0.1828429728735819 0.9634298926399794
Ni 9.096872195143003 6.526214464831938 0.22088384363468147 2.0389447136033723 2.634553102210424 -0.0011870783295656975
Ni 3.564832964519037 3.2307157203892087 11.864084062282583 -2.0749486425018073 -0.3633020188960195 -0.0903231111662896
Ni 0.012002063394038838 9.07655119230954 1.8254346670925448 -0.026659768679373443 -0.554414173756929 -2.8313641072283238
Ni 6.100093117295433 2.402262565274173 2.9892648390210312 0.02036442258896493 0.044351015311549426 0.5847521626188381
Ni 7.15998556822246 0.3622456927947568 2.8183815766868237 1.8537707786037685 -0.31608396644932013 0.9134566460456461
Ni 3.4775368221693617 2.679431054535708 1.1195531393550706 -0.21269528034832402 -0.5393050860296325 -2.8360715400063223
Ni 6.847095771294635 2.8496298588773454 8.9828488931267 -0.7772313730306034 -0.9454635379695459 -1.7062064264268229
Ni 4.025732177623965 0.9026974235009871 5.750274036838754 0.2994049631317424 0.2863810400682487 0.8364742178523207
Ni 1.8673401452160288 6.437956381519732 9.129960189424365 0.5262045440919325 -0.905134499333196 -0.07237526843861729
Ni 4.842105574113374 8.59074325793446 11.212335762211534 0.20508661476313067 0.38560428193764557 -1.4763091803779156
Ni 1.6642966066633618 3.7119081880306055 7.325359868659712 -1.1903078922465888 0.3503413449702934 -1.2382168001127256
Ni 4.30855207004037 7.587235346503473 5.67451841120975 0.8034026321093325 -0.26369748242780394 2.094437090243722
Ni 8.842734792388217 2.780869578921053 7.1840692401285935 -1.8900174196406287 0.35939677030434236 -0.035880515946693045
Ni 4.488546023221623 6.514208701664966 8.316547536224439 -0.6585338244866787 0.12396188226665747 -0.15695864890765227
Ni 1.268032426694641 7.0949713083606385 2.245502261167738 -1.0683594408655341 -1.2030168551728249 1.0099792011544282
P 4.917303458972757 8.879899011498303 7.43256356421761 -0.03969834703088647 0.18698964805210377 0.2784669274274946
P 1.9353604705857586 8.915934799863882 3.0961429545608414 -0.27646686627833034 0.8904861532924019 1.7999789295942934
P 1.1142143670130245 7.737011404255993 6.2432142084850595 0.05373708451213972 1.0573026688307403 -0.15565072872950614
P 4.805709057886846 1.8842666063836389 10.718528918755718 0.7159285603560638 -1.5200690990726853 -1.0365584943048536
P 1.5861296540253975 1.6247182857146163 8.450704077597864 0.35683903687949514 0.6134598149661756 0.9022039559499624
P 7.8321695640878914 7.107143561309587 2.6065871502048257 -1.33853867436294 0.855525835167133 -1.7730962462708366
P 2.353804789286681 7.088320966513911 0.5902580739277318 0.530428609475609 0.019549382886837302 -1.232351342470884
P 7.038688512620252 3.996346731105114 13.115123431896825 0.8730183355249416 0.34211510040575915 0.8201376854758263
