# total energy = -340892.41751405044 ev
CRYSTAL
PRIMVEC
9.06562548186600 0.00000000000000 0.00000000000000
0.00000000000000 9.06562548186600 0.00000000000000
0.00000000000000 0.00000000000000 13.26845926018072
PRIMCOORD
 96 1
Ni 6.679516439818215 1.6534975250833661 11.441829913753098 -0.7577555236941789 0.7988957453779144 -0.5643458310483442
Ni 4.377464082590544 0.44603420288508633 5.939055205202625 1.1517187191194809 -0.3224826708868123 -0.05399265216637153
Ni 2.534005445503379 1.6027934829225738 4.73855156352765 -0.5257121778365462 0.49296506531251233 0.6106812237797741
Ni 3.4532961108480964 4.59024337341049 4.890143323119266 -0.6454703064345012 -0.30560157886075756 -0.32291667310043737
Ni 5.021884989609635 4.620123674315545 2.533201324541523 0.68097852664344 0.08562056348429771 0.7398133373934613
Ni 6.90044572776002 6.146176639288699 2.65205983095417 1.0728581000668362 0.7809643577104743 -0.5509136168028382
Ni 5.008694504835104 4.321610765273784 11.449061563034638 0.8610429083306204 1.107686520599931 0.5397930814096445
Ni 6.06318083989981 7.942158596812826 12.278910769420234 -1.1973540004600927 0.21241477299342776 0.763260255562492
Ni 2.012487220331931 6.474053108594864 0.43741823262411417 -0.42655244221523314 -0.19332870289625415 -1.3372868042337098
Ni 2.958775317744383 1.5535943345573633 0.4368878935455505 -0.43340983145669876 0.00020131737752868554 -0.13057887336254287
Ni 0.49536752250436056 8.952069252402364 4.706402136616364 0.04570264424343742 -0.6228985917815724 0.16013756085626613
Ni 8.77031253127207 2.018660911143928 1.4285349404568957 -1.208475821404867 1.5954669563877102 -0.482143549216976
Ni 6.8977713683040145 0.6980921283322572 4.79756969062777 -0.7189030696033555 -0.1366613321111969 0.6815991909465745
Ni 0.8644445389959636 7.38161285483426 2.345252781348684 0.42534762327385456 -0.20230468114261932 0.6602770324300306
Ni 7.548347834884553 4.063829710590762 3.8045981558638076 0.29558378961343934 -0.11561685273607185 -0.10846070130726482
Ni 7.303648477472769 3.72322510339907 12.595350045879973 1.0824935662740711 -0.14706247283986285 0.6482141877282256
Ni 7.863351116300798 8.929151351708196 6.943013371236866 -0.05457037904671247 -1.123608591146826 -0.7825913517909361
Ni 7.029857528554819 0.6452495051691884 0.4676058582259777 -1.1586933506651012 -0.6844518299040212 0.5237164875627561
Ni 1.8159444643787783 6.639002160466063 9.179690784921872 0.7476243487974479 0.04658273285554558 0.23473426242623444
Ni 0.13099465896774315 4.427914287243648 1.167496606612714 -0.41621352218307023 1.6422954867054749 1.0816726130346728
Ni 6.610137209591763 2.1031072105767517 7.082809845783711 -0.5941474877908091 -0.6055714133570346 -0.20745820031910078
Ni 3.570550908149668 4.49484579864596 0.6346998370371458 0.13380560782995665 -1.2081492913033838 -0.6797348840443261
Ni 5.6606761433332045 5.62365212971177 4.960492575250099 0.6173051568541948 0.4389454165629472 -0.7791550724158776
Ni 5.230068008415363 2.8042789318147876 9.609947173579059 0.7603595369759293 -0.2726500636354014 -0.5284941114570576
P 0.32693092459002543 5.594388291325387 12.380851912507962 1.133969879776492 -0.9745527420260183 -0.11783005833730675
P 4.116782027819654 6.031523676440934 12.497296242909986 -0.5193834074050411 1.4824430611897954 -0.08604736660907117
P 2.530125357885854 8.541342033711704 1.363015853472365 0.3861606686617478 0.028682455536357055 0.8883580512058056
P 5.9753439966142885 7.773166276069158 5.877874019911987 1.7861173411208529 0.32748783741088766 0.5665562084361018
P 4.89390555760822 1.0336716594342432 12.602064047958335 -0.6238594130329449 -1.610140756349801 -1.5383414150193118
P 3.854377504246591 6.228057366768812 8.382069876387453 -0.5733212950740771 0.4134087057444235 -1.171577405716621
P 4.585619904520448 1.393150898447636 3.745552831887863 0.5531201375358539 -1.2530129845852935 0.4845701563805977
P 0.17321780868415493 5.69275032555471 3.45127175672428 -0.7074770871546009 -0.6829603329601592 0.4240456166329794
Ni 1.5060995237437764 1.242380484505898 2.4487867547971605 1.081249923674957 -1.0414132512939933 1.3842613732110352
Ni 1.6666608129820737 6.534248860418154 4.861961013828142 1.559138297160005 0.7480760916228858 -1.1979728649910142
Ni 5.645545614749911 5.452973602667029 9.199487390834 1.802768833634605 -0.15824831425335326 0.9043369431325651
Ni 8.631318364562027 2.4925030129962975 10.015138921477055 0.5851429702993536 -0.4890731864572738 0.6312801309770483
Ni 2.3462472804413066 5.223812726975895 7.01406520932648 -0.9027665133216517 0.4940318160141298 0.21760788715859297
Ni 0.6321823128983918 9.06198995885679 9.169473825237407 -0.09527968384061655 -0.03504902118433319 0.020094199646713776
Ni 1.4206650711560223 1.0763798201028458 11.437305260178547 0.09125462184162347 0.326720877337876 -0.17855642968308602
Ni 4.108958393207681 6.784206280489203 1.5683849021928602 0.6848848036763817 1.2525681837383913 0.44987800431505104
Ni 5.508518688724454 7.897999936100288 8.282370662430129 -0.04779912176114994 -0.4686383156416897 -1.7186163700554018
Ni 5.124498802092741 2.87975932785104 5.178267932158873 0.39612420763236295 0.22605267549183647 -0.2161179328766278
Ni 0.7855328037932784 7.464463604218755 6.881540272812385 -0.7764620989647466 0.47604669229061886 0.5396966650410963
Ni 4.771945700789137 4.698713579820983 7.025038242158845 0.7068165707524666 -0.717092755867494 -0.11340621823799825
Ni 8.326912799091781 7.053500679270955 9.475815808266306 0.3801802827085969 0.19608312571293973 -1.0880929147387197
Ni 4.921809552203415 0.3269200458396959 10.110207414044117 -0.8947482710028655 0.4730331022752757 1.283451503580809
Ni 7.803391070734647 6.984565664682958 4.856879730861732 0.5893739776615656 0.6565723298849337 -0.29499217877602746
Ni 7.148861991534387 6.007744541345681 7.096740992143175 -0.06140719946288779 0.6120698765971847 -0.12222124542646691
Ni 2.272598140710522 5.257210490487492 2.6426660300446376 -0.09268878318498876 -0.10652131819270685 -0.27701502547231643
Ni 2.422452926499526 5.244446090100865 11.278601517559016 1.1402886229056683 0.4140298842681902 1.0925404089871118
Ni 0.9284378812467805 3.458798945389774 3.7315020192747723 0.11759788772184264 -0.3568935442665144 -0.08217322836564557
Ni 3.447022698158079 2.9669615773673392 2.8418786126411573 0.029079690974775724 -0.03999608077696338 -0.11820492517822224
Ni 1.1966806674966803 3.210563994120898 8.035166472754975 -0.8084167974944722 1.1115660581599953 0.5004839993973768
Ni 3.42566408501114 2.426178898487383 7.019943360754525 0.7067906026105375 2.1662631710470888 -0.48555308911915734
Ni 3.9513887603099995 7.056338219981902 6.110722791964825 -0.13529479078097345 -0.5108347465040816 0.11754697987924916
Ni 0.8411830511038884 7.583377410945577 11.562917657420765 1.5887509778201154 -1.289739907692682 -0.23558761156546523
P 0.18243211021325012 5.723582517113597 7.989324325428945 -0.24485206758652672 -1.4449934009837695 -0.15967630494913146
P 8.70433291052359 1.6074350830631647 7.935003098783591 -0.9803078993422407 0.300959709213372 0.5005513623002025
P 1.8078851235096662 3.273243727269427 10.416177706436757 -0.13973277194766903 -0.5480866888770045 -0.5100294769939667
P 3.856299416804805 6.409850350400204 3.7630141327292543 -0.06826098915992761 -0.33402923807383117 -0.053316966255585595
P 6.962626851518445 3.941053947496964 10.441494371578584 0.23433445588465446 0.01494865089003232 -0.6192016025459595
P 6.4416888263645715 7.556923916394317 10.211233835541641 -0.3859488097612579 0.39138077941010657 -0.11688594925648256
P 2.346791217957782 8.523591539424052 5.792464951075001 -0.1375820441532534 0.616727172863538 -0.07222922977905624
P 7.017102193793468 4.130135693849128 1.5490796531706166 -1.0055144805148553 -0.7315845217257659 0.3879951507673254
Ni 5.45562076524721 2.545935808364742 0.5499017913436681 -0.16820696812796193 2.478486368989422 0.7342648967714065
Ni 1.5858770261601853 1.031341793738673 7.179032392448229 -0.9083072406342229 -0.6366617070039358 -1.5367750989734563
Ni 7.156368329261749 0.4344057253453673 9.11929286965496 -0.09286747485469812 0.6967077644532389 0.36596259644731816
Ni 2.8619091116853688 1.7514062780489588 9.303830018056969 -0.2617791823591686 -1.4049320141865096 0.43839957136180624
Ni 6.444852729585403 2.038460236743637 2.716770264164207 0.48204970395158925 0.417392630092836 -0.03690252945330418
Ni 4.237336712721177 7.054978376190713 10.450490191538561 -0.6304612346201787 -0.11600457509279377 0.597634417898145
Ni 8.276788956948561 6.782121186676045 0.3839772781929224 -0.5820638171533976 1.3319836468532413 1.1812411540586303
Ni 7.641488068955711 3.9315894347102907 8.232295774663392 0.6617988683911957 0.41304900841215964 0.31661104259738376
Ni 3.1653627865017833 8.515640986058235 12.562430947382875 0.9191634666224363 -0.8581730429819929 -1.309380564741745
Ni 0.405555279471506 4.955098528211717 10.219022114215043 -1.6819498678723033 -0.7299238461938914 -0.7356072697319137
Ni 8.819185317127396 2.2704133250193452 5.7042428187153105 0.07940517870220519 0.8407777303236811 0.5599173629633454
Ni 3.525014272395393 2.7026442068613377 11.67266158418234 -0.23515566623436923 -0.7672151264451819 -0.19730645659707957
Ni 1.1348712343745126 3.3934357871599663 12.542182873332074 -0.4371798400220922 -0.347761242947943 -0.5046221899354664
Ni 3.067871052298822 8.517581029866998 8.063852830811365 0.8326862115647982 -0.4042535216077167 0.04067459490122673
Ni 5.514492935780409 8.124087564823336 3.6294140130575934 0.08016056881099097 -0.5387690110205043 0.5156252259141895
Ni 3.166187758401771 8.67679154093938 3.6628244684445743 -0.5930131170760496 -1.32377051491483 -0.6702475133791812
Ni 3.414087281535487 4.180205142240699 9.05777988247927 -0.6639243993746308 0.19768440876178855 0.45128491196490667
Ni 7.4337945939148105 5.954076039720096 11.4634976647219 -0.68570909934989 -0.36019689760813445 -0.37074356277572923
Ni 0.6322512116504786 8.95934894949786 0.45309632497399344 -0.21477221748201075 -0.4277330927868956 -0.5369772092274042
Ni 4.698849564200102 0.4847453293701212 1.7362440197772038 -0.31918883062688896 -0.6876495109057125 -0.4618238638230175
Ni 5.966495946346287 5.671119743649534 0.2788142118826014 0.28074081106333587 0.27040086258990853 0.23207959841220674
Ni 8.147458746781234 8.8635343559707 11.255010040906944 -0.7053947507042755 -0.2769414919219037 -0.16484602207552898
Ni 0.12871465421118328 5.01087932052628 5.695366665008957 -0.9586388990092393 -0.9284274084228656 0.6887386302048332
Ni 8.170231597471009 8.767991731201775 2.5973542217971723 -1.391019003649843 -0.19574991074323705 -0.2596953032469463
P 8.543046371263326 1.498711039144984 3.679927677087619 0.25519818670754113 1.6549609979882853 -0.6708645781378898
P 1.9242877520354262 3.181943815129012 1.3506494340352941 -0.8703443882372043 0.33338311984940006 0.6250904572265686
P 4.740750884219265 1.276122741777929 8.11289333073427 1.6987520270313066 -1.6343530919299467 0.430565162919052
P 8.586089960067088 1.4037123518925356 12.559352261039624 1.1465052932393416 1.7898426124912403 -0.8399516348779598
P 6.2807649121152895 8.00891786133492 1.564457673323907 0.6526945920970824 -1.557940163086846 -0.52166474724005
P 1.8763577912086589 3.348542810800187 5.874662975439726 -1.3737278206695631 0.5906330468796473 -0.6171884287706726
P 6.936282144470481 4.0255546406814355 5.9368395663855145 -0.13771934106206604 0.062166446226415505 0.8249847291554824
P 2.5091656322509976 8.527109002030594 10.190614070854583 -0.26733482207007503 0.9210457712468136 1.4960868772254752
