# total energy = -381161.032055875 ev
CRYSTAL
PRIMVEC
9.36035540952872 0.00000000000000 0.00000000000000

0.00000000000000 9.36035540952872 0.00000000000000

0.00000000000000 0.00000000000000 13.69982630107731

PRIMCOORD
 96 1
Ni 5.223274815586589 6.431883889776523 9.130659653009381 0.841259555056106 -0.4346938403754449 0.20089443105865404
Ni 6.291122867025065 0.5123933364964085 6.384776965777387 -2.6198502487826105 1.7303858518865036 -1.8342594480437184
Ni 6.248692376525507 8.839751043228294 2.005367196088819 -0.7191524666100001 -0.9411073178833792 0.2703687238003924
Ni 3.0887955588964786 2.3352307964527466 6.382995690166961 1.0322616667017124 -1.0904981817461026 -0.4276346195358183
Ni 9.636485764238971 6.0708456261413 3.924739872153704 -0.05278166257740587 -0.34287948937560947 -0.09525834368437788
Ni 8.701283307521262 -0.31168485436807664 1.7753327208576597 1.3119686371838952 0.2967037621504955 1.1181025737269326
Ni 2.65242515594062 2.7974825817671487 0.4974130239008883 -1.867831370461893 0.6344515867264944 0.7188609035115103
Ni 5.684674808570205 7.955431477831034 7.393494716855228 0.13233596526296565 -0.4659947073712556 0.7063730554571448
Ni 1.5960435397242845 2.1094028648859378 8.116914455108837 -0.2421758063059442 -0.18212460665031863 1.5126787201458851
Ni 4.310256400890491 7.142493981824828 11.603026206612332 0.21427136658619228 -0.6840116570428091 0.9558595364918892
Ni 6.017566483868305 2.956599261229313 7.585209769627289 -1.8986229019214524 -0.11599069113572283 -0.216974110229336
Ni 8.089556008686577 2.3327877437237845 8.113283573294416 1.3317154807935194 2.320624234430894 1.5659229241820063
Ni 1.216630898667789 7.175302027093072 9.142742935644694 -1.6026958700359817 -1.8136852234367924 0.0170906369336996
Ni 7.782058977272284 4.651085657468898 1.8332152858590205 0.26789840788302893 -0.8845605318365862 1.1662912176170173
Ni 3.0950763572916262 3.1164086069824477 3.400872612150929 0.08326466165761144 0.00802724117985069 -0.701398742171005
Ni 7.438477776240564 4.941734049373109 7.3463400550441476 -0.15289502036123992 -0.6951563608057189 -0.34116430645671564
Ni 8.682955731876406 6.871024957896262 1.5311613010420129 0.10137705498760605 -0.7918354960970233 0.448918211504943
Ni 2.1195026882367043 7.4526961559160165 5.039302648704941 2.075141989459536 -2.470282493022391 0.8050296261897942
Ni 3.948010651423713 0.6943240098907533 11.284437154187234 -1.8283777924519606 -0.6749212647057667 0.12742952910028374
Ni 4.544677138607442 6.699430924841353 5.403046991052587 -0.1602925983768917 1.2218247319079474 0.24004873266061239
Ni 1.9730505694729519 4.133888586641059 5.4705323445391665 -0.3981985736628884 1.0559479545750587 -0.9854958713010835
Ni 1.6434818203004509 1.4923682446055757 4.406111119169937 0.38623523065342513 -0.20743994548665562 0.7890669322129508
Ni 3.8796332560786273 9.232155857418118 6.367761711943261 0.286339645307352 0.16337355129506057 -1.0688158116766624
Ni 0.45329392530820845 4.325242329699182 8.045798219807835 -1.1719548436606977 0.8366495670879204 3.2408331115987092
P 7.445872456914433 2.917033039446469 10.376508900694239 1.418797716425008 -2.5186644838702046 0.6350570815209772
Ni 6.062243459635875 1.1944094152250464 11.838129314229441 0.5155766320644412 0.8456157751422726 -0.6400200819532075
P 1.2383562832805122 5.684749691412472 12.906962075043728 -0.5406222621791593 0.38283031873693424 -0.3365620317980139
Ni 8.184058155627573 0.3856120043606779 7.170063972276493 3.4383830516651623 -2.245907205232977 1.2249095414808582
P 2.336503804771286 0.7788311694601581 9.622250535924007 -0.6584032124460855 0.1618519724442116 1.0383934906310632
P 5.261773956867129 5.056098870225436 7.173969112500719 0.4775438456614356 1.1584699218003855 1.5067806094938954
P 4.948744955480359 1.0132584594258072 7.985984613511513 -1.152718878249221 -0.2098904639096772 -0.5882023259509677
Ni -0.27500162201251327 0.6387993183852758 9.589125174611656 0.5503127499940458 -1.329999269433361 0.32082739467157645
Ni 8.077134817225533 0.24211962993753017 11.829648832342698 1.0070825963329235 -1.0598429187540908 -0.6357913885838405
Ni 6.21601537623123 4.297844569784731 9.612263972872169 -0.9546184649959367 0.4695813962812493 -0.7899076829466912
Ni 6.496376737679006 2.7974919421224325 5.203673295587666 0.6518021621898 0.6771560675735565 0.6294248229358643
Ni 7.99585885229995 5.692874479798445 13.361221052981653 0.18845157730961096 0.7550885183849769 0.14348066902587547
Ni 0.5901760168302337 2.8061596311148413 10.21626149031384 -0.5069030155498431 0.25900110539339916 0.5319530165399354
Ni 2.275446207257803 8.58139587705174 7.8576447822211 -1.721590365082061 1.9423188001475065 -1.3881141712982223
Ni 6.00101737572729 6.076733289614546 1.6996280393967447 0.9938794673790883 0.4977164639545687 -1.2202453032359695
Ni 3.45102258765269 6.457493821831848 7.485557555209377 -0.5555030359457336 1.1680218271548788 -0.12483142935580437
Ni 4.353192350575352 2.3951557909769408 12.87782328904657 2.9824408434339023 -0.3571537399064365 1.3625126686800342
Ni 3.902884378602542 8.822219097782524 1.4526747219908775 -0.4820926413743827 0.4171080089728816 0.8474741685072501
Ni 0.2837470019537745 8.081955400196472 5.847277284339899 -2.0208413191344423 0.8988229552928714 0.9005422519768232
Ni 7.978139699748513 5.79432201035971 9.683461643264136 -0.904604852081971 1.2650143799215439 -2.4354612715781476
Ni 3.290249125305368 4.7872039439998 13.007368734097481 0.03520483003590711 -0.09414402757427658 -0.7874335103745858
Ni 8.335499343757368 4.550723928120505 11.361512191661635 1.7643578379565745 -1.111191448429396 1.3195467066414694
Ni 4.719388169971716 1.859116324963659 1.5657665345246659 -0.20119267902536317 -0.3949191315806682 0.16479717111546457
Ni 7.326247116392846 0.5883161142354263 14.004099614199426 -0.9349636668794865 0.6304733188050368 -0.7190807328318003
Ni 0.5387034231269311 7.7639654105095115 -0.543029779338909 -0.2899409895053651 0.5406119777665142 1.3795038039213918
Ni 6.708735117993031 1.492649055264077 3.3180840138115526 0.3547471873474729 0.04903068017540588 -1.3937973377259285
Ni 9.073675682115224 1.5198596080728606 3.1154360660685048 0.017700759713872742 0.295906977280813 2.26519587825926
Ni 1.6706268506222508 5.375783084218688 1.5189273166866362 0.08555705723621396 1.3882134158802477 -1.9263836169744886
Ni 5.082373387505881 8.947582336092822 13.212153650951725 0.73519177946105 0.0580591089262613 -0.9346965292610291
Ni 6.115213710184518 5.5246969764219696 4.193242599492967 1.039960320897551 -0.579759594500253 -0.47408982567456415
Ni 5.632621872839333 4.348175200143461 13.602365333898655 0.8521643748940679 -0.6596617674435349 0.45506957581831947
Ni 8.746334697500167 2.5162039055016017 1.25353503540804 1.7643827776572385 0.16680880222885466 -1.4775235124009907
P 3.1550762346580874 6.6959956744523526 9.867039739188357 0.5238931223499365 -1.7204482810578177 -1.3131642001538932
Ni 6.039179544217628 8.286142190348107 10.628941770082996 0.3016989013722417 0.5343749957178667 1.151794566662739
P 8.276351258721693 3.921183873181548 4.7287419730063975 0.6425783295986869 0.6196782850720618 -0.4960462753409973
Ni 1.0470025402223895 0.6281116647227132 12.089274198731205 1.086168186912181 0.4371057922510472 -0.5276816428580913
P 6.678323323677333 2.7570271262323836 1.3055355531493251 -0.9521180671715862 0.40732778965766625 -0.45169063204375753
P 1.269994284138334 5.717988313023752 6.825705861756253 0.8763949653066584 2.3111828865123356 -0.975229970598701
P 2.8993700490267327 9.075426068553215 13.213948031059548 -1.060189503460232 0.29137155130430464 -0.6889643730623941
Ni 6.55823932574686 1.0737357149117206 9.464935724853893 -0.36666347916908465 -0.5141051897252372 0.2946216828104862
Ni 4.026534671895982 2.528503412343962 9.378791439145425 -0.08331145573514685 -0.6290558696322198 -0.3032878431259164
Ni 8.017939930413442 0.2377614485175888 4.8558350049730645 0.4475881798396098 -0.5714510746345578 -0.8873627771720718
Ni 5.425720579655517 9.097057849613106 4.210695917954356 0.5474729665524055 -2.4697973258558563 0.5833025746565051
Ni 4.47431534794228 6.875171595286798 3.0149348674263896 -0.3832424665736883 1.5938852137228872 0.19277951526100345
Ni 7.4890985776130785 7.49699871747225 3.7030080320589023 0.32288299164902456 0.3135668564544213 -1.2978586801450747
Ni 2.83036550987766 4.280911687077097 7.940282678840413 0.4693114304493143 -0.7186855542759106 0.2368379390327986
Ni 1.0031399153644742 3.8357051087337286 2.811163677049336 -1.892633002886605 -1.57172050470039 1.443800666227249
Ni 6.282342853769255 5.693904118879616 11.799769642242625 -0.7509590695976357 0.5291044913475469 -1.0040654067731545
Ni 9.58519101728605 2.928068898325573 6.413710759993841 -1.6226985384101535 -0.7690660636109916 -2.9981847365317202
Ni 7.720421037731231 2.567844985600005 12.707684791238224 0.617127236515434 0.7014619913087725 -0.07444269249060728
Ni 4.05253773887321 4.587285475857385 1.6777762899876958 -0.9448469874314696 0.6894986482993093 -0.724662854905268
Ni 2.8975447797464735 6.977115224678083 0.044343747119481004 0.8630627669741265 -0.24182639338632544 -0.5161569300479434
Ni 3.0759999532240996 8.833685533004662 3.642058078631178 0.7379672853236581 1.6318974313006023 -0.12120283146428158
Ni 5.46231956881353 3.6101205464042883 3.1033256384028682 0.8792918272384793 -0.2204096182734462 0.026840003010979583
Ni 8.585842045811345 6.930360250037603 7.757594752703644 0.6211911221721624 0.7767634322552494 -0.8466784120788322
Ni 4.58976597000748 1.7373100216610446 4.335050109965106 -1.2297570993811466 0.042342212411636757 1.0479806200988662
Ni 1.9106918825750792 4.9637028032232 10.464420421480208 -2.308381669618115 0.0992684932850355 0.6550438090555494
Ni 1.7289699451035536 7.925150728489302 1.7519337047202683 -0.8208835625029153 -0.22551994291681807 -0.027094285113630753
Ni 4.404084602251085 4.294858616449332 5.502987504413229 -0.4467505144296628 -1.2439269631236252 -1.3795575399774629
Ni 9.128368238036009 6.994057467740999 11.15670012977707 -0.1543510360814761 0.4180030099833253 0.27083974989954
Ni 4.099947938383526 4.75344114249265 10.453214204134946 1.1653895317383542 -0.2128464612142076 0.9753626395218233
Ni 7.031433366387533 6.8893057317647015 5.8110002914036345 0.4119071814982325 0.40105661193697384 0.9719500142958485
Ni 2.051583950300504 7.816374039741152 11.242679673232551 -0.5831976736475246 1.3419204463509793 1.3098994133596926
Ni 2.862565132052485 2.9239877834220196 11.530897180869667 -2.626455412803954 0.16807609897705247 -1.623169050288669
P 0.6469250428067773 2.5611148901512553 13.07738793575927 0.20351849894506238 -0.34075292995090994 -0.43189545169470134
Ni 3.973049601806753 8.626465987741211 9.38054463369 1.3762783550055588 0.6644702445757719 -0.38768044774038396
P 0.8678649968446052 8.543814050588972 3.5223073093487933 -1.5258116579834176 0.6041308242557659 1.084265056352197
Ni 1.798470583082645 1.2062502646585214 2.0350956844688315 0.4433556298155009 -0.4824114581663821 -0.340639030080865
P 1.060565695028006 0.9313665831225785 6.406710150277402 -0.04186193034110855 -1.6241663812049316 0.0018195697072420278
P 7.4791672406574135 8.138894441385268 9.185007747855737 1.2201566001769049 0.0421573500943403 -0.8688971142677164
P 6.635246968663221 7.631778473197629 0.1747466007143511 1.205712399727117 -0.9818122518019091 0.2278740449712914
Ni 2.8339786070170443 5.464931107937592 3.622494000053387 -0.4676165592453947 -0.02001629522092682 0.7445066291040726
