# total energy = -381170.4054114765 ev
CRYSTAL
PRIMVEC
9.25773948301046 0.00000000000000 0.00000000000000

0.00000000000000 9.25773948301046 0.00000000000000

0.00000000000000 0.00000000000000 13.54963752003120

PRIMCOORD
 96 1
Ni 8.363339898936735 8.878301650605568 1.7338931132432867 0.7604060739431484 0.17118841935378903 -0.6218038160554968
Ni 8.352369477800059 2.3605476386925095 2.7803722318710102 1.0566380386635479 0.1560857593843957 -2.398828965067094
Ni 2.6798563268149316 0.776486408053883 7.623690035779755 0.1193413527755106 -0.2625427999980704 3.0255839544802794
Ni 3.142048964155453 6.639169263564955 2.717501998131536 2.142909841033129 1.2189461248085718 -0.12778459844685736
Ni 7.364078028345623 1.8689616788971826 6.470249773956414 -0.13973739993335935 1.5524544573819263 0.5434414767955092
Ni 2.708638638472251 4.214641388184206 11.156758137108 0.11559217014572351 -0.28315610537304786 0.5167493122163036
Ni 0.38997949304313007 5.712062213513294 7.199111593442028 0.7842615404045074 -2.694427409968553 -1.0476576895418086
Ni 5.100857003501104 6.165385936550916 9.3964295491341 0.8189868597008347 0.20240135462148368 -0.3066894126082976
Ni 8.438892309819778 7.490946088478111 7.493478080191935 -1.1668329490531 1.819759968875963 -0.23900177945333675
Ni 1.5480328863874875 1.9351637730308242 9.768055573904268 0.14493308520168585 0.3396499266947183 -0.9042932343788233
Ni 6.164950822801191 4.050260968181837 5.863714167675313 -1.0129765932198553 -0.3621409087083828 0.37868261511714785
Ni 6.472233707500371 1.2259098455008888 10.450822183363199 0.2545996338915938 -0.027108426181017827 0.9066938734005159
Ni 7.631534118335962 6.956293125199398 12.120529538104547 0.21701884742434238 -3.357086312367199 2.34389014693737
Ni 2.550720120540261 4.470071674751304 1.6709543722325801 0.6565885278348499 0.4404456552575576 0.20262401215525103
Ni 3.755790794751144 8.057232747135746 0.7328500536001114 -0.2477792685356507 -0.04931530129536023 -0.5303273080110544
Ni 1.4269231401343336 0.6947988932997204 11.68451593611448 0.3052472808451323 0.03734553052799375 1.160286149073518
Ni 7.428808141921686 5.389143007042091 7.967051256522596 -1.2972092194865337 -0.09483385455244958 0.7467028654244431
Ni 1.0378944169230488 4.272854053253754 9.48161648936477 -0.4897666129798726 1.1087219038429807 1.3384918802854044
Ni 5.707275962266322 7.254586744984054 2.173009909465431 -0.6954448385804152 -0.5362081922718637 1.7075665399991429
Ni 8.568574722716443 8.840363434725317 12.29622847024337 0.7547853853222614 1.921961319537077 0.8020474036330187
Ni 5.411167168969645 1.420433464845887 12.87819866514374 -0.6911099586504872 -0.9289393150622776 -0.4137066966008166
Ni 4.180304432913379 0.17309010118834778 2.693776263710379 0.05581607852835548 -0.24236066862324068 1.0985591043773661
Ni 3.704234444278448 7.635440884344129 7.8157149912726105 0.5894228286216301 0.1485981927580989 -0.7338488922799103
Ni 3.6222479045430913 1.5512453219439652 10.935925874061564 0.7288979760325383 2.3061746346644667 -1.2376912666265587
P 4.89634428339115 1.6157532497754876 8.96219065577855 -1.1037560751972733 -0.30349764514387734 -0.3210932467384534
Ni 4.603466441129662 5.828163522774935 4.437655700396815 1.3709646561021291 -0.42612383931824677 0.25972229983013984
P 8.406147685718157 3.7359422015722146 6.982019457095353 0.31865172717649637 -0.11790076367424211 -0.3202067303684421
Ni 0.26640533657345056 0.5855260925869492 7.176918014884263 0.5495406477147116 -0.62131813466833 -1.018352255709472
P 1.6026350331082564 1.015361079330924 3.5291381909716883 0.0056697966912676555 2.0518917606823437 1.8716659137166345
P 0.5795826239204972 7.84343451445188 5.736279533894246 -1.68261089849507 -0.6458053211764169 2.184227211724677
P 6.42505626774299 1.7406957001219612 1.3800984202464093 0.09149347732530695 0.09544731976673239 -0.03521305756602323
Ni 8.014869331843402 3.452710923719517 4.71689966990895 -0.23660525419670222 0.8398325928015923 -0.09964953077353805
Ni 5.131453832072169 8.674723962170553 9.327624178693593 -0.7314791064961531 0.7160054363405862 0.707233089464595
Ni 1.5465423903511966 2.4745659565990867 1.9467174317469178 -0.8597555569777644 -0.7351457567144629 1.420544781023102
Ni 7.979217777584046 7.953740478876764 3.8094403200921967 0.7336426898063751 -1.4538850470464446 0.30606797697421484
Ni 6.325322641662481 8.85207447501046 0.64214272339155 -0.17974042268885818 0.4548674871098424 -0.06477997258986262
Ni 6.909874820069194 0.6920632313200686 3.5245315398682204 -2.2553192425754967 -0.31906438923388275 -0.7799482577411342
Ni 7.219388819953134 7.739340493134767 10.189543782845014 -1.8760362748701882 1.3922695882274925 -2.6004620740639863
Ni 9.156543006945464 4.069350426733587 0.7706706961905417 0.2893473217854242 -0.37984603929762967 -1.4122545159898516
Ni 2.2451499176219114 8.6530978830353 9.939106195112522 1.745275881624459 -0.22973295255690115 -1.1849808236067203
Ni 3.2568819631253443 3.146798184445001 3.7085902106453723 0.8303069126993442 -0.5290484412986308 -0.05379776254674606
Ni 4.754876768294494 5.252369165798849 7.285382614951269 1.6003258271419085 0.9352488022200732 -0.2887382274465156
Ni 0.545666895790362 4.78130761415543 2.7901817324924627 -0.8828497197930667 -0.5368306563472109 0.7604734368459741
Ni 7.834482280494778 6.3666399324076135 1.5954288087936674 0.5074275205947454 0.2463556487152467 0.06878189466040412
Ni 7.095779484073902 4.602374027885673 12.372987164564483 -0.2238278999263758 -0.22003757964600817 -0.11414129663180987
Ni 3.23171942755616 4.4080355633277915 5.927315762823898 -1.4684845421271742 -1.3467232670562612 -0.3987151082879907
Ni 6.0530617849464585 7.518034233833312 7.333022941676443 -0.8181394240988749 0.28740382490580824 1.1117622333312014
Ni 1.0366446221100099 3.443740174283704 4.741519701951882 0.17870581077675673 0.48208055718952464 0.05164369231822073
Ni 0.28563273544160334 1.4939213998525782 0.2379155694797756 0.6787761196754826 -0.4613662074603087 0.032682320724369524
Ni 2.1881592741473344 3.086845064376554 13.365985248707428 0.2616652824891235 -0.5122604232070145 -1.4411940818423372
Ni 1.237519050653117 3.30195789604895 7.561781681159354 0.26679669017841795 -1.110109528219127 -1.9090117013549444
Ni 9.322636108728664 8.575342130185566 9.444367975066532 -1.3882126445492995 2.973840503359401 0.8871881992674205
Ni 4.761357185843584 4.6719737123629095 2.2234414446063924 -0.16785472699486575 0.9567879618434295 -0.49351579560965975
Ni 3.0802813271732608 8.86216541090833 5.764042568448487 1.2152457931388492 0.23053436541227393 -0.5657691937584322
Ni 3.8990265380647653 6.494572632566023 11.47051310739085 1.1188798182125892 -0.6381195224963849 1.3035379899180388
Ni 5.33314294167859 0.6344449131171654 6.793192124776006 -0.12344277653839383 -2.088351289060958 0.43428503497280047
P 7.1793120662816845 5.453706481309749 10.28624827660829 -0.9649560994765187 0.07563954101218587 0.11476504625873785
Ni 4.1617704387229795 2.4944145497780164 6.829016798761316 1.153864304707574 1.2204875011537626 -0.1887441688493653
P 5.008316640900085 1.429700461941087 4.796259788989053 -0.3182364940159487 -0.25277723597087437 -0.794088039576626
Ni 8.589450924963872 1.8687672663707098 8.845894008216499 0.7594030865999308 0.598604238010582 -0.3357806735472991
P 9.360037375726275 7.057906072369144 13.664266833430922 -0.9211218759003879 0.43626632706888735 -0.7925530909893383
P 6.005245561173524 8.615687358298334 12.019056382799073 -0.22902589918754748 -0.12312421685671056 -0.7255383155316859
P 6.676033581679927 4.979950927513778 3.4150097059667766 0.3507249535619573 0.7577904906971723 0.6036891087326571
Ni 4.020275150408257 2.146962334013828 1.3275551947583801 0.025405841667614313 0.13691535710353192 -0.08362744431366888
Ni 1.6218541000109892 8.224084983546126 4.066205572674407 0.1102537886519456 -0.08938234451957511 -2.2395956611926526
Ni 5.504864748990144 8.164872482626146 4.55456150720848 -0.7492801392333159 0.07320753453192554 -0.027768942583152177
Ni 5.9160935311767435 2.8870537913380803 3.2342578996875324 -0.5463000292902269 -0.5516504949688628 0.7713628300649683
Ni 7.3201685705808535 8.973165705784902 5.806087517506989 -0.08491839521095053 -1.8795255189703697 0.9504810457887952
Ni 1.5274899627568692 9.223643101796624 1.7188261424416502 0.4507778904215011 -0.7548892578899774 -0.007144838574897372
Ni 7.9357064026115784 3.3949148569209817 10.281587004842622 -0.043895415831369564 1.1441439920960166 1.5149384627143392
Ni 5.073000465779368 4.32719698327256 10.88313639270667 0.9342522426347588 -0.6761461382518033 -0.3680562457515532
Ni 1.433625743427965 7.567415015557385 8.017388362722127 0.672316480093068 0.620710325881002 -1.3623414332094925
Ni 8.910000150159979 5.767479041297377 4.711764401888263 0.5192957327872412 0.6869661116854427 0.2780650640033856
Ni 9.171123946430919 6.483639242386772 10.157946192649584 0.943204309621724 -0.9750103983887274 -0.951238235669794
Ni 3.637976803708671 3.6186836748910918 8.746683444409594 -0.6959968544291433 -0.6996861303552724 1.8342681897944668
Ni 2.59950840694556 6.603008533641027 5.641364561148453 -0.49761156294558817 0.6191450382764111 1.1990992652859735
Ni 1.8482984046549382 5.686807100550551 13.445833250651585 -0.6589151190854975 -0.5027188022651665 -0.5682893890771246
Ni 8.748850681192797 1.0610757962700827 4.754432396805414 3.141507796933809 0.39844359979415894 -0.5363683719988117
Ni 0.18225526315063356 4.966656813798786 11.847789130489891 0.2678102190445969 -0.7806329425129845 0.6924546456038397
Ni 1.6725124497661685 7.490233242547712 12.005141074773304 -1.101890225633128 0.617687222783962 -0.004309426008631287
Ni 7.211843762378121 9.543155460184874 8.227244649988275 -0.6247479862854853 -1.6081975165805014 0.3670689421376194
Ni 3.7368772332471543 8.789214424784278 11.728850324115683 1.0311023562862887 -0.3852494697013881 1.7559652430175048
Ni 5.985156266771342 3.4129304177074546 8.629046276188818 1.0084812764526632 0.1373349611394538 -0.29100645465540204
Ni 5.722217953586655 6.5871500261244655 13.390876532513486 0.16347125321518943 -0.06335712410040702 -0.058169666362196594
Ni 6.845107675535709 6.323795114668766 5.661701962965372 -0.07846492627612292 -0.03392879153696093 -1.163607500137267
Ni 1.122204649236722 6.8995339252087176 1.9544263513085292 -1.664969788374539 0.2808768224205679 -0.06800722127790867
Ni 2.643269740880635 5.530675326314238 8.052414093801028 -0.9731358070738337 0.45253343966002707 0.8618162961615351
Ni 2.3426246552995953 1.898095784650024 5.7503577781326785 -0.9886007354786522 -0.6342024468301658 -2.079389194771664
P 2.559579777103804 0.6592167720855333 -0.009797465560289915 1.124080131466606 0.9028091936341291 -0.3014042529499583
Ni 4.809228956052656 3.6643891340908943 13.122498371683307 -0.26387514565624876 1.122226108977003 0.3551498221025303
P 8.713504632332185 1.3628966147493151 11.099158334383807 -0.0774483120861505 1.1694788713163795 -0.8051584384581746
Ni 7.613546330767556 2.275172766352914 13.020998368933702 -0.5780629235241206 0.8807771535347542 -0.38533971542234924
P 2.2185246592345034 6.213526181201305 10.338183268620641 -1.5618317848317682 -0.640669028391116 -1.9370752923603802
P 2.3244331974653614 5.236631008893914 4.043238972880428 -0.5127455903735492 -1.4842829426120114 -0.4368283702199444
P 3.917977130526179 5.6257523094987585 13.742854857048748 0.11181907625653646 -0.3910951298488877 0.7050185983117794
Ni 6.846718522183625 4.258624907863822 1.1963693249903256 -0.16093074618152284 -1.378530384264529 -0.00039003634956707024
