# total energy = -340898.30233949155 ev
CRYSTAL
PRIMVEC
8.99299967687246 0.00000000000000 0.00000000000000

0.00000000000000 8.99299967687246 0.00000000000000

0.00000000000000 0.00000000000000 13.16216405344476

PRIMCOORD
 96 1
Ni 6.451676697565118 1.9695568001239685 11.455609989796974 -0.21595389649493776 0.47617704722089604 -0.7737017626107902
Ni 4.590386617301851 0.48853839768492074 5.993219882896564 -0.308943498749797 -0.9455725527435844 0.07988031856641081
Ni 2.8129472635093213 1.5396734424712313 4.724348135068194 -0.6828166082934434 -0.004558565904959891 0.09170662177737754
Ni 3.472916510989791 4.229461579101882 4.97448211847392 -0.7903200878937615 0.8053453576580002 -0.8276129108069489
Ni 4.835203040158227 4.589388394367676 2.523805245875853 0.7504142528377592 -0.07138256550804481 0.08255452296446426
Ni 7.197439159388232 6.023861729775986 2.5293863013078286 0.13735141619968602 -0.5447560818418747 0.22197644853993384
Ni 5.000431418262777 4.327503258636842 11.497123473659503 0.9944361112135068 1.4342803854416397 0.029996546362090273
Ni 5.662136314628795 7.779547018003019 12.31433621507106 0.16831675423294884 0.2594785592504499 0.003714986957741989
Ni 1.828312751437849 6.254945842537895 0.3808463304863246 -0.08576120282722004 0.8565329362754087 -0.17058780965531264
Ni 2.7378826974592103 1.652949263001625 0.3798166320542248 0.018630470616993723 -0.3339402779044507 0.3029924233726846
Ni 0.6403591129735964 -0.12743349949681143 4.719359718297139 -0.10322799215341576 0.14796827248358388 -0.4207602610134883
Ni 8.43900366451729 2.219957875612082 1.3896612193633007 1.0857637523849109 1.0352446605894363 0.22812806996362647
Ni 6.7779067440529355 0.7870574158000528 4.870092280657569 0.30261035744291753 -0.3533893877679979 -0.7876692805344757
Ni 0.8282534467835142 7.289221711335929 2.463285957066601 -0.3719234420164434 -0.2858894451438108 0.17402408903037123
Ni 7.590037541499606 3.6682894231065584 3.9321701054058034 -0.5026794643867988 0.42919887869914464 -1.260845850366151
Ni 7.5414573587030675 3.8966936220451847 12.748990358909204 -0.1529400146665624 -0.4931936363835506 -1.2164403276675826
Ni 7.961673241993295 8.706815186857327 6.83029456279839 -0.019851230397972264 0.12805713538195362 0.2990655775144527
Ni 6.854590049996303 0.6931057523953905 0.3441773754043399 -0.8521018970872487 -0.5244968173722063 0.05734228536489479
Ni 1.8858319756449302 6.576535501331708 9.235047784624742 0.3781434547842262 0.22977563286937847 -0.29242261827663835
Ni 0.0025144426341932404 4.712142836273032 1.3225734437871863 0.4477995245194675 0.18982943149374404 0.9021263086344916
Ni 6.445408576978448 1.998370370223951 6.969773285700919 -0.42157092984024175 0.7037644141897041 -0.47688435770056575
Ni 3.308371600840171 4.271144131353261 0.5517879611141335 0.38720042278017186 0.22032657164133668 -0.9423257636715126
Ni 5.8948931252804035 5.595642077013543 4.742038264201676 -0.24860664953295253 -0.21796424205674717 -0.11182704667633644
Ni 5.288971804235918 2.8477771502125773 9.398047697476242 -1.042142159040218 0.4408418622547118 -0.1987159353500965
P 0.12392353182826485 5.513787796411157 12.204761013796642 0.5203105472050007 0.38089144984300854 0.8651718428973293
P 4.049952317939037 6.115554351729614 12.549610166256683 -0.4568132979823035 -0.5158100882314859 -0.54989340306844
P 2.405897131350921 8.390027789746844 1.3709971483940422 -0.5814526659319598 -0.05468607868897033 -0.6910870758323517
P 6.297698561718706 7.784187405697023 5.801118623964058 -0.16010002275011137 -0.7146424945547887 -0.06478305791365617
P 4.717376761927898 1.07895308985194 12.49380230983675 0.25466031192620014 -0.6462262107639193 0.06501959940449448
P 3.9524052533714618 6.334075244319964 8.157513790079227 0.05140560816548566 -1.1750458238811956 0.44725265087706195
P 4.746172346029066 0.9687618681181425 3.761693412847335 -0.0466413540076229 -0.8410839487101902 -0.5251563053330762
P 0.1203389222646403 5.414154355981162 3.5899406136730163 0.2108908801497336 0.653507574916681 -0.6255599406638195
Ni 1.4798520104159616 0.9952822233693436 2.5423506092529395 -0.08240488476047743 0.8921897662470699 0.3134187609123312
Ni 1.8591947114014382 6.339471043964155 4.707974581047894 0.16975245823821086 0.3385551509686427 0.27152983398802916
Ni 5.873759576673986 5.462248916809721 9.276574757986381 -0.7348215406058248 1.2943159570991387 -0.23614862627525784
Ni 8.64587862287559 2.134848129224368 10.007232578005523 0.23859040294753103 0.8342183319386084 0.24204159472092507
Ni 2.385456043698843 5.152386129242617 6.922719214903746 -0.5842083743002262 0.2769553758789746 0.6729834242531054
Ni 0.6304335395281061 8.982135863702199 8.92522366695509 0.4486531307690144 -0.06716081411721338 0.5855327495386045
Ni 1.500059280083459 1.1356089861159506 11.52042073792324 -0.17973810869601303 0.12071946406995983 -1.460012757210737
Ni 4.058423723380418 6.839976425959951 1.51393817606826 0.22216619595323672 0.2904053307362934 0.21227593342271828
Ni 5.589994473385955 7.999560748494926 7.88625525106649 -0.34835902443294203 -0.27726133715516765 0.6025647653202267
Ni 5.19841230020757 2.8069579259042685 4.718622292345765 1.01415313002646 0.5463784479366461 0.5921245438235093
Ni 0.8543996932593849 7.325247666960315 6.807233814419057 -0.1337058490272988 -0.2019817505855618 0.24018757223132187
Ni 5.02136712088224 4.4860498381820015 7.1987035751048545 0.211369619558365 0.462202587318675 -0.23924089204733637
Ni 8.404434574796836 7.086240721720852 9.469031240395465 -1.0441447912925437 -0.11146683512344029 -0.385143283140827
Ni 4.794464752844581 0.36389092940439355 10.294996868129841 -1.5529445096444672 0.03289983605181431 0.6055233337279184
Ni 7.97741099095552 7.208833289636883 4.458695831885773 0.23530607576930443 -0.0770698457008092 0.7170590744160812
Ni 7.08401045786792 6.095778746033653 7.085613909662185 0.7581183063502362 -0.07256655851381696 -0.17636430712777368
Ni 2.2660469975728845 5.182485698257799 2.598921971322525 -0.6801637440516286 -0.6014805311171125 -0.4168285300592498
Ni 2.300553136297489 5.296229154757356 11.323830173686767 0.38837901646930534 -0.24786385782965703 0.3208091398391314
Ni 1.090967737059673 3.316285440318319 3.758666369246944 -0.3883885295510021 -0.2874017680232792 -0.06488384515757858
Ni 3.74215792023554 2.5425277713412573 2.6055426174859475 -0.5728793224406521 -0.09002923407495461 -0.28056726159994905
Ni 1.0399954164208773 3.4045067645008498 8.043292805311157 -0.5688516893384977 -0.32324448875350137 -0.0020229439672997417
Ni 3.521793462766759 2.759169127055546 7.00910237000749 -0.6152171639769146 -0.2678588128943451 -0.12541995486942273
Ni 4.124801052003381 6.774777180259304 6.028244917686951 0.05732557319434643 0.6397819978004723 -0.5875986309286977
Ni 0.8941028863412867 7.498012178567919 11.474234491568842 0.14850151927923458 -0.0033853715324651374 0.2620303791380262
P 0.2510224917471364 5.675248107764181 8.049360382011052 -0.49282442596959 -1.2338711215495202 -0.751493601944867
P 8.4956595607813 1.5591702651855768 7.844543921217008 -0.20100190317079578 0.4636835427395756 0.41382548156686794
P 1.7915583628614977 3.1759586775717117 10.167271096152302 -0.4762438959030896 0.20240649682780626 1.1008666694646203
P 3.864894376142083 6.103350851534334 3.660700230907003 0.9190066293295979 0.43040112653736196 1.4885792559945201
P 6.973063824183935 3.8604788134332524 10.38352575289209 -0.2712321002419522 0.4532415214706452 1.2211017376989939
P 6.3839414260317 7.863811422446475 10.053576201849543 -0.09146570941116507 -1.4470867931776885 0.12923984283614515
P 2.4583263178936487 8.335584171336953 5.754589744332255 0.8841918356432579 0.21425002642995358 -0.28122854933303176
P 6.734965171884578 3.869642679828971 1.637228600738273 0.9173824634626135 0.38819184015916375 0.7759216530802443
Ni 5.238404168570437 2.8779756422212355 0.39019904986959 -0.07126043810788373 -0.07588945223946285 0.3175371539560789
Ni 1.5035755428515902 0.9405058639813929 6.861357282050061 -0.4858536510787116 1.471761155995917 0.001391481030887926
Ni 6.716124838126942 0.8404722350777859 9.056213897717363 1.2870621037502028 -0.17226879690216138 0.05149353989360164
Ni 2.7620019218687464 1.5089713424957818 9.17851599175255 -0.18083057042924341 0.14981149633990976 -0.005189257510423321
Ni 6.364273736328622 1.8746806563802678 2.5439567589470276 -0.26727414403546873 0.059377313517052575 0.3055738109466157
Ni 4.1428949668102355 6.8813442232320865 10.373733275837823 0.1102062232434618 0.2727847894410528 0.06832063875326942
Ni 8.09019219651853 7.111007442087691 0.24470311106384743 0.5508573096436062 0.21985297443902782 -0.21239523260940196
Ni 7.362649551493969 3.898753018909384 8.328767477786457 1.519946714562208 -0.407363270881292 -1.554575360379671
Ni 3.285502403348206 8.358956976795708 12.421317835316504 -0.7825296453150653 -0.36126956184702297 0.08814384412678368
Ni 0.14639074224673757 4.725137720416127 10.107646610784045 -0.29753988489854566 -0.3932754253296582 0.07530966847659289
Ni 8.54855638329319 2.393477799169874 5.74675864044865 0.5567104259902734 -0.1345694825791747 0.5744543802372558
Ni 3.5150666992103337 2.6633127463764836 11.444580076024307 -0.47694117908043027 -0.34700996660421524 -0.38840884126597625
Ni 1.0374324115898863 3.474121572910327 12.491722229073916 0.13299313923099032 -0.5738468285602439 -0.044037083615556416
Ni 3.1177110204126643 8.41543301307158 7.947920248000192 0.24875345952346192 -0.2691672472931235 0.11275084404218647
Ni 5.62694670794926 7.821499360236606 3.694105626504193 -0.7314276844329274 0.28838135832772915 -0.9313029301984476
Ni 3.05644171545287 8.214943084292237 3.539410748605044 0.5004328344444672 0.21408676137921195 0.30422218201472767
Ni 3.3312857633291713 4.462686025722652 9.286446373435432 0.7785662897919431 -0.2964111706107411 -0.5401453225427407
Ni 7.147626935672937 5.984463399373982 11.271142888061059 0.02741644433973988 -0.07243800335575266 0.5663726316703859
Ni 0.5119534702408898 9.218633762107114 0.32248985803445285 0.3708615764108322 -1.2468652198163428 0.44683998881967557
Ni 4.474062169972489 0.2789763311038112 1.5395259572809568 0.8687315352241296 -0.06088397996956611 0.0755400393198441
Ni 5.937412026476632 5.62676684796112 0.5013273421415954 -0.10231190809704961 -0.05360647247154639 -0.9128699203042407
Ni 7.9076702805543455 8.867690953248898 11.208109156617613 0.3012283894937264 -0.28864155396765123 0.19189068489814692
Ni 0.00865486262928317 4.970187961257084 5.72792370249066 -0.18492890886833313 -0.4910333955074382 0.8400655347480048
Ni 8.09956290190061 8.901738449003746 2.3616084078713975 -0.7062851237290287 -0.8486285938266674 0.14283583635302496
P 8.519526981207441 1.4919386016189504 3.671545788191828 -0.01130102683511602 1.0149553142127812 0.06584620907084789
P 1.7985189444025047 3.152280110133118 1.6454284175975629 -0.8409880465622742 -0.12071972118027596 -0.41021796672126776
P 4.655450968011394 1.261088306841624 8.065352632856495 0.3845061637774604 -1.164500958485814 0.32174604983110394
P 8.435964030717727 1.701070802828406 12.296093016474048 0.6816886653365873 0.7050797905670181 0.415341146880446
P 6.380434156262976 7.783449979745649 1.4255414883972928 -0.811927381750892 -0.29162583340695586 0.1308488391944779
P 1.6304937434823814 3.142702565764678 5.893964148441661 1.2304268717546616 0.19315078255749316 0.20771685329712614
P 6.777457094082586 4.025014730583465 5.97593803593616 0.30756384479345095 -0.22732768554951815 0.2634126041975335
P 2.4737403188772222 8.530858160460243 10.26686946388461 -0.16494012445123205 0.0684515079041789 -0.24385293689805104
