# total energy = -340856.4556456091 ev
CRYSTAL
PRIMVEC
9.38347014058046 0.00000000000000 0.00000000000000
0.00000000000000 9.38347014058046 0.00000000000000
0.00000000000000 0.00000000000000 13.73365704643117
PRIMCOORD
 96 1
Ni 1.4690948728841464 0.7248730785905922 8.40203153518086 -0.7731785431174684 -0.5659157466386254 -1.3251833361019563
Ni 9.184709605694321 1.6754092337769795 12.332632110575908 -1.3852643605542532 -0.3689293923851259 -0.4433893112669138
Ni 5.649261977048472 5.624630367581802 12.11841405267211 1.6022281863709438 2.6396850241203507 -1.8083054471821178
Ni 6.437783134500942 7.087522766615484 2.1630100063499995 -1.1326056524391142 -2.656835053537076 -2.875258494618429
Ni 8.719036126455288 1.5810209063006975 2.714470924213067 1.131092044008065 0.32787890220171917 1.0860049218614392
Ni 8.891645062127443 8.140488883302128 7.002997404743171 -0.7203889101202625 0.9960651621764975 0.2392275223108977
Ni 8.070131623195044 2.0433257197117176 10.197034035934472 -0.028569069886944343 0.9216576937991998 -0.8180144684852364
Ni 6.033918573950274 4.525816615141195 1.7798547646918812 0.6704673426994712 -0.4006984572666067 -0.1135813103632818
Ni 3.3695572576891744 8.486138394278997 8.009674862573021 -1.401064560811303 -0.7518946940380277 0.33374898782925105
Ni 2.853822964543593 2.2134668027020683 9.88912578074271 -1.2928805102041927 -1.6903414343701082 0.35047941321005444
Ni 2.0088508499286517 2.054867388147529 12.208342416727628 2.615128160716593 0.5626954399291149 0.04154517043163813
Ni 4.274874469629891 7.155562309565132 4.486730708065967 -0.9880852292948146 0.07925811160137963 0.2923997354585029
Ni 9.080224664204271 6.015461287923249 11.862913417302174 -0.3957064033686539 0.6820594184124447 -0.2809632114867871
Ni 2.1953004042535067 6.89914960088466 1.7181631393819283 -0.776019097890057 -3.1250108277200503 -0.2692088991643364
Ni 4.103654287558142 7.1185726697488985 11.518802795450084 -2.4899601739569763 -0.11404796558705521 -1.0603180586182965
Ni 2.2137107729291667 5.228385184892824 10.899936657227823 1.5979629833366866 2.252468660500579 -3.1123669137037946
Ni 5.034306869236006 2.567317466697554 6.877183835322553 -0.02341503648983064 0.5193011321038798 -0.060503970922328065
Ni 3.0149183821907557 4.326727526358584 6.849648041806384 -0.3768399054814542 0.2142104314412698 0.23267480879404442
Ni 8.048577791977923 8.504323559668105 2.4362407088008013 1.544685612069785 0.761200801930302 -0.7755282742965677
Ni 5.094229710399494 6.101460792975453 7.680465191514479 -0.9434269671554913 -0.14373238002536537 1.290232273948068
Ni 1.0953043345584992 4.285984498433144 3.896732816138645 -0.30952225407140244 0.6885370557169884 0.4746143307194665
Ni 7.602694051544684 0.7988439130998155 8.013808281228284 0.3117130910751341 0.4043748776769294 0.5942968688844797
Ni 2.897887740945683 1.139509863014684 0.5986738485417542 -0.46435614332656805 1.5923597782172962 1.1366075745096555
Ni 1.811882425427744 6.71601241156618 13.10343352276481 0.14508812272231142 -0.3649341551828038 0.11628971043338038
P 2.1225315922862573 6.44829262120672 4.058075957401015 0.20469760685482813 -0.33087423738461724 0.38075235316198297
P 4.538381081836764 5.5140086365332 9.965869430717609 0.647437200352885 1.2520940723154501 1.0929155329383435
P 7.543024564078566 3.6641513069105547 13.595455786530476 0.06538083939865513 1.1330108582973326 -0.1281322115942632
P 2.0875218646976292 2.811034340098634 2.5887530661892346 -0.35011354523020344 -0.16838128892229712 0.16609197866748815
P 6.97210608225737 2.965401809560043 3.307929439977078 0.45267459322358167 0.47519719980613 0.09631043909797607
P 4.8297847511653185 7.935309922312331 6.520465582811634 -2.3189877272687354 0.784100846456927 0.6269516788050234
P 8.482037817769688 1.1192791011060585 0.5380819659477991 0.3778830020339879 -3.1563410052918996 0.17702688041243705
P 0.8024725010543914 1.30207848549471 10.259207033269432 -0.12178852876442252 0.09743401117945799 2.0161210308406377
Ni 0.5105170836737833 3.1168885536476356 6.153200309713843 0.3617488154762867 -0.7080663839991675 0.5069876048438494
Ni 1.533756366535509 9.334873280473417 12.794439600062455 0.21436032675557276 -1.526189095927494 -0.2209338662080324
Ni 1.6626570976759485 9.226118860009146 6.087677413491417 0.04050207387910444 -0.27572638856788 -0.08231798147362597
Ni 8.546577326307501 8.078895784430042 9.116937491647452 0.12282005535273043 -0.6039174226933792 2.587980396657207
Ni 4.037857394003744 3.7282216419347174 11.456864384871949 -1.2513469097367804 -0.33756039115554126 -2.961597681436306
Ni 7.499813683471321 8.790481869114043 13.388722922863465 1.3259245851433552 1.8535573770413818 -0.5360855506510703
Ni 2.960118915796334 9.341291574140161 10.433885024136785 0.37670260857264154 -0.15374451284572876 0.7739750708768348
Ni 5.238022008863213 2.374055512954488 4.508073411201946 1.6464840708655257 0.7447362286163755 -1.4428640133455923
Ni 6.599319575250936 1.2738717738540197 11.804861640111126 2.0501886619483076 0.6855571471530579 2.3198613881229404
Ni 0.7090863282032678 8.12734264144963 3.6739044859123293 1.0425895309902817 -0.26587083593003885 0.07942626174812772
Ni 6.6139014880552045 6.987795244553856 6.0164409222197515 1.9217124367510647 0.21479844273425588 0.13571105238278564
Ni 4.683702885954984 4.433014094141052 13.457857516793977 -1.5164163328114464 1.479521516667626 4.338064755413903
Ni 4.963546119907181 1.4322929024733722 10.387479071901579 -0.3459884673182364 0.39386497928454106 -0.8209722655619797
Ni 6.110863030189016 0.18763468662033736 5.995208005685968 0.5725625625311817 -0.019774097303133686 -1.0964186609955955
Ni 4.498201062127704 2.699277209146997 1.4437510580237536 -0.9562935387055145 0.28604756798822994 3.572287389856512
Ni 6.88092690161446 2.092269900655776 1.2793620423107621 -2.2205957230513818 1.3054195232114678 -0.5777093968394438
Ni 6.289514920716994 3.623764850855488 11.68062637039043 2.8337732308904484 -1.668025287371411 -0.37426006056941996
Ni 0.9520468939003428 5.014245009792295 7.5986403923867405 -0.39655769562535576 1.2664629394426126 0.37645835377231934
Ni 3.635606790340036 3.9011496155961543 8.988829663745083 1.131492364770277 1.8000457782764872 -1.4731701205283017
Ni 6.584090202997828 4.7248963204535315 6.436539824689766 0.014629834098032868 -1.5543385617785166 0.24631939616067255
Ni 5.8818688216463 8.579926179657805 11.407518591400207 0.17641367230847038 -0.7045743116855092 -1.4137575828979394
Ni 2.9202954679576485 2.8046535803129826 5.105528346955235 -0.3433142629201829 -0.38369112407533273 -0.14888512787089844
Ni 6.8492670729133 6.3857236414262415 10.261486278198747 0.09075171406327595 0.16018358360285317 -0.2936328365346556
Ni 0.23969793308314694 6.688697129601427 5.69722933873711 1.8468869069997418 -1.435199040601167 -1.5334483485930688
P 9.33027538003964 6.863407962614736 1.6670598219280484 -0.3399803134509435 -1.1097619150717208 -0.36145828081906134
P 3.3233248996540175 1.5417323162675738 7.632246352822524 -0.5484906091836425 -0.671086978561341 0.5089110471188074
P 4.515466647430056 0.40833953752386976 12.511554245047748 -1.485427597739416 -1.0748584183263168 0.0065257169336597285
P 6.598231092699266 9.08624885211955 9.577221105561666 1.308192457970915 -0.14078049648589303 -0.023174895454566538
P 2.596443758425 4.576843926485863 12.831219050144576 -0.994654654982216 0.32121537413861456 2.0340382774406907
P 4.782107338708117 6.171245661395884 1.1429629800751544 -1.736264679264784 0.4191970302914264 -0.4291513132906609
P 6.279005434011214 2.8528752340460186 8.637742431745002 0.058427033788641315 -1.0050632519100497 0.40388971051039474
P 8.656298244209893 4.754304116289167 5.718159169181075 0.09382546789259326 0.213678984417832 -0.3385163273109073
Ni 6.663361759864279 0.7025770148748756 3.1810442782512824 -1.7925610398636678 0.6441127639653423 2.8412106610051007
Ni 5.595607294027359 7.569485950248476 13.252773328853936 -1.9667900458159935 -0.2791068750043387 2.7377764663781496
Ni 3.544427609697126 4.403390478489136 3.1492239922084533 0.17786454582238398 0.7674210718084009 0.14285434829578625
Ni 5.998627342253455 5.2588720798098585 4.130411253041651 -0.17305195492508907 -0.48211475286156963 -0.20415304720526772
Ni 3.5101779432006124 8.459067082541342 0.3714503008395566 0.32854687480302125 -1.9366834562386002 -1.4814120488221196
Ni 8.25316559434052 9.093117552359399 4.869639164455906 -0.010581889280904358 -0.01968796534723061 -0.5494735419222021
Ni 8.489685346042197 4.340418009486918 2.241483968243244 -1.4111484274098665 -0.9938398723904046 1.0646112866770117
Ni 0.8031537409962124 3.867819529186397 11.722665255560576 -2.2014024379523827 -1.4445951371040864 1.451946178152519
Ni 3.020651682527569 8.591252028277337 2.626547807754894 0.34832919963627107 1.6028293102900526 2.3565096354735933
Ni 3.9827013557389486 0.5713229093899632 4.900525795206569 -1.346050666469269 -1.744316860145299 0.08492096631411182
Ni 5.290147186229825 0.41054934477316535 8.119146180166151 -1.1822071175163253 0.8921650836567215 0.1530981375109815
Ni 8.108566317433324 3.935690169671132 8.177678391035178 -0.05887646262123408 0.7304198119937033 -0.0591418004674788
Ni 0.7662729494351449 3.2217019165972394 9.2584073812186 0.7696227074454101 0.28054797832623946 -0.652555752526373
Ni 7.437657576382853 2.270827956481024 6.148833242648781 -0.07119153254316125 0.8802755313079872 -0.6302792005163598
Ni 7.471813408176637 6.622937769928121 13.681332368122103 2.3074427027436135 -2.7338791882062723 0.7447244015418335
Ni 2.6622594189199438 6.643234216128658 6.418822894467283 -0.048408987431006946 0.5693535686755807 0.147062729950179
Ni 4.783618077422074 2.378841082793727 13.135830892229428 0.8904946379328342 -3.723302933806852 -2.0425805105837465
Ni 0.6164714766085863 2.3878961316071887 0.8851202305250737 2.888934963664257 1.2615241073800982 -0.23267146635993477
Ni 5.621796559559351 9.234770419600869 1.4129601386698745 -0.8557014415130487 0.011087368162413163 -1.1815280891714297
Ni 8.316372650099566 6.1760030808243025 3.78367795124825 -0.09047300648059257 0.44494534290012405 -0.08519530302142102
Ni 0.8502033992921488 8.90631142616417 1.3342112410976306 -0.19375242069723406 0.8529354487321376 -0.5228327994062222
Ni 1.1631655915729608 1.6241942530268505 4.479836672456382 -1.011674329468664 -1.4372356114152216 -1.5558822521165527
Ni 1.5978736189110367 7.5397121990721905 10.933432831061412 -0.23647438504579274 0.009802845023034731 -1.1191343574255563
Ni 0.4491079008190484 4.837910836421752 0.616184342418232 0.9444978316221669 1.1630130610863776 -1.9300818917616824
P 4.461070670257374 4.214266635136472 5.358090079435661 1.482066908797299 1.7261509878695498 -0.4086416233730833
P 9.248188782091283 8.338020316019417 11.882360659443004 -1.2729809430667882 -0.8913726696624132 0.44187827393902607
P 8.779719028710891 4.5317751187645605 10.222743806135513 -1.3005318561018633 0.46026911774138796 0.17543896710002688
P 6.2865122102296285 7.627522713887088 4.026144946408964 1.513815661963806 1.9365944960692196 1.387841891473442
P -0.2790841112071101 0.875430859121156 6.521042666233424 1.624002601933558 0.6806658804990278 -0.9951513921129764
P 7.35243689936331 6.304124983932082 8.165552132401357 0.12260433979749853 -0.35201281913544535 -0.6431270030133053
P 1.5842206696637966 6.671675514526173 8.934911305209297 0.40740338009060806 0.5988726611806202 -1.0204801006857522
P 4.118283117713777 0.9574517727776009 2.736596208769815 1.249309053371145 0.4734506494286685 0.14882882071166625
