# total energy = -340889.3179200092 ev
CRYSTAL
PRIMVEC
9.10021166674508 0.00000000000000 0.00000000000000
0.00000000000000 9.10021166674508 0.00000000000000
0.00000000000000 0.00000000000000 13.31907963777505
PRIMCOORD
 96 1
Ni 6.519746618676964 2.092275188582858 11.181247284781188 0.9678357350171589 -0.36697098310717446 1.5828081299731194
Ni 4.7155204331787814 0.2323538870236757 5.937485949098491 0.045411081144947595 0.6536646693198356 -0.5839592344038975
Ni 2.686273311299379 1.4284693413959064 4.594869825561917 1.8045873749005825 -0.1104363369763969 1.4674301327207306
Ni 3.536733602054706 4.370385801674994 4.710932106405481 1.0578264025446944 -0.2791562401850353 1.0772955670128996
Ni 3.702084449874772 2.8458728252822256 2.8881223784563708 0.22504351750103177 -0.9465827391756536 -1.2056792324963364
Ni 5.290198806312364 4.60068486088151 2.3332760968282527 -0.20279884717021848 0.12934782916891918 0.6146584632599672
Ni 4.989855417129454 4.65997274054842 11.637279826950342 0.1301806094828597 0.5878480279353424 -0.5541606629852263
Ni 5.947934812250224 7.955550730757679 12.424796682971653 -2.4096311978889213 2.3702565527460404 1.0135540629898803
Ni 2.027982192443685 6.565466082598153 0.2230480104699718 -0.8923558595112889 0.4953572196937727 0.3884031848390214
Ni 3.1564721531273925 1.9928462748083922 0.26031610772244934 -0.3518755222266327 -0.47157708655503944 0.08155924893073051
Ni 7.780499057193188 9.137886644471179 7.0609371225263935 0.857035329833124 -0.6629481515042905 -1.1606013663210915
Ni 8.827924331449754 2.5781172944396387 0.828496019632679 0.8382004565148081 -1.3685084812521529 1.3565248265277154
Ni 7.206703404601079 0.6443586946392641 4.690686865285762 -0.7687081660509406 1.1532636950090975 -0.5927873742184888
Ni 1.0751627197246763 7.25565344369982 2.478095046857915 -0.3061911328156404 0.7444796325208791 -0.757092179078567
Ni 7.929596926796049 4.099554399254906 3.7520118517173704 0.05310587868604402 -0.577585983887702 -0.4997165251037329
Ni 7.7683411742714705 4.168115394713155 12.762967832430759 0.0412248109777419 0.6838671610451448 -2.4156393517562136
Ni 8.114631532669764 7.484341765423444 8.909585081747684 -0.2906066481138221 0.17872612249173092 -0.017795890530840318
Ni 6.997962747072368 1.1187163332451406 0.4408051578181722 0.17958564227854878 -1.2931322212036827 -1.2718193186585194
Ni 2.0453180958612545 6.594040747548897 9.110863565626836 -0.14185264650414925 -0.19096585909103242 -0.6371054794095737
Ni 0.04025933686053787 5.33010323491396 1.2810650212030252 1.645390580691031 -1.2626386806005159 -0.2987490747152984
Ni 6.286526391492998 2.1399693984576498 6.547193767389683 0.9138891055973745 0.3517713925486006 1.06531602605352
Ni 3.3791179342372293 4.512303604193097 0.40039384742111284 0.48389961267613435 -0.1235564192981227 0.18522689972472617
Ni 6.233008046086845 5.679023554513132 4.631204241087023 -0.9576132859582023 0.3211919770998468 0.08423885264542266
Ni 5.460427367639946 3.0161195870333426 9.325673154383463 0.07339008285637683 0.4197264204323352 -1.4496856642531162
P 0.29751686340784556 5.925821297654585 12.133828331951882 -0.924681568227188 -1.4331424151824543 2.3279037988114424
P 4.038428276810911 6.435214751566309 12.728977631457026 0.5073563010371779 -0.575796238977131 -1.1970575522655966
P 2.5916220087029833 8.471132328671475 1.2495255072583478 -0.907395784563547 0.9817672574965867 0.15439088818047603
P 6.450166399500727 7.964960349725535 5.659064060042921 -0.23621316096460607 -1.38225077053891 1.0143945566133048
P 5.020368427186729 1.176357074582086 12.82313024244855 0.22269687164572616 0.006167048042660347 -2.3768756007244547
P 3.9694577718231137 6.207327248478247 8.175663922932552 0.6942325634398689 0.20977450715710322 -0.2433284318531487
P 4.949304873492348 0.9080528009699034 3.6549817537648845 0.36019021273991514 2.0247403970785323 1.2256338212413924
P 0.4305938101935769 5.633850103298008 3.7242944267151494 -0.33621004777523383 -0.05579525259274907 -0.5746585258282619
Ni 1.1081600875945474 8.836806138135081 4.328408344832704 -1.9359200957100144 0.3384435650914429 0.5129247962638909
Ni 2.1102208061888663 6.695908518077121 4.7161392475789885 0.5716187105606736 -0.18464608752059167 -0.6189578619662695
Ni 6.197735625275036 5.619362566163746 9.019800476530467 -0.021624777358627275 1.2580536323329947 2.0134936205201193
Ni 8.882771307774 2.8950230690398575 10.121328329788676 -0.08261442966812224 -0.7886087616296097 1.6382879082079786
Ni 2.377330221995943 5.436057000525904 6.602481193963487 -0.28242796895777167 -1.1348620525734585 2.316517668461688
Ni 0.9638762300168287 8.900753326227079 8.804630519387837 -0.861630148292658 0.4514029256000097 0.2986621714284469
Ni 1.8745253214040718 1.4186411126867335 11.483204141510521 -0.38404182254653213 -0.09054962535479891 -0.07108020377627759
Ni 4.1959074414518716 7.018092415502637 1.6483295476836344 -0.020385248524571346 -0.8047362633190915 -0.566102922948767
Ni 5.496746312805047 7.947424241649076 7.971042931271101 0.8391391662789935 -0.274930632139462 0.4425624444902443
Ni 5.6263697292249155 3.075325564794342 4.469589940218796 -0.1509507521506755 0.19036756338540117 0.635002831244274
Ni 0.7461108924780373 7.631555891190381 6.650828799043204 -0.22444676445729733 -0.12246601444742133 -0.024220048889629253
Ni 5.348622165861336 4.679765701143282 7.19601884596456 0.01501421402064511 -0.41216943402068373 -1.7617329987392178
Ni 0.7816681499181773 7.593853713836581 11.021512177643004 -0.16528542360579274 1.7799749756685408 -0.11832139615142849
Ni 4.899781521052239 0.4125362599828253 10.262683739219531 -0.8798081047532654 -0.8828047254877442 0.1746925758523056
Ni 8.06390695227631 7.439723427126154 4.312877923429857 1.1936184446770604 -0.6753866343779594 0.45734680188827037
Ni 7.471865375089857 6.262711137296789 6.759432546321918 -0.045413652248108886 0.7454468815301549 0.3476545421667496
Ni 2.455355437692655 5.048114972866607 2.7431441747207725 -0.8122053180026271 0.5266457453944091 -1.1350605417375095
Ni 2.290705306178705 5.5995605053571165 11.313825539962048 0.7749353779075752 -0.977835012321716 -0.13091671631793583
Ni 1.241305285968537 3.05816256540036 3.7821790537274707 -0.4794387486913033 1.517356842347845 -0.9174858218096973
Ni 1.6669221903463298 1.126387811765356 2.4034150690070293 -0.21613001706148582 -0.07900562927094135 -1.5069973534903918
Ni 1.0539865269411157 3.496583467735381 8.246508161523328 1.2674091054059655 0.4146454063650021 -1.0450328503244517
Ni 3.9556163497243615 2.8413500200336523 6.810724979929679 -0.7981632380872641 0.0010351261327337011 -0.4038891962897625
Ni 4.284625405975692 6.767672788077618 6.023913390320368 0.8612725078429232 1.0102635651640666 -0.4921582531405008
Ni 0.808605686771902 0.0923089080873761 13.376352136276122 0.043846821981621265 -0.14677476639611498 0.28018159612575616
P 0.39540875141473797 5.779680996876245 7.797096023415216 -0.22520498277956055 0.07491243303817421 0.6175640669425364
P 8.844714222161258 1.555571999156108 8.250437632964644 0.24293453884883967 0.7702055765320736 -0.41736280529616504
P 2.1056616000932222 3.5966584965453574 10.445648046916084 -0.9037545882665339 -0.6549525348933236 0.7590678147476992
P 4.127974360605598 6.218602410858493 3.774694129548494 0.4823582363309435 0.2771690345516775 -0.5963624931642568
P 6.980654144290102 4.125945013381389 10.534259538962221 0.07773756119179516 0.725634474789918 -0.45490451099536494
P 6.364242199989606 7.730675397764742 10.245022958241854 -1.3414874725786188 1.521811792795405 -3.3838440400770176
P 2.663449980185855 8.565565226185445 5.896849863470767 -1.1545988688807534 -0.06694047057629116 -1.0697717478320286
P 7.329883871089379 4.0635175606546055 1.4664172244674352 -1.9426175623348478 0.23596504950954197 1.3729863145178482
Ni 5.492141605650564 3.1728798349446508 0.21123138548954493 0.2707394768762499 0.3587750775599434 0.4759345921927867
Ni 1.711285722714124 1.3284853147036075 6.97287164318632 -0.25435280798811033 -0.0946309945130241 -0.012763470313255438
Ni 6.725666210557672 0.9628115052400016 8.822811832478632 0.5175736078898119 0.34868375476221236 1.0465888819576619
Ni 2.6851084841931065 1.8372235533680537 9.28679522966927 0.4685884362403607 -1.1179189969612167 -1.2427509405376533
Ni 6.503102331353745 2.140970421752103 2.534301594820263 1.1077667390185633 0.11909144154823362 -0.25234014843345576
Ni 4.163401485017459 7.031424225742394 10.421780011491622 0.6274070211748872 0.2273395126240601 -0.12881175415979104
Ni 8.217008915056981 7.354481743497615 0.13288675235978534 0.6785256942275734 -0.07408428070992402 -0.4789839205420718
Ni 7.87257499985931 4.05179648789774 8.149491713888494 -0.8671284524030679 -0.18939877171422867 -0.43128507180421205
Ni 3.1847647115133353 8.58736933358098 12.368044122303242 0.917389405441149 0.10963852366544988 0.4770329674632882
Ni 8.936362454874295 5.479173803881515 10.031957880081107 0.1765715380425733 -0.9722999414360998 -0.20041492031907418
Ni 8.958466869258167 2.435444174344812 5.641642614634734 -1.0058710925233258 -1.083777060972185 0.5817521994502498
Ni 4.082418700496228 2.5029677456615365 11.151519622999471 -0.6209201278989629 0.3058772011196474 1.3841240763022227
Ni 1.2074251975571937 3.6256244706021143 12.636943549765034 0.27530061388437105 0.6974482421636892 -1.1515680524742298
Ni 3.175710000804421 8.660698840005532 7.972867523730536 0.7974512996219041 -0.2546392288802776 0.6967792411211227
Ni 5.723232383280875 7.853874064676578 3.3283178220861034 0.4502256174624569 0.36227229207992445 1.1047935153228523
Ni 3.35583049232355 8.58424796094464 3.3349245758294916 -0.399683385738531 -0.9631504137263478 0.5757859545644858
Ni 3.4644688204069816 4.217074534023664 8.940951691668772 0.21110196771927517 1.0552987510268341 -0.13903188922590248
Ni 7.005779828980867 6.279146119749351 11.435988602774714 1.9052843731020286 -3.39061529736258 0.3591466019667492
Ni 8.241461184076934 8.793589232450024 2.245823061740149 0.5085366944985242 0.46916924844449526 0.05500309570875688
Ni 4.784154230331173 0.45662496595523344 1.5464918078542444 -0.502929889834708 -0.6132070755254213 -0.5374544059741388
Ni 5.963978485596773 5.917904113416641 0.3496255860111742 0.1074425444553956 -0.83032645308337 -0.23333532519617878
Ni 7.724396251644993 9.023451481491689 11.262480325126033 0.7341728512782324 -0.2601987252459261 -0.01685306700159678
Ni 0.178487913527994 4.814075726623543 5.780986877264917 0.7499591675782117 0.2540095657160787 -0.16506250896170926
Ni 7.278831683072287 6.1961430882156785 2.3472749525905865 0.14987371703641283 0.23583340902768418 0.6528632564644627
P 8.798603449134054 1.4823971963316087 3.3788376477147826 -0.5109478750431781 0.3630842464582586 0.7861716129430266
P 1.8325278440958932 3.2447442072745933 1.4841180463768908 0.150351942224412 0.40521922795509563 0.19352847761188607
P 4.580291286309977 1.313715671004545 8.112464772247863 1.1605895392465495 -0.7888692143798478 0.1668810502276868
P 8.901199236603698 1.5072589748811092 11.999584738017527 -0.5628062544753663 1.39475224544003 1.1432693028005472
P 6.491290256479201 8.010470508776066 1.2573462292515547 -0.33761464143224434 -0.2103481202723861 0.24817367576059193
P 2.064637845444193 3.2209016524430814 5.845956929159611 -1.236149890281368 0.4769815454000624 0.6209720641828208
P 7.221855257194386 4.1923492586506805 5.983117140965533 -1.4599286821373632 -1.4658239645758757 -0.44328209626508824
P 2.5923591258561713 8.695379747052437 10.235766222831696 -0.0232024062583923 0.3722432872497073 -0.09023389388659298
