# total energy = -381167.60505490104 ev
CRYSTAL
PRIMVEC
9.24891858611237 0.00000000000000 0.00000000000000
0.00000000000000 9.24891858611237 0.00000000000000
0.00000000000000 0.00000000000000 13.53672724578862
PRIMCOORD
 96 1
Ni 1.963989345841462 3.8970688060527214 3.9043033101041713 -0.9001298470297531 0.5614690237211815 -0.026336066791367546
Ni 0.7914429046128906 2.492380059801201 2.3119780546563122 0.5984893096992725 1.5553358926947793 -0.5564042076037643
Ni 6.455874598527805 9.349639223433588 9.048462990719488 -0.5060987744809929 -1.2642021684328937 0.25173439652865676
Ni 8.04315549382524 3.5196666866211244 3.596220909945405 -0.6273394011617454 0.5314182270823881 -2.249147823657462
Ni 3.2981273417676737 0.401694403874364 6.230590366573315 0.8162082685144331 0.7899593621202331 0.6622639809530724
Ni 7.942573505127321 2.747030532888082 11.697072082271472 0.14040640097592594 1.99196525953004 -0.1385858028274194
Ni 0.1074807570077846 1.094711242691908 3.8107782462224824 -0.1205446290549924 0.6496763740960488 2.76797690122093
Ni 1.107308269690213 4.343051656168924 0.7633058447492755 0.875934480730472 0.1801813668810187 -0.10554841275647629
Ni 5.635477029655814 3.044679228085917 3.6028949295356965 -0.6289046887663363 -1.6118132589562177 0.35902293190469137
Ni 8.76220341376373 2.2999748082257687 0.29197818326489783 0.7686143207855536 -0.0929698047605173 0.5015726044758652
Ni 6.436322384816778 0.6338903526246187 -0.05768827936602629 0.58987045768201 -1.2883013754739425 1.1411679401868282
Ni 7.4570885240935265 8.468402268662295 1.9121713550479937 -1.2499461727345118 -1.1176037797136429 0.20276516571880565
Ni 4.101340420064884 0.4010072092297428 10.241278436842908 0.7729661699963462 1.4050184032527286 -2.756797230455026
Ni 8.967575649077506 0.35802101071283965 9.815616385565162 0.4018243433409338 0.3544124297158735 -0.7554690416528473
Ni 3.049969609468465 7.798567844067402 10.864523284272924 0.2856259070697791 -0.5428917749396263 0.5840070569226974
Ni 2.655771454039128 0.3142209073678521 1.5878043840845906 -0.43111692165746396 -1.0026173614727185 -0.7216551784271958
Ni 5.566831556541703 6.5926846009939775 1.8022525831233567 1.0100092830614154 -0.8990345570830451 1.5436348022077675
Ni 5.1266477783256015 8.724773040590353 11.818632467913265 1.2559638396835016 -1.5956890997008455 1.581828025448037
Ni 1.6577854010302404 5.692524358969724 12.00101281672551 -3.0777745204409057 1.3378447336197088 2.0883219784849194
Ni 1.3976503192722913 1.987583336937406 7.601765656636614 -0.10253610829271373 -0.9329546068692577 0.8365608640288561
Ni 1.829103118423488 6.514568235334885 4.3877951492010085 -0.5155995148825765 -0.5698970998838766 -0.520347056869891
Ni 0.5061803610715384 1.1604525553967184 11.977999657711424 0.03972817182755738 -0.6916483476524604 -0.49368008910166583
Ni 3.0824703090808323 7.390727533849152 6.242948771474296 -0.7352403733107983 -1.1365083299276297 0.6411621659774506
Ni 1.6959371898466926 1.8293065946305092 5.4165588283055355 -0.3633660393647355 0.4962367940852487 -1.844162051869411
P 6.161712745604831 4.322352576563779 1.9552990620179616 -1.1606306768971302 0.27869292739537166 0.5742841732079788
Ni 2.727718791058081 6.201446099484946 1.2392385427552806 -1.0070622846179496 0.46032156824587817 -0.9880232657086275
P 0.8138012401971068 3.5096686057215885 11.667291489590237 0.3262917602202574 0.38243308329851555 0.8303858455663956
Ni 2.009679003236195 2.1291010389205667 0.06663013377275263 -0.14435998630703525 1.4849061780183073 0.7908415076148703
P 6.333465162167624 0.6928679312296785 4.001646327543056 -2.115323703884744 -1.8064527102440953 -1.597189852616088
P 0.35418363442679207 8.960601964527784 5.5419630644763265 0.3779755617477942 0.5106131174115787 -0.013498291596750946
P 8.44161740068352 8.570057131906326 13.54065253282451 0.025917748307026332 0.5003549300186801 -0.7682008873972189
Ni 7.412249767200881 1.5059644038370121 2.3036124078721953 -0.2819145196564629 1.0873244120038112 -0.3736795054756016
Ni 4.978248880977727 0.38982434187023435 2.171115176103019 1.3331735533962847 -0.16187485526234702 0.694106836495282
Ni 1.6744704500059688 7.888717052696241 13.345940600974938 0.18548221026864184 0.8660372762214182 -0.885479701216746
Ni 3.182238392950668 4.477170223351318 12.879072767991724 0.15118292276613962 -3.505860625691846 0.6404389146581809
Ni 7.486999526525625 7.773873231669843 10.90938331367812 0.13300522341584833 -2.071605437061187 -0.4483697952006407
Ni 5.28446207470745 4.929534827233182 -0.007332542587559623 1.4811860488542428 0.11145963603458868 0.4246004606951849
Ni 6.670292276135517 5.51389999596072 11.757107737153042 -1.637019840128832 -0.2833430245728733 -1.3897920732212774
Ni 5.817911947087214 0.006629624781486804 6.217134115046272 -0.7265891253937036 -0.5948825661846208 -0.7116988385454324
Ni 3.8599528961083767 4.59834030463237 5.140165997606601 -0.6962974163886977 -0.6819084946568773 0.38706081187851404
Ni 4.5572381108141125 7.933500316077881 4.499337106322565 2.3319054637716676 0.09505754052748146 0.9741513928225416
Ni 8.448396857944722 5.001408172904127 10.388476824569358 -0.3259441470728515 -0.0835521109910432 -0.6211116750844786
Ni 0.9714694036666406 7.317411356892056 10.583527266836063 -2.0281237117284685 0.4115425990699622 -0.7793209085697804
Ni 7.333707951290744 8.003024436449582 4.803616351193736 -0.2549783573872512 -0.1075142782335955 0.749406123288219
Ni 3.0215939275075256 5.161608690259223 10.563073283571196 2.357005087052773 -1.0810892297273766 -2.380097450095862
Ni 3.815863301614309 4.154651186304406 1.721762944976918 0.3349070126930942 -2.5488988572747138 -1.7527480216317877
Ni 2.676072830148731 6.74050081647629 8.794717061862 -0.30078256020555943 -0.1592826690551386 -0.7699479519953126
Ni 7.2885639800875675 0.6644746763235871 11.276540406086207 -0.993821103337327 0.07893723792685114 1.5642198254479704
Ni 2.5360164572887216 8.906569782645187 3.9590328604417406 -1.4355916480538953 0.7036664551592591 0.23116814234153094
Ni 4.889570250390541 1.9811553385792402 12.24484945430107 -0.20629503324893503 -0.7956818664263071 -0.36497169328895857
Ni 7.849085436919635 6.357160891367077 3.1755671480359267 0.49132290172339893 -1.339148797143113 -0.700295224694181
Ni 0.04829970219570366 8.10946099055861 3.4547485276628986 1.2882831206414975 -1.6347544411334234 1.0869875974896828
Ni 8.059637066593949 4.565349412339453 1.2206990856201096 0.27307326721574904 0.05401630631545536 0.24903576665057114
Ni 0.2984256043519158 0.32654879083777927 1.823600011915418 0.6621642221504145 -0.6941759991703206 -4.132009863200232
Ni 3.9764152778724418 6.4742614485077095 12.488740660495786 0.11545178791311729 0.4127029379266506 -1.9158706332583066
Ni 7.185290556105869 4.141231005559516 7.85019160757235 0.7503445759420884 0.6257769417706319 1.2514893488519157
P 4.5850958533389985 0.6325474096582795 7.965104795487505 -0.6915948687067057 0.0067488886880593445 1.0441159949371372
Ni 6.206033563061421 1.8943542384477479 7.3614075373092644 1.3886885557444535 1.464767241176587 0.3999865188012466
P 3.506875432334299 5.3489455344961305 7.308980042786582 0.5447141728603457 -0.19443864813098127 0.6584425503244532
Ni 2.00721879091494 0.772317066044759 9.738510926698224 -1.2686581473217182 -0.5201364835209816 -0.25703164037185405
P 3.808908114901589 2.3944062661205514 4.9291287997109885 -0.420277922060431 -0.20256153434843183 0.24004564733681888
P 6.799064968424357 6.120860272586098 9.25862061646566 0.7849948190261061 0.11818898433862225 0.17451182730006717
P 5.122735485799696 3.9048563954305284 11.407291442042402 -0.5341464246468285 1.6030118586145037 -0.25583607740185615
Ni 4.29484629294193 7.871847025350494 0.497913677715382 -0.6389525599206415 3.093529469282317 0.2162904538987501
Ni 0.058185871181377836 6.665510585270521 0.8054429925477908 -0.3181830150701939 0.5734477933496124 1.854385786479948
Ni 5.9175782928535385 5.406880759986133 3.9632559166292785 0.1446939726076863 1.0057170834439648 -0.7109475622017046
Ni 0.4827657989945127 5.254208862290816 8.582717976442288 0.9764093356187828 0.36626135863465953 -0.8014745618486843
Ni 3.729265677689838 5.590434796556148 3.2250978812841082 -0.2672075524635914 1.7370604356932018 1.08925376781604
Ni 7.588672887606658 1.5545304748855435 5.23967418686656 1.1431518033860764 1.6024423592642791 2.0787165941846717
Ni 0.3256359225817347 2.882564184601123 9.578696089244616 0.4721293595140837 0.1040707997696853 0.2496849701987958
Ni 4.401023877332929 3.2040103471019235 6.883330939994737 0.05676738669803127 -0.46906151922203737 0.6906672146861138
Ni 5.154413031665477 6.1508267685292015 6.095222270501442 1.031114697581463 1.031326813592269 1.0879016246635198
Ni 2.767405900345693 0.5078007715929063 12.278258397710232 1.1438771115878752 -1.1577806090428449 -0.36417542263990826
Ni 3.3760494801382457 2.153730908888618 2.8332508009377144 -0.7922504721472549 -0.08923913407349147 0.512609064795685
Ni 2.8506369179358155 2.5577791625214763 10.93611916238884 -1.309976546454531 1.1719563863225946 0.44909150385801366
Ni 5.090993197504408 7.4933257867802805 9.544529659410228 -0.10501773706398689 -0.9405000233166836 -0.09652692598415634
Ni 6.57340985483798 2.920031553448504 0.09234675166466677 -0.6741537904121228 0.6391009125730477 0.8324447849779535
Ni 2.7909721446861337 3.552269124337002 8.544382134147666 -0.49536390456199203 0.7805100437818752 0.9597871536810696
Ni 4.910824265105743 2.467417228767115 9.786282515647521 -0.09063010088374714 0.49488053716767033 -1.3807428185348156
Ni 6.467047292076962 7.200828739187479 13.311976722455722 1.2057576511427557 1.0413877973726968 -0.2779748182824245
Ni 6.475140095765299 4.0804193664157165 5.6546426385735 0.1869618801379619 -1.7106631766465958 0.6135714008433756
Ni 1.6046966088347403 4.930126758017242 6.434899901151331 0.2002287724501971 -0.20858588616564078 -0.18175616756730634
Ni 8.725179993004396 5.35318153916957 12.66406870895105 -0.13810603497752344 -1.0096038200928805 -0.7054466869881334
Ni 6.75236717891302 7.47285793013766 7.347126282251934 0.3130361807619319 -1.4818859031347447 0.25275203915989375
Ni 1.4017013455757108 8.575883950561929 7.75964469544797 1.0538921004872945 2.229940654601392 0.5763330853172075
Ni 7.12033540147364 2.1364816758843315 9.61221324500024 1.7897924759795951 2.091195443377973 -1.0249103685429641
Ni 8.112790601218954 0.23391994715883324 7.3767172721039 1.3155416992471343 0.6365565488846391 -1.2017256471652271
Ni 5.023291114077394 4.72459729108895 8.998661264159226 -0.23377215562328124 0.9183833939233023 -0.07424086089244633
P 0.5669411311635829 5.3757211535564045 2.6828032681418783 0.2304027249304161 -0.18864980936334605 0.46349276688500823
Ni 0.4365378545430237 7.0454654062083835 6.5568792628012185 -1.3983101379946177 -1.7697687245595006 -1.345003199041361
P 3.7878945720674118 7.644073909427397 2.6549852959665463 -1.3632937698204328 0.8595976912436616 -1.9330990813214513
Ni -0.17826458007931753 3.641909642448288 5.429892994108366 1.003369666257711 -0.17139796426143383 2.6741156949943945
P 7.818462267762963 5.730259946453633 5.799513073513258 0.006246238020027953 0.8770824782919862 -0.23638696753830907
P 8.595510155620962 2.4608597455499357 7.556404335848665 -1.0327931137251503 0.3257793393602131 -0.18477721378181727
P 4.1376516740996445 1.8296395556965437 0.7101541599079693 -0.317191340580886 -0.135075989901948 0.3132932910780604
Ni 8.721563665870521 7.653609544401885 8.699986863899635 -0.5028746111167404 -2.1447980591947773 0.7508060889595392
