# total energy = -340870.68328133965 ev
CRYSTAL
PRIMVEC
9.23840011239008 0.00000000000000 0.00000000000000

0.00000000000000 9.23840011239008 0.00000000000000

0.00000000000000 0.00000000000000 13.52133239627873

PRIMCOORD
 96 1
Ni 3.5149987341450744 3.9956080197166837 13.81961269123411 -1.35964126066951 -0.7283261626894683 -1.2555735462236184
Ni 3.4656102475013624 5.655914799109616 9.894681203386186 2.2232812403033453 0.020867844587944707 0.09611992035372478
Ni 7.642263192911428 2.8089170570608513 9.269441069740884 -1.4429218631667216 -2.1577854725933805 -1.284635239476265
Ni 3.491939687631288 5.946425526943167 12.29769252532406 -0.196201653568675 -0.11242868481607733 0.09734299412754849
Ni 9.563591727192394 3.3008710978884426 10.855466493567267 0.24568690478299623 -0.5627010963560696 1.0653255391352168
Ni 6.861082561856624 4.004356784559856 7.137302408659655 -0.7103621220118799 0.2709940160892172 0.10632771412466205
Ni 0.8488011001884846 -0.23393846131439017 8.536950502286343 -1.176322376600774 0.47947114459113555 -0.1722867946242904
Ni 8.953182920980279 5.598100891624328 2.2362258667148556 -1.6529367684694047 0.36048408983125013 0.300059823106922
Ni 1.0817796917381384 6.443396018995512 8.204041061283572 0.11098732438386046 0.6954198988797508 -1.490694245454994
Ni 1.2959719967950891 0.4482231503717971 2.598597489303011 -0.4290458980610482 0.9336261790149857 0.7414632142920585
Ni 0.21754122507347656 5.3284412326936685 4.786321755778531 -0.3383075537342109 0.32249501218198656 -0.04179790987239253
Ni 3.9363991138245122 0.13473744546487393 3.9011075018103627 0.19827961914362627 -0.20489918134267293 0.3478129221214849
Ni 3.518888100564267 1.7938848056520844 12.209357715608164 -0.3681850580199336 0.3374423775204382 0.10697280390782866
Ni 1.526128257130816 3.5297432206178323 3.053144324506013 0.1409735863333056 -2.167655680519241 1.2232169842697835
Ni 6.728021886000024 3.767585829791488 1.7557717862640125 2.2797480650418223 1.101004223483749 1.1019653018454376
Ni 2.1177184424500703 4.402633448925187 5.798853172294957 0.005947990053318789 1.0260655651933297 0.5964830779025211
Ni 2.2573106671389005 5.711696258584874 3.136935689079489 0.5758265779944342 0.8327854561468238 0.78049178894943
Ni 2.373381925311665 8.466051324976485 6.927613823624927 1.2808873423980587 -0.3507699478672798 0.7786045992290461
Ni 1.700586203591694 9.227129197532092 4.871384324198281 -0.4934288923228083 -1.4030291407368416 -0.7089886387031209
Ni 0.7601503371910295 1.2340285244894238 6.56002342885102 -0.7616353183645593 0.4927087263273321 0.7707169689508533
Ni 9.227720455135008 3.6936139606264673 6.597788160557373 -0.07928125152983119 -0.1421308398662004 0.4594183397053185
Ni 2.360623694848708 8.964657013836899 11.73339257373947 2.5553250725160312 -2.4244080990877794 0.3301689837874765
Ni 7.611887333561536 8.586630922371496 12.467655066322756 0.31736643270616954 0.2571897632162732 0.2606723224482349
Ni 5.792486066983539 5.48283337425553 11.095551262431986 0.9102314542401292 2.8755816822858025 -0.006223869422524765
P 3.7339765304256396 4.0192490854333425 4.629271726523554 1.6538698218066357 -0.1278028532793025 -1.9566146479448885
P 5.487988401480968 3.9660636163708944 9.0549383544424 0.5106712243430237 -0.0808622228637059 -0.24758926401203163
P 1.6725568978533811 4.288733214763136 7.986171873008476 -0.5176983063931342 -0.10866741800143222 0.29022586773563563
P 3.503376826887725 1.7274884245244455 2.627803767207132 -3.198045069898905 1.3108149831954263 -1.6199202043340684
P 7.763923683111773 4.274219688291518 3.9735818263279934 0.5655964156259936 -0.9394193886579951 -1.5311546674628855
P 7.986587601010529 6.013542503274361 7.0929257540406745 -0.00537000606266172 -0.8631041617350232 0.8378430731753893
P 4.8740690032515275 7.262389421436907 7.2403623042082135 0.7013074680087793 1.65102772437215 -0.46320634599284105
P 7.929669818329662 0.9454024302651725 8.200593290386559 0.3568266955843209 -0.6246780522794984 -0.6581247619737182
Ni 0.5883336493031849 7.502504677021778 3.720678777400021 0.1952467458545734 -0.6384131424774038 -0.5686233753777755
Ni 3.367960359019501 3.1036774489153727 8.914168233747757 0.2816013592914182 0.4034153419771375 0.17442646667511252
Ni 6.253426798858092 6.134685643072153 8.518561466995601 -0.4448327285816597 -0.8712211344152029 0.42281791487346543
Ni 0.7149690179280783 7.367171354753964 11.990433502047862 -0.6160571433797067 -0.5344575281293441 0.30951942585792497
Ni 8.568200314280547 4.758385757880679 9.006072761241269 0.3480106399545877 1.4730035130434502 -1.130668069096769
Ni 3.4118150440359054 5.819397526316336 7.569580080552768 -1.208487905589725 -1.084586701357674 1.0247291057700934
Ni 4.596686041882757 3.9896492516872795 2.4572592070055643 -1.8269297471515245 -0.22896265004977986 0.9898343507754371
Ni 8.283426632875306 9.178304253291161 4.182459279838718 0.013810680630847184 -0.8050507092357166 0.5965524976878758
Ni 4.70834134483373 8.069520718219769 1.8085054975642316 -0.6334074617326961 0.49741153111964015 0.7149631111190009
Ni 0.4829567630231932 0.22771270352366862 0.3692292869419948 -1.4752575991849497 -0.7375068007474718 -0.44617073066679286
Ni 1.1332283415920161 4.817918007774446 12.545565265427209 1.0041772497606705 0.1260989832143183 1.4344932727833941
Ni 6.2173970386803 8.62631908896734 8.50585127621288 -0.029471784206871823 0.3913380990976293 0.2817520259366696
Ni 9.004382134032927 2.963743403424856 1.0190435647085614 0.11151440053192407 0.18851508355769472 0.13004459812562766
Ni 0.7118473625526742 2.3733357333114364 8.854106623531377 -0.9204513321959246 0.9858242011747798 -2.7987339798981283
Ni 4.218133361614755 3.0980882168877923 6.5313714549496344 0.2901014263426294 0.10370261779698915 0.4418188814560004
Ni 9.004012598031101 9.60091486337657 10.615665343583945 -0.13750696794094383 -0.44954993155167094 -0.5820365634598879
Ni 4.532710121567062 0.12594064094146531 6.359163982739861 0.40848684296277393 0.3507799751696088 0.15869182954867508
Ni 5.922876845226964 3.5032936812873148 4.55770276521039 -1.004248469318238 -0.41980098242401254 0.13782167096788522
Ni 8.180695624368372 1.7726087703470959 12.332739319737001 -0.28051044022008464 -0.1973787045959117 1.4632325496996155
Ni 4.710872666446221 7.893335190950365 11.245516362692003 0.5539878848527878 -0.17155814398838196 0.11565130551843308
Ni 8.834571102794978 7.916015463062283 6.620504462429469 1.9963302213669551 -0.767129251599595 -0.2429558790050783
Ni 8.308822994600629 7.476544772893676 9.04111955565421 0.4029939381690027 -0.21253072974600173 -0.8205400631205675
Ni 5.126683814098078 0.6108892030144872 0.31860470237218325 0.938887427413925 -0.6133757398928017 -1.6271036094563847
Ni 7.110685654288313 9.13626029468369 6.25450861550343 -2.0021010624124616 0.9795609938738871 0.7926423082690349
P 5.721341148232467 5.093231567533005 13.522549166248224 -0.19680457725999653 -1.34621727395412 0.4099490293305972
P 3.7456353912831717 7.275674240702463 3.595024526859969 -0.6408204663673157 -1.3195176531757469 -0.6238838385129771
P 2.6142639681003184 3.969056857985665 11.151813118709615 0.395250546778158 -0.4999376399756035 0.8925841734720111
P 7.598306885494523 7.303712784840822 3.232112457869147 1.1522090284923383 0.621632323474639 1.106816459290152
P 8.636980202619949 7.092171900596955 0.34477062282130133 0.008793944142546145 0.02148850889107912 -0.4687316466864443
P 1.3440486306323278 4.685993655123453 1.3233250516500654 1.7076177049520527 -1.1347597226676394 -2.2737339976372586
P 1.4729612648684587 6.994512773715047 5.776218168343263 -0.46050720189412303 -1.119347244767311 -1.138932108877774
P 1.1584399353164252 1.279841750315493 12.084312275631117 -1.376976666624164 2.8918511088697874 1.1363828600933592
Ni 5.86128443212303 7.143278729649145 13.278908537205957 -0.8354894853415483 -0.0124150858349012 -0.7372823434414915
Ni 1.5830368014116363 6.762222442968789 0.7527910277147144 -0.14134948161548558 0.9912150331730476 0.02370531403673982
Ni 8.124988072093478 4.912168165039531 13.04812591334714 -1.3159854716527724 0.5582865122281417 1.2246920261534133
Ni 8.18067714756828 6.127045486234452 11.016559246682194 -0.02068092538811922 -1.2235687111822475 0.3101745429434207
Ni 3.8805067935487063 8.100598695973126 9.045081905433761 -1.6668132693411812 -0.3435307498063632 -0.5851833366189857
Ni 5.536693246521306 1.6905255859420492 2.4145445405547856 0.9898816590736049 -0.6599247912969345 1.1148511566691701
Ni 2.1407682505638115 1.1692581017698085 9.975444220424718 1.5877978698782267 -0.42067130084410775 2.8384400402384986
Ni 4.781463281194557 3.597340593751398 11.206264248578309 -1.1776912319238428 -1.8632697192331396 -0.4439050745610678
Ni 1.2868444575500486 5.400445322648979 10.21295979023676 -1.5374425573541266 0.6230163483063593 0.6763232872596159
Ni 6.271044427745028 6.185062638520742 2.0910203901583264 -0.7133924241977713 -1.0491129339310965 0.13122319181476108
Ni 7.895986611763449 1.8780928220676163 3.181231045778068 -0.27546645003827397 1.8626477693784242 -0.973984271117058
Ni 5.674890472803253 7.7994638080871495 4.379315727210124 1.1820603075258158 0.36049051758915335 -0.09021872437794139
Ni 2.7985792874098387 1.947741120011302 4.845869710952376 -0.4453860299819684 1.8074772948538678 -0.03819142346805681
Ni 7.532760437171077 2.1623676298703955 5.669819515018229 0.39141420375120334 -0.1779499064473387 0.08370663429103649
Ni 6.968275717585577 8.419822371148364 1.3341663141035625 2.15886739280365 1.3654768935146806 0.5878660256574714
Ni 4.233727780891707 6.10916918214624 5.492675965664099 0.07717089005504774 -0.32805193744447375 -1.7997940672769972
Ni 5.529394910485292 1.7299550773366175 7.9882006256584885 0.9607194356873519 0.6920823498660855 0.26061935772311245
Ni 6.952219378306346 5.894644294687648 5.104573551268974 -0.17117453539671812 0.5476292896246118 0.5590506440876759
Ni 7.216308282009516 3.53795615825836 11.257942010753318 -0.756996019820335 1.068472826514947 1.0951989296558815
Ni 5.513430955206516 2.893586993478663 13.595970426770528 0.3886386978885952 -0.0870935484853984 -1.4443002315714868
Ni 1.973128243336577 2.178248439548761 0.685395051702143 -0.600281882823321 2.1491815329744535 0.06234565211675714
Ni 2.8325488843774647 0.24278792471805866 0.8082121895881951 0.7401067002641641 -0.7912022333883987 0.7794255524684447
Ni 3.842250578959928 5.935524214889374 1.2937520092641346 0.42029257734845044 1.2627543802427736 0.016804216041532347
Ni 4.724037386511184 0.7948155856820883 10.100624541042432 0.010704530901697694 0.8562639988847381 0.7072641998128465
P 6.929151093392513 7.796516758472607 10.611203196361927 -1.5755388500052157 0.11929944379398164 0.01164915420315413
P 6.0246470601291575 0.8601763421646168 4.48466120292996 0.46566560616661096 0.3967775249456457 0.6538986397075126
P 5.918544035605583 1.6577292657802127 11.763167013246397 -0.30173772502997714 -0.2742516037945664 -0.09328553622872321
P 0.45712342497571623 2.010331280320159 4.5052813118317125 0.482329439975537 -0.46448161316083875 0.06230065781143464
P 3.5859311696950966 7.864964064410366 13.349043698832045 1.0074078408828262 -1.331284563903688 -0.5762163572336851
P 1.682663707503254 7.710802882849644 10.022119388975042 0.5148880906378488 -0.8783063233967583 -0.003274299875897587
P 2.6515778658844473 1.1585969881172 8.030941159629394 1.1131922809095087 0.03114171571012701 -2.5920471105274134
P 7.237704416515098 1.6303004560448628 1.015823982292674 0.5862104923319195 -0.6397292901856659 -0.68888826840882
