# total energy = -381168.9706308529 ev
CRYSTAL
PRIMVEC
9.28350875190420 0.00000000000000 0.00000000000000
0.00000000000000 9.28350875190420 0.00000000000000
0.00000000000000 0.00000000000000 13.58735344985506
PRIMCOORD
 96 1
Ni 3.81676606519129 4.333699680042035 6.108547795169609 -1.1954123033526898 -0.5503415463494522 -0.74946782976409
Ni 3.118646211074664 4.939012297701164 3.624848089870106 0.7668641708636663 -2.231150358638777 0.5399152088098057
Ni 9.104921841529052 8.388996217728971 3.6602971678347918 -0.36619939504847254 -1.4004161285940269 1.681710755278304
Ni 7.987391631437944 8.399477299049419 6.019605283383237 -1.3197570228800626 -1.0315924085488297 -1.3092314407583903
Ni 4.6779321825772024 3.9993076967271306 11.723684529828375 -0.6175578962949493 2.4593396208576417 -0.38356796823390715
Ni 0.42360278850265964 3.392519001184964 5.408853457977742 0.2965366404450119 1.656782110357424 0.8016576243937678
Ni 5.657825092706433 8.583782797237948 5.6744453583291055 -0.08484691854306678 -1.0777344543225311 -0.029832252870084106
Ni 2.836223309453174 2.403184762709502 11.015349102740077 0.7234719199209605 0.7187310628018654 -0.6287383383918012
Ni 4.859183406403971 3.0068727663464165 7.6026403268379195 1.8836022601429043 -1.0031763192999819 -0.2394689488977424
Ni 3.6164836485328844 1.5969027487482907 8.845135847517643 1.8045554932213825 0.8953072288301289 -0.5588742664108116
Ni 5.39590017829092 2.235255373864879 5.208454069109737 1.0967480193105563 1.728485035319365 -2.0566824972027677
Ni 6.54572771514362 1.179089156269928 6.977227984495974 -0.15799660325386336 -0.33316637585290365 -0.28247322037341027
Ni 0.1732349140657354 8.287165410816668 10.011025711120242 0.019721646798643456 0.8422784832389235 -0.3275500581073907
Ni 7.320612902686979 4.203349934408371 6.74734417200198 -2.1413558662824475 -2.231829129873356 0.6228003756408113
Ni 1.8196048389132342 0.31043867417139837 7.7435547053703155 1.1866782659138015 0.8528883975442859 -0.7066538199223572
Ni 8.141247221095854 2.5771669992254553 4.0324953119728955 -1.8785608410642554 0.8312903596585361 -3.342677078920404
Ni 7.335698604321815 6.199935583147129 2.0548972235748924 0.594239533283983 -0.04749213204369241 -1.481916499262364
Ni 2.03720099929408 6.116857463805511 6.222614266546351 0.4707389069244603 -0.6737956357417557 -0.17972293918736146
Ni 0.9527293636778308 5.325326945165992 2.5511750315717885 -1.2750774205845008 -0.5563085625661646 0.22879501412366404
Ni 7.977551112217684 6.051269474851602 13.24033227423022 -1.2282730586364523 1.363676349970832 -0.14200614136287804
Ni 0.5569687461124209 3.1013324673522233 12.164322556792525 0.7808314316770358 -0.06073331332431476 1.1899196556692344
Ni 6.795398398077298 7.997092898027731 8.097002946990344 0.256825437898319 -0.28561228022302426 -0.7359042321470423
Ni 4.122750511889215 0.8053620182492042 6.152407732015009 -2.654078830948177 1.47605052739989 1.6122673157745004
Ni 2.923878198583084 9.082957059948733 9.831537425595291 0.6239643140419254 0.1648352234422516 0.8501080065856714
P 5.065147330385772 3.7151580624877467 3.1544397072120582 0.3325642234925305 0.6533728491110296 -0.300425948197089
Ni 9.347657743465055 8.000137888880792 12.391340550151336 -0.39675284235529734 0.7316133180811722 0.5906916680317247
P 3.1126769149816185 8.223916866054745 6.212463678135565 0.22111127232616115 -1.195208929092632 -0.3265190457397151
Ni 5.739241463991044 5.0160282858627525 8.568361960939104 2.2254556222468445 -1.0970182422528074 1.45320858980471
P 0.9919243374023042 6.621601831735312 4.435890687091836 -1.226162954271985 -0.21134622251959728 -0.7418424520083482
P 8.74922420575141 1.0530191081462075 9.893332172895052 -0.3006452632967468 0.5396871519593995 -0.1589543391814424
P 1.6347701807288986 5.428076819439434 9.477939719485219 -0.6441155921788198 1.2315257612457953 0.23886936764053054
Ni 8.111150085895774 5.036145649212098 3.7582623217250988 0.9283225074138851 -0.8084268247968012 1.5656547581222842
Ni 7.944993847212537 3.573742374485638 1.7710028858247133 0.8605955363805566 0.8658408439398959 -0.8531583633762211
Ni 4.862246964274429 6.577059557000583 2.6544113617010248 -0.07693846232926749 -1.9494518116478619 -1.0255446596928532
Ni 0.7245611435912934 0.8043417606432544 0.014310528658521001 0.0466845485407325 -2.435053751727084 -0.614713999088251
Ni -0.05205727502605028 7.806873804798347 1.2432493415860293 0.4852787524118481 -0.7512879136919641 0.28379013941262093
Ni 0.2414055751395281 3.7353032763631866 10.009028828399224 0.5617117358596069 0.6990096731135381 0.5236650654995304
Ni 5.760250044175431 6.125983152855998 11.697733409612983 -0.7325013771130805 0.9105890946898642 1.7962143203455387
Ni 2.2749980746025558 7.006161896056151 0.033731628855488846 -0.1542332795566892 -0.7059128279912745 -0.5959632008433091
Ni 7.473855780770799 7.032666313389966 10.182701924075522 -0.7079599403282905 0.45862155483563594 1.0861946692747422
Ni 2.7875684403650727 4.720896260833209 1.0793359986043165 1.0493713297988054 -0.04344444433688002 0.25687094642427377
Ni 5.20803909627092 8.33989574022335 12.224474123052675 0.45640397835902685 0.7733328093071455 -1.4835838596624578
Ni 7.142861561639493 0.3432707310340162 11.406230308133626 0.48286294388150386 -2.1162112486960196 0.21847177782078503
Ni 5.332094623007097 3.756246871986685 0.4163774336827265 0.4453173815275621 -0.09052931363982474 0.6731947689329632
Ni 2.5625454730255393 6.913855969068363 2.8837390920239874 -0.9640387298685721 2.198717434921052 -0.45908512473561586
Ni 8.659443393129578 0.7330212050681083 2.1428612535444573 -0.8638778066762541 1.5890497400074568 -0.7625411180082804
Ni 2.4559243756248814 4.887563092494855 11.470946575620761 -0.35238100110814147 0.1476250302115522 0.10962669659090797
Ni 6.273906580455656 2.1258863578895073 2.4050563180630915 -0.21172777422873212 -0.27257678719530476 -0.06208777046968017
Ni 3.2543711082446776 4.249433271587027 8.750133061252981 -0.3715891986054762 -0.21400268630583788 0.4826947937347558
Ni 0.863373735754382 2.679759053851025 0.9712731723028037 0.5348365087353176 1.9718417493072877 0.9931271625940962
Ni 8.330185190124865 5.348303629194431 8.938086978359966 -0.48528183773564165 -0.7076804614146586 -1.1459375936613296
Ni 0.643006448027076 5.005528637524908 0.25810103718265764 -0.3414478991354055 0.004141532972199319 -0.8193902657868405
Ni 1.318935931302014 1.1656002181312117 4.960266890866057 0.3738535691596207 -2.2142882927761156 2.2605344682278483
Ni 3.1861558863291335 -0.13891378240790075 12.456233204303738 -1.1698231420296756 1.200953544885893 0.9045840261463647
Ni 2.0716056825302 7.561222881131058 11.101384019602122 -0.08798880660615814 -2.3291775233175436 0.9685942104497385
Ni 6.807801165698305 7.069753930639912 4.062781830750423 0.37699391456081527 0.35411726707295793 1.555706645770637
P 7.8523351468942115 3.9786797403993757 13.090328412331258 0.33030216693123116 -0.8575904310056457 0.09975006090714435
Ni 9.252538913341665 7.187468820935109 8.054936584025468 -0.9927404686786386 0.06791646133631529 -0.8183883068848874
P 5.603275195594873 8.188685950544471 9.940439481083137 -0.4144402323327314 0.16279582441471963 0.998297908161758
Ni 6.942950485329021 0.5133084047040366 4.023514445658103 0.13607897724516566 -0.9325972235298391 0.15334624896604557
P 6.518619869744411 6.54442802392585 6.331081853827112 -0.1664287931816166 -0.4719365267769872 -0.13518551889661878
P 8.194683097163612 1.8407155376933035 5.8276158250450765 0.25465285572703245 -1.5167842576738266 3.192809018310946
P 4.309144799534875 5.901136572181733 -0.02372493482952726 0.3315409244343387 0.32316092790075956 -0.3816193291479686
Ni 7.723405778091397 2.5657390000177753 11.282231410800511 -0.24483972629135253 -0.6090611716778479 -1.192535753135843
Ni 0.7437826483512465 4.227477773515408 7.636446223762994 0.6387167897607515 0.38227676022630935 1.1057378815139924
Ni 3.7405391752690607 8.348093078404 1.3381555793602273 0.13404754863743368 0.7142848541050536 0.2758672850211184
Ni 4.278045045395372 6.356743328571118 9.966065678494086 -1.0968472638925821 0.7061781658375194 -0.1755199568496074
Ni 1.6936833269286873 9.34292315402889 2.821101402134417 0.800438407274686 0.4697068661155201 -1.6460498115415843
Ni 3.0933115158368407 2.67260146864459 13.25458524513481 0.1746046441241896 1.217245340067381 -0.07449874253952331
Ni 1.0303673469222105 2.412143348603419 3.284049557202463 0.4931908081700732 1.9334490084617022 -2.7005065262830974
Ni 0.07787285601444807 5.920780476587462 11.319434143558317 0.9253479981665934 -0.5337566454075775 -0.5378683535831059
Ni 6.243809445255575 1.041256902625386 9.247796897098542 -0.17094416455346687 -0.24325078453767784 0.5210307132004769
Ni 4.251503494026762 6.134783919102043 7.528671186231132 -0.6721491012772681 1.8392553585964133 -1.3693538599715835
Ni 2.0865335645171617 2.5075499674964585 6.916438641188247 1.638184806971211 0.19147982261297347 -0.5829621605979508
Ni 8.123060827555769 2.7304284443266704 8.400924598055493 -0.2458416851933056 -0.8264739121064992 0.3572840948367137
Ni 8.75314184642212 5.589192112899462 6.291284380388116 1.7196661514761544 3.385114422149009 -2.0648303231208827
Ni 3.7075455853550916 2.0591472138570013 3.0076154470422853 -1.0309935986225662 -0.24637133244453052 -0.14302069867032144
Ni 1.2359877810821727 0.8512791806221595 11.241577997859524 -1.0165123742872557 -0.7916334073885463 0.19999994426884266
Ni 3.7787779475976033 9.073562149145992 3.9777383926173626 0.47076513217670535 -0.9392543238350405 0.04101835139389065
Ni 1.4757715272520973 2.058283847548054 9.110428818888918 -1.8411618315905065 0.31440837851911013 0.34924091281726305
Ni 4.4261727101863935 6.489209714188007 4.972060660316453 -0.7761363401942117 1.4064502506032486 1.0414538747239417
Ni 5.859258664443435 4.638765059378824 4.962658322706754 0.8546855986540247 0.2550621753503091 -0.9166998355732922
Ni 2.1861548963592563 7.48918285363179 8.223732124231647 1.0390689194315332 -2.4357968005406954 1.480305188911186
Ni 8.808824331594879 0.34216135174456225 7.678322274799554 -0.3659358569744407 1.4855553815665319 1.1511854723238302
Ni 7.184655917799507 4.6802066422083 10.869066999478287 -0.028302446489118997 -0.07945274411068896 -0.20772405238597774
Ni 6.015193760049777 7.512391625377688 0.5759377394357785 -0.36253840125711756 -0.27794756458891484 0.908979584110899
Ni 5.214946026742499 1.9405039726919684 11.637377606161468 0.2275662839228855 -3.1829660640785957 0.9400441667261875
Ni 4.97422464619404 1.0668236855806679 0.6490175199092637 0.3209469509685763 0.045814487230953355 -0.6593668619109354
P 2.5912500819208666 3.081317222598561 4.73865746967491 -0.07694643274906748 -0.5735704349704057 0.3761019988741652
Ni 7.364115424447492 1.7003581696828076 13.407633169535965 -0.21355557146609025 0.6251182251407105 1.207442495044346
P 2.7845420165294077 1.0699615115207133 0.8839441343282067 -0.7413315738102008 -1.3031566953192202 1.3108913449593165
Ni 0.8940910093355136 8.299920951768213 6.131673943688093 1.046308888823398 -0.7605220306957226 -1.6777031767808073
P 5.649256414177847 8.478628494211632 2.812622773640205 -0.03151761099230701 1.235548766362259 -0.4302368330453558
P 7.65000107481347 8.90637544099724 13.8275773272606 0.7012519321804955 -0.15858461454684947 -0.5796971166934339
P 5.622194986322129 3.0405811864301597 9.888440692161884 -0.017997722129001262 1.227090608292577 -1.078234019666769
Ni 4.423239121437712 8.614947535938342 8.001660384307323 0.39023663850333434 0.058057823374680656 0.6768624475925376
