# total energy = -340894.4647618353 ev
CRYSTAL
PRIMVEC
9.05887556075037 0.00000000000000 0.00000000000000
0.00000000000000 9.05887556075037 0.00000000000000
0.00000000000000 0.00000000000000 13.25858006833728
PRIMCOORD
 96 1
Ni 6.34144846427565 1.7827142508731584 11.40590527977627 1.054392694272797 1.3252856660077756 -0.4954598067099081
Ni 4.452962781671552 0.3515523155959597 6.133737505200734 0.31150765993254736 -1.001956330849952 -0.9557428084083669
Ni 2.7406541121115877 1.8130705430734304 4.610034626034584 0.6464650662476028 -1.249504971432035 0.5424983961559495
Ni 3.3813612080377733 4.273977517185435 5.042887632651069 -0.23524668328627873 0.6019831817851439 -0.41165881293285234
Ni 5.115393061332817 4.5325631217383355 2.723338977252859 0.042912997313442225 -0.34214698208495914 -0.9804739926064597
Ni 7.1641211947667 5.9657859512189235 2.78125236908704 0.43194430265476574 0.5353774688404521 -0.9915554472316019
Ni 5.082373459700471 4.549865574171197 11.34157548634094 0.0896206857826263 0.6044331859875332 0.05673036281250875
Ni 5.823869605766981 7.815925413326528 12.402261114853461 -1.5638835251544745 -0.01816792915827839 0.420547887892366
Ni 1.7749779710942768 6.738489923793921 0.15402896804250885 0.49308230761666694 0.1465456811044444 1.7626665662970806
Ni 2.8156887788662446 1.8823347060585933 0.16518497336767599 -0.03506470491361703 -1.168632464155684 1.8733466438531674
Ni 0.5495421952438044 0.07958946941604025 4.650433587746411 1.459904513767647 0.6434399062680338 1.077514882112557
Ni 8.792626205972526 2.371015751341697 1.2760486198230598 -0.5059113410605351 -0.24033849598688933 1.1830980047617108
Ni 6.972480681040422 0.7925845810091107 4.914809625595167 -1.7888218845362096 0.07590590729969508 -0.6351851224584093
Ni 0.7109052289876979 7.697779557499626 2.63282269206482 1.1476350359684104 -1.355751952917433 -0.48565619035592483
Ni 7.460536663905795 3.846833413984232 3.8112981625924065 1.3785103296598709 -0.6933923269267607 0.2867520502544223
Ni 7.8381015408425725 3.7341953545338638 12.682044488355523 -1.8864628695201509 0.24680482043752336 -1.4408418407092412
Ni 7.918354119953945 -0.042096595002884096 6.8830596139147575 0.6065540889852779 -0.8936365259959255 0.5781102318222883
Ni 6.800262396641923 0.6861826515350681 0.2660519298383266 0.9107986395975087 -0.33875312591206175 0.9622988643593297
Ni 1.7304083030473238 6.543198683193065 9.335485668671973 -0.09332590254835539 -0.5822970162101262 -0.5285658452352574
Ni -0.09156711475987787 4.925093261198196 1.2467522160702456 0.721073594892113 0.2884204390957807 1.157211366802936
Ni 6.314987488591676 1.9629768168215962 7.1639952763955925 0.39495049903923596 -0.04843855511736174 -1.3131192058485708
Ni 3.4652554551481045 4.37721246374297 0.3576724919643583 0.1664287931816166 0.7299269315176848 0.08336416334995321
Ni 5.784092082922637 5.457193497324601 4.826335210971718 0.47351544122833295 1.2890009726441283 0.7487525488646202
Ni 5.408003802711805 2.7481820377512256 9.176860227140233 -0.766477734058525 0.35022718798993235 0.8268310383356018
P 0.16081044233111633 5.5950061721210025 12.401731170629732 -0.03227531509393796 0.3386171145548298 -0.1421123279234391
P 4.090517168143385 6.172826553498012 12.483298192593466 0.05398365330530703 0.5796132987303759 1.409623763235224
P 2.558000002999655 8.504952551806056 1.5380349262834447 -0.23877937902988552 -0.20458370698478315 -0.4089023332336377
P 6.286542619147077 7.830301848934356 5.916309996136559 0.1218530634537708 -0.528648891867367 -1.6297986397900446
P 4.80841494322162 1.0809412743972762 12.713519551694779 -0.9293491489061865 -1.9945121943216104 -0.41233706994679953
P 3.854732753524261 5.988405963640315 8.389844136974304 0.6803815164893895 0.5369054754492043 -1.3775132558539243
P 4.892263895953854 1.1024017507393962 3.896935337371891 -0.3505408625756092 -0.15556202567044175 -0.573389172197535
P 0.19365067822620036 5.643588922067305 3.6586923439096894 -0.48039674172919844 0.5831308249653312 -0.7157843214687156
Ni 1.3646199644156354 1.1269875391701747 2.599384570378862 0.5262554519345259 0.614198235794097 -0.13373490249302128
Ni 1.9055797808977153 6.449892264314282 4.868179063344823 -0.22892048395793477 0.4312999842025475 -0.6516255274026197
Ni 5.990498563908373 5.509807446921492 9.13529448224864 -0.5489667774891126 0.8997642361602182 0.16666456334150653
Ni 8.663238285502073 2.3077304462652717 10.344397105357515 0.06811880715510849 0.1841202969241087 -0.2553282845275022
Ni 2.2520274200821997 5.201099083567008 7.09058214837679 -0.5750135951748355 -0.133428426996196 0.08063493734424823
Ni 0.5080878745223286 -0.05014993542844122 9.179604160565317 -0.032638097749995404 0.6045668833519201 0.29630524116049617
Ni 1.515278124840203 1.0877716666142279 11.48547029022814 -0.2741693284934052 0.1938866322822532 -0.2278953851275301
Ni 4.314271395940079 6.710633881264575 1.7141883862509684 -0.27612259556503416 0.8513182248436888 -0.9611351830685317
Ni 5.643299038047487 7.782162983893399 7.953344932921051 -0.9982431436644229 0.26169690705800736 0.7294060260172083
Ni 5.33062288717175 3.0413816060454684 4.769668320422752 0.1603134243124981 -1.2336019270485334 0.2752101110530938
Ni 0.8499236401290278 7.614754962448747 6.960184163274786 -1.0829417095550833 -1.732077380656314 0.4049644316318123
Ni 4.943183835809936 4.448388049483806 7.078331830876812 0.360707775806282 -0.17581486238220687 0.07915115370987015
Ni 8.158559265875288 7.146438269557828 9.217590743699725 -0.014335185675749505 -0.36966189967577623 0.44355103365575865
Ni 4.555427723801447 0.2273179894653264 10.62179346513389 0.09873061850369448 0.24635256339145312 -1.4611800380459607
Ni 8.144527067540993 7.515442509034368 4.508978339063489 -1.136806577894339 -1.7816593053494991 0.8332719088649391
Ni 7.558807346623954 6.437155485193546 7.055169191805826 -0.24800372584163097 -1.2166686416283046 -0.8565542764316475
Ni 2.1765398095465787 5.548362021557229 2.4317826889959573 -0.43481391089307697 -0.3205546006261641 -0.04099675412733585
Ni 2.2881995104300623 5.399008339221841 11.528508102407867 -0.5584451492931931 -1.511068952456604 -0.6548309217137949
Ni 1.207249177157167 3.5814898882193344 3.7563542701862316 -0.6388450878084998 -0.22777737149242708 -0.31041725508184603
Ni 3.7274464921974855 2.6330980818836465 2.5102869051128054 -0.04315750922408051 -0.5757052219252214 -0.056224112600051564
Ni 1.257390053709989 3.274747300874239 8.351168173405268 -1.3777359133876916 0.13171504384951507 -0.3653208490982612
Ni 3.512742081144472 2.3088356290908263 7.1303977184987355 0.7567430232692645 1.4504932477560761 -0.20010407394687474
Ni 4.019250993646357 6.694273551896121 6.061822715209365 0.615697703157759 0.7222717289652723 0.18603165501420865
Ni 0.6465835885404249 7.590286939401019 11.35479419764462 0.6938098740801535 -0.8713306634098736 0.45687988955418085
P 0.22919951793145488 5.4387133910612295 8.11138698286291 0.011071684433129319 0.49929100753054007 -0.4591558300725512
P 8.553462830747405 1.705025333562047 7.935764373006677 -0.042608064478513716 0.28263417143130676 1.241450733668991
P 1.8829597684763248 3.141545593768061 10.582335720598907 -0.662583311965704 0.1188584996018211 0.3269689887929401
P 3.863655746009271 6.099567426364737 3.7338021993319863 0.325761084527768 0.12080585313617904 1.3034143198559809
P 6.884709235165031 3.870975317509665 10.404962030085464 0.8548275235485279 0.049782727850082004 0.2963080693739735
P 6.223701198975996 7.774381409736422 10.077528970825888 0.03993488852172477 -0.8288177297483275 0.7769871182302812
P 2.380400746483291 8.45887005153068 5.791798468411976 0.7633229904796273 0.18819652387601138 -0.6052734225006414
P 6.972018678383839 3.9797905314486886 1.5246178256037006 -0.5047479168800533 -0.16207257309544992 0.0687412712304558
Ni 5.258097528963639 2.8198196261486452 0.4247833602148137 0.7779196573468796 1.619265344358889 0.3876395672001195
Ni 1.4555257812553044 0.8770576902715151 7.165056070730612 -0.08609776023103237 1.3584942915492604 -1.0268399814655091
Ni 7.048475588610725 0.7036381989658961 9.257776821834499 -0.9643894283397714 -0.3208798451760667 -0.5215295072137662
Ni 2.682351188625777 1.5275529013043534 9.19857706966238 0.5631479540855011 -1.0946412573801985 1.26463077132988
Ni 6.375020657320773 1.980795625164758 2.388546487440165 0.49606273040122945 0.16759376002399523 1.2561325040508817
Ni 3.9366702835008236 6.8320771678169026 10.425724973004899 1.0689888469194169 0.6597445569653283 -0.578133885971372
Ni 8.259176197378846 7.23911962601888 0.3589670052903562 -0.43105495807127703 0.2398967804637804 -0.1714110768875564
Ni 7.547991049134511 3.828298954467145 8.238510184428538 1.205916288207807 -0.12100177119706902 -0.3392388072992286
Ni 3.2314639931652267 8.457755809829507 12.450695299239607 0.051486597915066164 -0.20948757204430374 0.9307915377796679
Ni 0.11802718455628934 4.762060676677665 10.319431750038289 -0.3654239503350287 -0.25683932185538993 -0.05493470436466669
Ni 8.814376566334465 2.286442088559918 5.674924478722023 -0.03590596986798977 0.8641287463447958 1.5366231467766245
Ni 3.867786593291671 2.6770517463884866 11.50368768909855 -0.7387121339094826 -0.5148937470648036 -1.1813170016018881
Ni 1.0754515957719808 3.4032383926583814 12.806396579869208 1.0844362918227388 0.44096578942708575 -1.4254571307230548
Ni 3.0262079893831424 8.127713794391573 8.018259023833826 0.9984305770848806 0.45480500930302314 0.3714261906650506
Ni 5.804873143593309 7.990861360410817 3.65777739747214 -0.5051220123900203 -0.27998953471960814 0.3500161004203908
Ni 3.325875594869565 8.53165811713175 3.649012935310468 -0.5377979053564867 -0.5007840471362989 0.6116405023692498
Ni 3.345035116804383 4.177029430307694 9.383918947170557 0.5767889419077034 -0.07363485187733126 -0.03466001327603063
Ni 7.163025070816765 6.10496651623384 11.358214829078468 1.0986100122199594 -0.71232593060647 -0.17808360381172555
Ni 0.8011959481728166 0.07353270517697671 0.4031054708578304 -0.5002052918146933 0.10282921405310033 -0.32367206320922326
Ni 4.68675424365443 0.21232736209050984 1.6252628396216782 -0.3042599772311986 0.12027029234768319 -0.27943314799550584
Ni 6.047370185046335 5.566226124278488 0.2225448679015176 -0.03464407243643066 0.02502326151721497 0.8767351222548966
Ni 7.776301891367712 8.68113862372581 11.312061669573263 0.07482167309658083 1.3511648477673825 0.6081515153793848
Ni 9.12953484912989 4.868801408099869 5.720958061069054 -0.382355950203677 -0.4008781773775806 0.709106652338224
Ni 7.919549891535693 9.009722160189035 2.4737995658933913 -0.40836445845229674 0.4906436162681872 -0.330175925766012
P 8.449358232130416 1.7351189183693596 3.6923551257110057 0.5233819870414729 0.33328001861263246 -2.7169759846930304
P 1.9329647618948576 3.4792695357311607 1.59304494848164 -0.8329304663651204 -0.7362641865896223 0.34999553159510044
P 4.709283667319627 0.8167618141494587 8.319241978060171 0.18059274338682446 0.27795579211903104 0.28945865055230796
P 8.550699873683518 1.5769418911807738 12.474958591698341 -0.13563957571490187 -0.736511526713738 -0.2425442453889565
P 6.39651736916537 7.620860644616155 1.4606313635543415 -0.023215518884514855 0.39675798456161987 -0.3950489722903132
P 1.8147373761873817 3.0817751324319245 6.068518130179589 -0.6071827237082124 1.0225310696775098 0.05947758654034273
P 6.949190311823204 3.887190704868211 6.046111001335252 -0.30487138556295235 0.6421150168090232 0.10533732518693471
P 2.3325155299596747 8.457420631431592 10.296905044035775 0.6224141959459861 0.6203588560788541 -0.10512160963170282
