# total energy = -340890.21157967916 ev
CRYSTAL
PRIMVEC
9.05985339623014 0.00000000000000 0.00000000000000
0.00000000000000 9.05985339623014 0.00000000000000
0.00000000000000 0.00000000000000 13.26001122939862
PRIMCOORD
 96 1
Ni 6.5206665071734875 2.204343904667118 11.245762453466797 -0.11808279777806116 -0.7011508878262569 1.1866818654582272
Ni 4.884801232504223 0.35452203481136935 6.048156187755874 -0.03519146029946843 -0.33266655339834966 -1.7603047509331233
Ni 3.0979172591970277 1.700045277137985 4.643244699497198 -0.4154787008995748 -0.39473658325621697 -0.410762269260512
Ni 3.6112032614366307 4.306746337315879 4.241413921477025 -0.7975420595634974 -1.1904215350063176 1.778127123826525
Ni 3.8129027807704983 2.5184399670030952 2.4058033378822077 0.49981551257544243 0.2704170605398246 0.5861881237344162
Ni 5.004237281705964 4.7302220114255515 2.4605148874175486 1.1680251695889885 -0.384283506243693 -0.6882295517788986
Ni 5.182951952611947 4.866799303522666 11.24853386266431 -0.4581381874413142 0.0671728983020714 0.5031183516964303
Ni 5.7769703097356215 7.979456944427289 12.216541161898132 0.23536289714916883 0.13637748232219093 0.4259685446873051
Ni 2.1056820996297994 6.88546150991248 0.08729440680221068 -0.824787782653328 -1.6981275060734302 1.7214656665787387
Ni 3.0427155715852385 1.8647443546194737 0.253586206535817 -0.0685641222226432 -0.8298680253897126 0.5905800821545248
Ni 7.761504047844849 -0.49433097666576664 7.142756820487073 -1.1091859879635928 0.8031918016501071 -1.413318695588308
Ni -0.44976374513779815 2.5660313776423087 1.1058357571046418 0.23682431218604377 -0.05538156209409817 0.6125203338710419
Ni 7.167603468817179 0.5261981055030728 4.765647850732891 -0.5704673705650498 -0.3318036911774221 -0.9506633370029305
Ni 1.0335571515576056 7.541521744069723 2.279727322021894 -0.6646525357899069 0.1328483861230099 0.2095215106060327
Ni 7.806794255685213 3.845971246187047 3.602732298377871 -1.1985909581909875 -0.1913939477673865 -0.005894253997247913
Ni 7.7774312703660256 4.079253414957103 12.517000332687536 -0.1757295017572522 -0.1071923761178025 -0.16084718532878106
Ni 7.980951820261188 7.083953841093619 8.892163803645749 0.6421119314852296 -1.6672177038684513 0.37156374468417946
Ni 7.074413815317284 0.7083183753542823 0.26558326459187 -0.3597546678643933 0.4116978937009038 -0.9780478996634705
Ni 1.8272003215547676 6.7314711793138295 9.282737713643987 0.37693246519526047 0.01760614311753742 -0.9483570574672571
Ni 0.22557948129138516 5.070646008145225 1.1297619243152068 -0.24998604637898236 0.01153653988468981 1.0066025713727116
Ni 6.810962334263089 1.8929295589786195 6.694634720810503 -0.5308196742664406 0.5020590571939805 0.5157674079190085
Ni 3.554470458576788 4.495553685064062 0.4514090145404407 -0.4419258393475099 -0.048063174055814 -0.3139684627682141
Ni 5.7902339353163965 5.485650719196138 4.670335473548859 0.821294939008721 0.8752202282722669 0.6125714988239515
Ni 5.305839806011964 3.1168885925072334 9.316457582529974 0.46431629122756807 -1.25710823770059 -1.1147120599881446
P 0.40282011402660756 5.564408026008756 12.299376308788554 0.7112774347372977 0.7841075313251463 -1.3934096153692066
P 3.995504128844617 6.427803008400988 12.489419420559427 0.9682692230101517 -1.0343769132725025 -0.1956090142899986
P 2.4368106866186836 8.799717964121388 1.1762108874231798 1.6190866526891794 0.07695697427202876 -0.1374483467888665
P 6.323986146700103 7.60320122696174 5.57144572023768 0.6799148612656162 0.18505952090892644 0.6848385238194786
P 4.92025243940147 1.124056028556483 12.347590131365882 0.5590663278169599 -0.0006833992202697907 0.9412965510760498
P 3.936479183039463 6.526528232413078 8.278596094556095 -0.2999821757914511 -2.61325485495328 0.16062298513311693
P 4.960795283987513 0.9091653624701508 3.7402246356824023 0.2763740494542079 0.12210297468104778 -0.9043269158302361
P 0.48255769699212153 5.719666736102836 3.565166521664672 -2.3714706276587996 0.45050792458956607 -0.0544906748487126
Ni 0.830675321336927 9.673386820426597 4.514503274725775 0.7115224608685681 -2.212965203089318 0.13517420604270913
Ni 1.8296464820102383 7.052733585798983 4.705540252429852 0.5708260394560492 -0.9922247053844847 0.0885945585109571
Ni 5.972246392910494 5.806378594322503 9.19140261216348 -0.11287220011139915 -0.4100693569585454 -0.0050571028079332255
Ni -0.3799303940608789 2.552187921435052 10.091306086360936 1.0793210820833605 -0.1415626260675562 -0.5178579718994502
Ni 2.606266187208032 5.346246752794925 6.859390875369285 -0.7898650026342139 -0.7161159937765215 0.01316199130325475
Ni 0.10543948146968006 -0.06545019393485729 9.08495114505352 2.3171902690486803 0.4398733276938554 0.6092689168132798
Ni 1.795173739295179 1.2595189586683273 11.553726806927727 -1.1225498108650087 0.9348453961340675 -1.122620001981312
Ni 4.02683310238172 6.871083522346436 1.5035261820575918 0.5463933603349816 0.217321980487058 0.09040101559207656
Ni 5.502076233661947 7.946596855642133 8.12497902992324 0.8237691115808264 1.149611185858175 -0.2715126075968486
Ni 5.517858498526502 2.844966148394279 4.724210798602571 0.33855772207180407 0.09171922018286785 -0.31948116505632723
Ni 0.8568302125180322 7.884627457436875 6.7806390044687905 0.07184947784213433 -1.1495039708563493 0.4911092430506962
Ni 5.2749366455911835 4.723227804493614 7.1336870011094 -0.5634228050134426 0.1930988462736352 -0.03272808636064041
Ni 1.2468804629817287 7.648237758903017 11.499532575029452 -1.3929429601454333 0.4014535902650764 -1.8206793953664386
Ni 4.761877139690051 0.44867293877172904 10.0834829028302 -0.19362900774549233 0.5471708619309545 0.7893209572052858
Ni 8.2558549561884 7.305748115576502 4.388015941514801 0.8179234514333268 1.5162504966575434 2.904427145762585
Ni 7.557548624979826 6.062564072838596 6.7597288625012855 -0.16103359030797426 0.7368223730859375 0.21347252483398071
Ni 2.2419604165601337 5.408768802066048 2.6423751394721955 1.9600784381237726 0.3814084986887431 -1.5709867118581589
Ni 2.5806721009609777 5.03146214159 11.356032648843355 -0.7683885779279928 1.09169708715021 0.017669135144988926
Ni 1.0606279939314815 3.509868799605372 3.6141884831776587 0.9086684806283833 -0.7092061540305656 -0.14023722238791334
Ni 1.504125944361859 1.4065150823350392 2.262038863972779 0.21746724781567062 0.05450867257084161 0.32502317792047897
Ni 0.9820337644825616 3.267399939346993 7.824533448914145 0.30780604271124407 2.1049996962509168 0.7443361649644794
Ni 3.86265949640548 2.823439936386137 6.591114116320337 0.44214206912337406 0.1999060990034557 1.3813871369870339
Ni 4.178105476918736 7.051175290990312 6.063803460802701 0.07737966363174416 -0.09977371505622816 -0.8317932674368836
Ni 0.6293916492804892 9.378035595062357 13.433187081650242 -0.5132050465084709 0.5513219079848505 0.14041385717509366
P 0.503755036316806 5.55405261341393 7.696468795202068 -0.047927676919214235 0.7616486881009981 0.625325198945194
P 8.76160316028374 1.5128234037590882 7.736208936764575 -1.6814968394952847 0.6066530764569875 -0.2775832392709607
P 1.8445771206421486 3.103815223850774 10.30597297406486 0.21319638835445867 1.5200583004394077 -0.23372484732511362
P 3.957434624274662 6.351863316038931 3.7972690975039787 -0.586867409189628 0.7858093445076014 -0.4197390188378255
P 7.008140986681105 4.079371193053107 10.299329383464872 0.573300983359103 1.652819011944618 -0.2602180085196357
P 6.677211716470073 8.12482229445702 10.160337640399675 -1.7858761716443243 -0.5732906989464579 -0.5435219523244575
P 2.568821812532253 8.879435615409117 5.696965461090714 0.572619383911046 -1.0488956757139676 -0.5212839668618635
P 7.109375790123437 4.136520749175734 1.5643766883508103 -0.989480052759812 0.21092379027019803 -0.3458802238751463
Ni 5.4456967650901165 2.9133499229049935 0.4588272226179941 0.2682509061264412 0.009314078312074281 -0.459413454609312
Ni 1.6655906541300032 1.3048544657763843 6.906105292185945 0.3141875207575556 -0.06911356696821 -0.6654686039332991
Ni 6.888106987145804 1.0428344415813167 9.115899604741992 0.3760469772665137 0.01672528317448087 -0.914148015685716
Ni 3.057555611681761 1.8387606946702515 9.03875313988857 -0.3853381727604525 -0.575992414148337 -0.36166705439575775
Ni 6.486837014059682 1.8157033674140555 2.4204032918599525 0.20046942770609347 0.538170458204557 0.47952436642657414
Ni 4.218349346337998 7.262813469656222 10.453781766594002 -0.3729552257150674 -1.4629648978605254 -1.2903839690345842
Ni 8.612414552060644 7.315804553004549 -0.04848743015419876 -1.2832460724382224 0.07154788744131549 1.248464703092979
Ni 7.468852658835165 3.727323404243179 8.162147079066088 0.7118451343153095 0.5315370120484395 -0.19512590400599297
Ni 3.389735141681144 8.612758826495117 12.250486621137233 0.034631731141256485 0.7031208670684342 0.6110720314602895
Ni 9.244130959759183 5.119686995350643 10.021611351043159 -0.10960509932435315 -0.9767572058765048 -0.11888832439849203
Ni 8.797679497075162 2.343566673997556 5.352218102262334 -0.5303291077832674 0.9796309278798743 1.0254806392241371
Ni 3.9312878869617416 2.826937039852106 11.488062800449356 -0.5608486165283632 0.3299584104385672 -0.7914742561028628
Ni 1.2882930535074937 3.5051848553258225 12.649440895658843 -0.4392755462088564 -0.5060221556067866 0.07521556610088982
Ni 2.978336252338665 8.40555091620967 7.838735675321537 0.4631389830900153 1.1422622016922717 0.8241396075463678
Ni 5.640402077492046 7.769023726282037 3.230058847001555 0.36358406891281253 0.1667136714118871 1.0348008881837987
Ni 3.1227231381862084 8.536628877208745 3.3271886308054657 0.7075647617724008 0.46513415914317313 -0.09217816209715737
Ni 3.485805828606371 4.364756579524689 9.235120935414866 -1.0695084668683128 1.4015630977142766 -0.9044163902202488
Ni 7.4337638460794695 6.281277997118293 11.333836007673343 -0.25959503022365615 -0.310263246002485 -0.4617870970478112
Ni 7.943262829539862 8.5528550748967 2.3284312826756697 0.3501492835641453 0.6296883610098962 0.216160356078789
Ni 4.862495873091745 0.15281707956537824 1.4193782623893996 -0.8341501977048343 0.867414616184919 -0.777298735933429
Ni 5.896859351614302 5.4398440997040645 0.24095858267346487 0.37460073173829034 1.4652218122155023 0.24452553748504338
Ni 8.175077302036636 9.041489215657283 11.249939951933529 0.8092873730248836 0.6011408883895067 1.3001436195245093
Ni 0.11272541568556724 4.811833172102886 5.468932571461027 0.8879597873261224 0.19005774545446621 1.336067587114628
Ni 7.4921546021369085 6.181673967312942 2.725581740357708 -0.8987273102552716 -2.0698606864559386 -2.9549282398359304
P 8.509322478642861 1.4002184841255867 3.1081992869781896 -0.2333828906046626 1.3023501402575248 0.4129505351610824
P 1.8846126134300192 3.5313406524922812 1.558330142099028 0.6847565056286335 -1.0865985895813801 -0.8462536658365877
P 4.898363833251777 1.2094270284524105 7.905433411088684 0.5827153346944675 1.1376601841438858 2.0962571741715963
P 8.557067906792232 1.993811028132939 12.19330988545399 0.3658841778008989 -1.3235625126690818 1.1495937023566782
P 6.541322973241907 7.7336993573343324 1.0195651137523132 -0.516460320220975 -1.4059064622846367 0.018593446731471203
P 2.053144008958412 3.426799002508295 5.611265588511328 -0.9366353981549547 0.004997710324907522 0.9300140361836952
P 7.026287873319283 4.156787641541985 5.944025855122547 -0.08463428831162843 -2.05868667211699 -0.8370735419992165
P 2.2870694273297216 8.897899596921151 10.05688317284034 0.6108437174995673 -0.8139279571206885 -1.1437233596188303
