# total energy = -381179.96485321503 ev
CRYSTAL
PRIMVEC
9.11301527294535 0.00000000000000 0.00000000000000

0.00000000000000 9.11301527294535 0.00000000000000

0.00000000000000 0.00000000000000 13.33781900966473

PRIMCOORD
 96 1
Ni 8.634363199402536 2.191497897775059 9.088976898787042 0.10290891825110018 0.8055500174696384 0.9757503618785454
Ni 3.1633280658328093 2.1065190309389297 10.561551760525404 -1.2874117737801378 -0.7684502844038638 -0.2643258600404222
Ni 0.5470670612961314 0.22852617112739262 2.7203945180433555 -0.7311883147286118 1.3954168756072227 -0.3094973143707379
Ni 5.1483068129118505 1.7434929570210682 11.737026834281842 0.36494495381608116 -0.3587789342146853 0.13157800405101855
Ni 1.814346650281219 2.29512199373148 5.829039936106707 0.47360131607391986 -1.5634076139593203 0.8666772237982623
Ni 7.51540340077435 7.977952713803993 6.814998922946521 0.9050136574846155 -0.6952892868391574 0.6237092606083259
Ni 3.7750665508704184 2.888461301059476 4.611217591969487 -0.42356713433466414 0.0856709571062589 0.1986452300131611
Ni 6.603728246119847 0.7191326353865348 7.731293465011128 -0.23605529523050314 1.8340493889154412 -0.9527032502510947
Ni 0.5053895975333051 2.1676126849088395 11.632898788584288 -0.18491528202157834 0.453009093744865 -0.528425205892335
Ni 0.9093157950165532 8.819357408171804 5.094232914558441 -0.9575487512688541 0.12979751511182808 0.4997059835807716
Ni 5.282231684442549 4.531373909204366 3.8731289736439884 0.3989081981354033 0.08198759471740072 0.07925374072600544
Ni 5.952803795677911 3.984711465783572 12.473008523490716 1.1342403598290596 1.0496055572967986 1.020663677451468
Ni 6.031512908049349 5.927888812092927 6.824974940697246 -1.2420742261856028 -0.020149992585313685 0.4473524096797199
Ni 4.571225124719047 1.574173134413531 2.144574982457179 1.4036179233607764 -0.25880570155314137 1.0419421272142702
Ni 6.066962537217449 0.6881228672288962 9.977102199535064 0.5567667331495056 -0.7874306821611083 0.710472422337499
Ni 3.7444923848398326 6.0121842027882835 10.239043063534098 0.6439528413487103 1.0755423317672186 0.35014311291655825
Ni 1.58743257154453 6.725341434101419 5.854141736503503 -0.31766776599667224 -1.914605393392638 -0.34656773686047404
Ni 0.9508246679979887 7.713602368583357 7.7191157427855925 -1.0074497498643553 0.6283701564191049 1.8801610956718393
Ni 9.040174879732797 1.6324964317595072 0.6930821701063461 -0.5037487861915776 -0.610554982614555 0.030198120849935086
Ni 6.298332880391979 8.691082606071499 12.554595526065567 -0.6649731523541192 0.10932253508692785 0.09776774036979291
Ni 7.239707351616878 7.155065666343529 10.973383498703594 0.46823002445967743 0.21920171400827407 -0.10910219154600563
Ni 5.262483780481809 3.6430462995186748 6.360325988963147 1.3223867471934259 0.7577730071956756 -1.432686044371326
Ni 1.4251844487401926 3.6845287447560002 0.4469861056534782 2.356251753826516 -0.2741880975464826 -0.38698162190114643
Ni 7.137277060653007 5.968596651037377 13.261286161785469 0.25638886458153265 0.7838522207812307 0.6916660882642733
P 7.584270456718654 1.3137140466876953 11.82088206634254 0.07114011047993554 -0.31238800565497166 -0.33070685856881754
Ni 0.8352907724632148 4.929539769773178 2.854053289529913 0.19690742138644796 -2.1926051513757274 1.1999112196643076
P 4.029465483481399 6.198390442580523 5.8869932450351445 0.5012126500332852 -1.8731185870027611 0.11793521645660335
Ni 6.460653907318 1.9420746714689072 0.305709764752624 0.921160185337491 -0.7875769779309856 0.8834025069727433
P 6.30837542315374 3.228103377947684 2.0264548132057194 0.9668201492684511 -0.2301852096029713 1.494324900229046
P 8.736966637655403 6.1588764086286245 4.782448413866625 0.23761158397402954 -0.1365839419060422 -0.2608610414202733
P 0.5660367137579102 5.479409994548 12.848174044970229 0.13880151838265128 0.23311909542031461 -0.9191503539963138
Ni 2.7611433655562516 4.355201099158676 6.707161880058374 0.2818978074859145 1.3713827174761544 -1.0032711930066336
Ni 1.901275702372355 1.0811498985206147 8.968162922239415 -1.4236288192650643 -0.13257816318075877 -2.482895810911027
Ni 3.5752819184148183 5.1861167130194215 12.550340659263876 0.895085085516994 -0.6804056848591056 1.182064935511506
Ni 8.442707376514532 4.023942996263951 0.9537089373120514 -2.5438124438907415 0.35706400840610764 -0.262331969538845
Ni 1.9618499144752775 5.5654824232093665 8.758199051793902 -0.5408480050367203 -0.9447793674183277 -0.2262920451961522
Ni 5.09898717459366 8.845329501521185 3.7728958306473226 2.0931649083995176 0.9756536883996809 0.8922003077700311
Ni 2.3226797517274544 1.3434042502428813 1.481978582133879 -0.8688701176845229 0.8298184030986999 -0.5637472782323969
Ni 0.539177012727046 3.6541094999839894 7.458895416058267 -0.39323891566476793 -0.11621540555201922 0.10584228984781126
Ni 6.80448797120295 2.961921316669775 10.248019383516251 -0.005687537303080527 -0.12441028265798573 2.2106769212757733
Ni 2.6051194321405546 0.02479469178420817 6.73609205814502 -0.6733729463820403 0.30160428477590634 0.026253277269574143
Ni 7.451502938119664 5.193470916294141 3.0329536250280476 0.6268940860942107 0.008770289993462315 -0.4095145128963399
Ni 8.059787590392567 7.6674176074975104 3.292546976308904 1.16741273281597 -0.3415404588492118 0.28306431699018997
Ni 1.389014891370477 7.2912779046920155 3.3642381556668823 0.19440162424545873 -0.924081472749344 -0.24694314578760052
Ni 4.14961147601411 2.8300195345157655 0.21748939840618764 -0.5072588562273651 1.2221034394906307 0.394140858653747
Ni 1.6930341918015885 8.133110910774711 0.9837572823650027 -0.22080659660154875 0.2911427231229502 -1.0816772410203628
Ni 4.922003306194252 4.681793338265723 1.4648397344278512 -0.4638159545523819 0.6918311530872279 -1.0375239435419166
Ni 5.833769591000857 7.750391610987372 8.705887610582165 0.17690732411543725 -0.9695763718573496 0.6645797735704425
Ni 4.53177488187362 3.787159522054498 10.860198938490038 -0.4422346288371803 1.3221239804503424 -1.9751031936673789
Ni 3.7705464953261054 2.2462580061738047 7.1947127503175 -1.0039237389889677 -0.35241365411828984 1.2557980035295986
Ni 1.233729112186815 9.06477090778542 10.85204916898746 0.5409806739598425 0.5121128418855567 0.8029652874615977
Ni 2.567701391687027 5.84887897021955 1.4876605471175064 0.34694774590771216 0.23811140642858344 -0.18633607362850488
Ni 8.727671362140887 4.914977171467105 9.519601496931932 -0.0739392704916275 -0.7900040993152394 -2.0072095872836204
Ni 2.72834562381435 0.7268632061894398 3.749314081187607 0.08194748550808467 0.202685975741438 0.8782870401230487
Ni 2.98302705989685 5.458823693187913 3.9885279965536498 0.3915396735854741 0.00516226092722982 0.7122071456404186
Ni 1.822721511259493 4.3623821551444 11.269550113927982 -0.5596779932590297 0.06348902169258099 -0.7954687219742365
P 5.037775051426016 2.436847606282203 8.954931735455569 0.10631820104296527 0.42389212177425056 0.7158213453542381
Ni 3.6200085970670144 7.2267121919269774 7.8176155902892575 -0.7610496210644183 -1.8277640701273619 0.33693818419051
P 5.463562461097274 6.290040036550598 11.892759151210807 -0.7634114364283755 -0.3523010397998255 -0.38413901024602876
Ni 2.4508087455843954 7.17394783385929 12.016174893600978 -1.1537316357844516 0.18009240671163823 0.6024755480405302
P 4.10505794465091 0.9665355062205612 5.556842373488473 0.9652980561969697 -0.6249732149224141 -1.4565042298368462
P 1.576861473900572 2.509842858116776 3.5699608288335196 -0.5092375772202908 1.2353111964301562 -0.6190689336228371
P 2.4288554919427616 8.00473586550709 9.488751206540474 0.009543420714060983 -1.1708564683901965 0.027686410171674898
Ni 8.82630152576206 8.56692688684625 12.458670105358816 -0.08026932647471337 0.0958772082152994 -0.50499320012164
Ni 4.301817056056688 7.11789367730068 0.3696813089259497 0.15647373885143373 0.18753163659850286 -1.134263756867827
Ni 8.31073269023884 2.7564228236773114 2.992299552873339 -0.4789677225921558 1.4487533822468341 -1.9152111452974372
Ni 3.08631397429049 3.6312905098973767 2.492358627134278 -0.6322424948903176 -0.23859940180859554 -0.8002432605447445
Ni 5.761512493398319 6.622974934244019 2.1700367469547817 0.820303007409097 1.18501604772003 0.9962245705724971
Ni 3.5420102998819814 8.104040392253825 2.4671101071925965 -1.0369570152948528 -1.2242965904872078 -2.3970001393884717
Ni 4.335316499969783 4.630979165453041 8.36107845406971 0.6183022306601417 -0.35067790237410573 0.5631242999364172
Ni 7.252702511306778 0.6896520311811859 2.471138059915553 -1.144930235442738 0.8934588627674807 0.2703468694235215
Ni 7.830039363925471 8.147463909730948 1.0896295591738072 -0.6884020728010208 -0.2122139698365313 -0.7763402286749017
Ni 3.3183495675753725 7.7668588294724 4.725855678109086 -0.3304793159390437 0.3886433258742855 0.6994557595120212
Ni 4.127712900463738 0.28156847615899494 8.592769575379645 0.46104790488894143 0.9804104863583762 -0.08220948092021972
Ni 4.010118552189914 8.708388221955873 10.861185878037315 0.2559106393935334 -0.29404575570235814 0.7394256150367394
Ni 8.285908836805959 9.071058888280533 9.369017122295269 0.6389561594650673 -1.806235966247599 0.6679625739997463
Ni 7.245138708682222 0.06653230144742245 4.943062573043755 0.8612341984058199 0.6056081801322409 0.09053317029456667
Ni 3.9476852849840878 0.43485485980551514 13.28648182623893 -0.5421484690156986 -1.1702332329839007 -0.017561405922531047
Ni 8.321449596126163 5.810203333666999 7.005876494335565 2.064921083062476 -1.4129235170324181 -0.16592742806516583
Ni 0.14006886638548824 6.3680292207204205 1.377276416478078 -0.6530491472230238 0.8286884032593147 -0.8353611872938
Ni 0.9262559789909962 4.280556391571037 5.21596730564231 -0.5664289388296181 1.010151979286867 -1.2530633782072549
Ni 6.174969993490029 5.319358108409347 9.78750500678307 0.06739709849773554 0.5467828824639163 0.26095951467135053
Ni 8.13985454203034 4.51613694777273 11.581428478676466 0.47805446674926694 -0.1924200750390557 1.652673230395373
Ni 9.001362547952091 1.8076212450560114 4.745329280311996 -1.0981310157010118 -0.9260923325317856 2.1747393268389
Ni 6.388970929673711 6.9781547020658055 4.566695956159522 -0.9336919992559146 -1.5670446964912752 1.308527215602514
Ni 9.03645676952699 0.9245427321314582 7.254999902441297 0.3445072547870196 -0.026284387617825703 -1.9426239900927513
Ni 6.868780293511679 3.6895773551825113 8.148300484527255 0.385375196645975 0.24210947184438303 -2.093465984579704
Ni 7.556612455555366 4.181880662873813 5.283656960021441 -0.4072236599796341 0.31047099113791693 -0.3187437726696704
P 5.480913642057701 8.670423400589728 1.4563300008244648 0.8373815601579385 0.7673840479228784 -0.39147128224138383
Ni 6.05579909358482 1.9024148292736434 4.266515057734993 -0.12053717285582467 1.8524294340845255 0.39223155744617616
P 1.428683846580951 3.158707767121183 9.394225544970025 -0.016522423135055416 1.041832083998967 0.4631320411114798
Ni 0.5402714858538041 6.798382251012043 10.46758654939039 0.2105232123976697 0.4520102201667054 0.25968836126841083
P 2.4760062326409 2.0562607520540768 12.621044899074578 -1.385100324172563 -0.6257188348391869 0.09426512653317314
P 7.785285346227645 6.8563410277496075 8.805921178545725 0.6509179598126338 -0.05983831231387113 0.6486044811881088
P 7.322945632547839 2.350173718616956 6.292409420505279 -0.0028055877695951684 -1.1714048846944987 0.36908185880259015
Ni 5.117249657075119 8.295185886290053 6.4089821997740275 0.4325212582041584 0.7022703461426808 -0.8757241644918788
