# total energy = -340860.367918378 ev
CRYSTAL
PRIMVEC
9.39476490505277 0.00000000000000 0.00000000000000

0.00000000000000 9.39476490505277 0.00000000000000

0.00000000000000 0.00000000000000 13.75018807593359

PRIMCOORD
 96 1
Ni 6.44045903529828 -0.021005755133600992 0.9789129083073556 0.40883111367607006 2.286981092455152 -0.5610018542767757
Ni 5.493795536914048 3.5279879279286996 3.5739903343812203 0.2224834700833394 -0.44757712409601624 -1.8294473713670558
Ni 7.708752314530863 -0.16333362692908154 6.010798851354406 -0.9714802737482819 2.544303010373915 0.5608668713608083
Ni 0.7722468671476638 2.411824078848807 3.2024189221027015 -0.4201894761116828 -4.400884004732969 0.3794979119295916
Ni 3.4136066636719837 1.938947975760711 3.8514139878510463 -0.5706954274154559 0.5268681458178602 -0.6540127966878737
Ni 5.821146729666493 5.220079057725594 13.883427810233163 -2.9889606468302907 0.6510298028001498 -0.673904136295162
Ni 8.631881926511557 5.7686112036111705 8.366370835101486 -0.11483343760282805 -1.0296597103024914 0.6766804134887184
Ni 5.865912785040887 5.763970189685683 4.399839972891769 0.35210049375324526 0.41221262855379337 -0.3959635136847826
Ni 2.224802491369673 2.8857993694455706 8.420368186595688 -0.4767077229133854 -0.8065316646566175 0.32102074162930516
Ni 0.6467506563823544 8.700783133251496 10.51196418353882 1.4305330025840655 0.04771196136398234 -2.6095689214612605
Ni 6.100828884649856 7.911021605655883 12.063397830762808 -2.0462882984526374 2.9030886294568194 -0.8958433038392571
Ni 1.3736179899990764 0.3997434941780352 8.400526442849472 -0.23943963832170378 1.1924938441543138 0.3392385501889125
Ni 1.8048752839982802 6.2924914860544785 9.803664663530064 -0.5083662303589309 0.524686050564877 0.9004764317358943
Ni 3.2551733461832555 4.323123261122247 10.398181365814601 -0.2969469885095531 0.23321679734044348 -0.010474674279078734
Ni 9.308239245413715 0.648949970876194 0.47284134245747933 -0.04378280151290524 -0.8463459684400779 0.8585332545348892
Ni 9.021858622962998 8.324917373877147 12.3359268116513 -0.504205414113022 1.1140620851089718 2.91863249072869
Ni 3.8785817693687115 4.284181960067292 1.4584001075480135 1.6359266070646536 0.2692430948363814 1.1960316821042434
Ni 6.529418065380156 7.923479064087455 3.0727955910591196 -0.9027266612226518 -0.002897890373085332 0.7334436864216918
Ni 5.453755048350423 7.3172442713793115 8.943328721542427 0.01918300068635406 0.40707993531291825 1.054622808005732
Ni 7.578606634551537 6.610363360890289 12.804876842432794 1.6020731488503184 -1.976822747461647 0.7110223813036981
Ni 0.4880664986672892 4.118749542630206 11.571663615827278 1.3630834535818397 1.1345938865137364 -1.6137048195519759
Ni 4.4041531095176625 8.642779853947927 6.644641100583682 1.400802565399168 -0.4766102781035727 1.5796734409988795
Ni 1.8056832337909765 0.05632161636295807 4.900842123530727 1.765090602357541 1.1912026361467163 -0.08118361075886663
Ni 7.800896169958368 5.30730005627667 0.9331895263762661 2.625107897637124 -0.01950593124341157 1.1652324373351997
P 7.547998490079391 4.384696551137732 2.787960407456059 -1.8223146169770164 -3.6937146786267743 0.8845528185271023
P 7.165330920822342 1.2839073787146915 11.677168706082373 0.4739838962243192 -0.9247139641270204 0.020630788876474147
P 1.1944598208511847 1.4390995022676032 10.686728421081549 0.6758224363637974 0.11583282540161986 -0.9508829092129044
P 8.700369763590118 0.6566452229133748 2.575726089062285 -0.5513429910307731 -0.1807863474548693 -0.19006057366794363
P 5.057540227918165 6.0910865133123435 2.3225991769165426 -0.4834072464207481 0.1955930734503986 0.22003757964600817
P 0.424207462319677 7.746923244853249 8.322012512529453 -1.4312068887226383 0.04486137928906467 1.6583072887526988
P 4.196904592926027 9.24094454349414 4.706648572426659 -0.5249817274284249 0.48091224791303633 -2.2146186795323404
P 6.142513457093968 7.406644855417662 0.5244956395528615 -1.3052894253915068 -1.007091080973356 -0.20956907601451652
Ni 5.182969735851752 0.36305787620710683 10.614856589638695 1.4071102527847508 0.6103369530664778 -1.1717944068234334
Ni 5.821268861611901 1.2417436732539817 5.612689106815322 -1.4028334797862678 -0.623207895491875 2.257180207043635
Ni 8.098033798369984 7.85252040380565 1.2496089705382298 2.3066394901160274 -0.12825228211189527 0.10745565708151816
Ni 3.1733637322902384 2.3500347092376015 11.682586667075954 0.01640852326501045 -0.9943219542331456 -0.14632636600478668
Ni 9.506374839924938 2.0654860659679977 12.485652121432468 -1.160332686040737 -0.6694550993848728 -0.35030534952603537
Ni 1.2157953322373862 2.5425710237901393 5.57722762672798 0.6208141984487179 0.008352742840069486 0.24632248148446606
Ni 2.0980201372715714 5.66781476958979 1.6505174155801527 0.1682257371810393 0.8541973461636967 -0.590800168585131
Ni 4.443874176070221 6.34960226268007 11.509224128475903 1.0325138919218346 -1.986115999838115 -1.7022867796574426
Ni 2.1016840956337988 7.948008795584316 7.110387516489483 1.2295768650495404 -0.3738270867970594 -0.3912211139037908
Ni 0.21547175442357835 8.110613388746966 5.363659251699754 -0.695012379028687 -1.9612444334074157 -0.08602191268777443
Ni 9.146639892109423 3.429615343285408 7.389777494280372 0.8151823983530799 -1.1291452046943393 0.8193802384845114
Ni 6.157779950269916 4.8212618873796504 8.957505421974737 0.9980999332183391 -0.2430486958292008 0.23678857385210186
Ni 6.768759099318891 3.12545043063034 13.528782946111631 -1.0515367128812407 -1.9704806072937031 -0.3371112194332646
Ni 8.10543687321469 3.07522601677273 10.052886171852272 0.6485797985977604 -1.1001709289491763 -1.2027484320027866
Ni 1.4703183064667873 8.177175298994097 0.5673592550084071 0.1062068722760816 -1.1817229787910553 -1.1323408288135015
Ni 4.629101363428366 2.5962715007093498 8.961479407582999 0.8943582346532986 -2.5672089684378108 0.1308475536428972
Ni 2.7789057329188416 4.343171689699154 13.120003566926442 -1.3341523723697861 -0.6660784696031562 -0.8262576823306351
Ni 1.2143109593624326 8.657520240282118 2.8106205807116815 -1.5241245000889816 0.9099627739597748 1.179836817511936
Ni 5.9131966374436855 6.533514182933826 6.70349178769308 0.8800467031266327 -1.0054522598183524 0.7597234460538271
Ni 1.8203202777098235 0.3612099259254399 12.493187662464114 0.6257412034366902 -0.13110929194471616 0.21631616493036296
Ni 7.486537937244284 8.721601932560974 9.998256552671462 -0.33891973339691306 0.31078595127517444 0.7994171650990232
Ni 5.789974899292466 2.707777966866472 10.968841001778522 -0.8762247582773813 1.1860666004717315 0.526233597557655
Ni 3.602572967512607 6.415384407429601 -0.17025662928068516 -0.37369364654298864 1.3464561294378037 1.3352047248937005
Ni 3.7606962577553005 8.952854073807714 0.36063684525852735 0.669429131242944 -1.9070062408891415 -1.020593229224849
P 1.7051780374855678 6.504136752680787 5.457381427652526 -0.12539912893381627 -0.40188707825806913 -1.0110955741470586
P 0.4345341880421396 6.796887025822762 1.985431394182837 -0.9696797302044331 -0.354395460435009 0.2640121854547453
P 8.686465511343714 1.652567353309994 5.980671718851864 0.7340478956645938 1.1869772852114588 0.33865105311655874
P 4.663504992973179 4.263795319949256 12.205835621309154 0.5338286362960936 -0.8557268954343458 -0.36647501730736237
P 7.341379422744857 4.354849382633125 7.055304130157658 -1.9466035435657894 0.995222611670544 -0.6064993244879425
P 7.451269989316586 7.3469787027035425 5.444703192242716 -0.3257693120578841 -3.039372780734256 -2.169496847493038
P 3.230850299517084 3.4936312722090435 6.523432660578681 -0.7299981510752525 -0.2643389726665447 -1.204640506819177
P 1.8918989924836982 7.318794407609484 12.217316963653971 -0.6114235012624374 0.23904497398644636 -0.12367031916816766
Ni 7.648306396319142 7.7556885606275 7.73850929329117 0.21756777794927695 0.8852989526645076 0.6158933641083328
Ni 3.803423649117892 6.261535735276172 6.0464660767959355 -1.2333219339142696 -0.7122889067209475 0.6524451950904376
Ni 4.964719949408402 0.8688673281126084 12.830355445197819 1.5179582233772695 0.920318406162486 -0.729831029369769
Ni 3.6830109457110467 0.029756978760305818 8.901060734189869 0.3381715423769789 0.057468269419797796 -0.6165759919976542
Ni 0.5615842929436348 5.806303000916957 13.291743629605577 1.0365060438003633 2.508960626318879 0.32462542826142804
Ni 7.6296483929668755 3.358252708107255 4.943329948385018 0.6575922865090159 0.29371691160802965 0.06898141226571991
Ni 5.367915080258956 3.481991158335198 5.835965092550445 -0.6769100130010214 1.5145813364852367 2.015723538291903
Ni 9.168445141747192 5.448907349594246 5.809592108154433 -0.7646805329487864 0.08714651321052087 -0.5281318430216324
Ni 3.418952284974823 7.592135096196685 2.86505760720935 0.8285703896242117 1.6711075258411607 -0.657876393408338
Ni 4.719206554844067 0.6175075712692636 2.2651097912601874 -0.983627193523461 -0.9817875692115607 2.1111852562363382
Ni 8.718388922920251 6.657788134768556 10.811209057746968 0.6352910519086542 -1.4366496570047644 -1.1606134505059496
Ni 8.334678534744722 6.00867563445732 3.4806542832712366 -0.28435321100494254 4.986317252579232 1.774572573706047
Ni 6.7716057131233915 1.285222645819081 3.7320619534162414 1.5030339979672696 -0.1818962926895964 -2.8134242349204515
Ni 3.308122241899958 1.3900118549787863 6.090467398296778 0.15723118584274856 0.17478462134547962 2.2058964691679943
Ni 1.4122680533380603 5.386300635425313 7.576780292229443 1.9279339921807443 -0.03285689862902083 -0.28112210566215456
Ni 3.617407301497113 2.2513990711734317 0.4705659303668858 -0.34788105635525896 -1.3681145882478438 0.12444833498477276
Ni 3.540435991595242 8.302689359812966 11.276474461683167 -0.9124410602969384 1.4405507918313836 -0.350670446174938
Ni 4.036629901491154 4.510483060142509 8.143136186332502 -0.22344789087913777 2.214211416791593 -1.0351011930330367
Ni 8.321140678334542 2.7068009113032114 1.4144814599794469 0.1559708310730862 0.009244915637035691 1.5097196375175612
Ni 8.354088119299496 1.0293280358951022 8.487936276177678 -0.8725856188628972 -0.12352736583240018 -0.7438389136130867
Ni 7.488886628502121 4.331033653278647 11.781381076669154 -0.3416620720287406 2.067929016650864 -0.05943696311039442
Ni 1.3650969381156395 3.4184731519582243 1.1330302707406803 0.2840495637215947 -0.8545711845633476 -1.1622877528845788
Ni 0.5328297356121743 4.509731478940002 3.28892122112888 -2.0765764079132176 2.5141195448119995 0.8954902913752125
Ni 3.2187122630965765 5.604155841737345 3.8289877442447047 0.5140553103239082 -0.5248585715869993 1.0524304283401036
P 5.762504606340791 2.249087958975719 1.5930421220713447 0.37312440430307997 1.315119266997735 -0.3690903434430224
P 2.565672751002235 0.5315689581449667 1.6767532364067077 -0.7967887263372406 1.0400994175785765 0.6282788822568792
P 2.3743483611387415 3.8683884493096943 3.0389838317112816 3.074500477675324 -2.2204807947400726 -0.0821518882094069
P 0.7024907367898717 4.136430490419211 9.444866373788171 -0.054763983114757296 0.7018085760149139 -1.034573345554025
P 3.4872334372226925 6.552970741313757 8.405269859713801 0.06562123754423538 1.1849324868672884 -0.34925531099496626
P 6.581051693992469 6.2015689500810485 10.699172726842079 0.08267407926146407 0.2166357530533108 -0.5076316661857515
P 9.106242402474606 3.9692694362163565 13.53501167532742 -1.2147829945698174 -1.4445948799937702 0.3261524064289157
P 5.995062619926891 0.9548463387265399 8.079610664143502 -0.5789916059859771 -0.4793916975034519 0.10981927221768828
