# total energy = -381172.47406060656 ev
CRYSTAL
PRIMVEC
9.22783493180468 0.00000000000000 0.00000000000000
0.00000000000000 9.22783493180468 0.00000000000000
0.00000000000000 0.00000000000000 13.50586918654215
PRIMCOORD
 96 1
Ni 4.241758924849083 7.039232478967359 6.5713351041452635 0.16244435461257184 0.5678268476184091 -0.1449420840627504
Ni 0.3466223986042783 3.663893440062389 1.364039194590574 -0.2054594247215171 -1.0288320721948732 0.9423915839124414
Ni 1.0642369853240798 4.984405859634753 12.860180340309975 0.7855442637716729 -1.2217383428417283 0.9411037183389535
Ni 4.956630076216658 0.14512616140079082 7.8525821629128645 -0.91897063388534 0.701860769409088 0.35179530380800056
Ni 0.7897919439162513 8.75989150862572 3.4634722456390374 0.26585746619360023 -0.44322553199553993 -1.1392663522887412
Ni 5.6790772801378075 7.280263529758271 8.44728660104884 -0.6930899651949934 0.12149799410719721 1.3246950836116285
Ni 5.892046484624921 7.9118903813867645 10.963281657905044 -0.004962486211597905 -0.192136739470682 0.20805058248746103
Ni 3.6017255155149788 2.755597638785614 12.529164979079459 1.2386364041486475 -0.0587273386378795 1.0760699221359145
Ni 0.46450522266777944 2.430584061453812 8.967870299932601 0.6287679060781558 -0.34739280386493077 -0.5327387456660244
Ni 3.579680217645932 4.639644715354538 5.510827086953825 -0.2769368639362134 -0.06438530825460524 0.5194746815672666
Ni 7.283161069955374 4.07798330886757 6.843842300198341 2.060781864083122 -1.335365933061913 0.4420968177077354
Ni 6.009941304873952 6.972524459588818 4.582298334606447 0.9505514940154145 0.7580787113615525 0.9932364344784508
Ni 2.300536182479987 6.852784072335263 12.809669016963143 -0.3591196053835557 2.1490105546142284 -0.6530452905682818
Ni 4.81510277047469 0.7589479053531342 3.850941655970956 -0.16938144805203734 -0.5246770517038125 1.1820551653194935
Ni 5.650452535897631 3.397005995538089 5.081029597373136 -0.2696411016057485 0.9679825450076683 -1.2361573464805355
Ni 7.549254920667729 6.517647559983644 7.652330760653929 0.846887956986477 -0.3442948816658974 -1.041806115857038
Ni 2.950960134049564 0.6243174835070747 0.5472844395217207 1.2406166678034698 -0.5249729856776766 -1.4473066224979783
Ni 8.706065546938762 7.038651125360934 4.719355677063457 -1.1775099691509723 1.0682604533938247 0.4334070032432213
Ni 0.23577303039502037 5.453272157134224 6.1501001226820655 -0.16645553265449398 0.5498157557529693 1.9954017960154151
Ni 2.2892874515874095 4.605474042265765 3.2357089760436533 -0.46079670811008383 1.6260090908406255 -0.002000318259480426
Ni 1.2667602805655853 2.3882744378750855 3.757387096161098 -1.8666761738115272 -1.33054922839956 -1.8146789548086295
Ni 0.9749853649852709 6.647843084317831 8.941344888160073 0.20178326142151057 -0.5939076038658611 -1.0571134356380698
Ni 4.70590057081697 5.399003259366179 3.502976607370886 -2.0723538851914376 -0.7840136860597594 0.4642396723533618
Ni 3.2094687043733225 5.3206958513642 0.7707992138726888 0.05538233342504655 -0.13680479966759665 0.5500294144256721
P 7.47805294563317 8.789522086883364 12.224324371890614 0.5097204303939802 -0.3637974704751993 -0.16470538273260665
Ni 4.530525566212021 6.948725873065473 12.702405585443676 0.4068922447821444 -0.30879308921486176 0.27606448863358907
P 8.567334275208648 1.992861707155693 2.47334308059814 -1.5300732614732488 0.2984428563287892 0.8959523186132958
Ni 0.7164472655894397 0.15066378519786686 8.899476355095427 0.38627456853179276 -0.18280054967142068 0.2983868062798732
P 1.5257948374856336 2.4309347191846715 12.62163988219167 -1.1502102528947546 -0.7750374507030782 0.8291871972726043
P 1.2276527157397092 5.989086397722825 11.04943549402676 0.1620085526267339 -0.2463636191350467 -1.6988263319126677
P 4.609571201015809 3.986258628742698 1.681831991017174 0.9302030122660495 0.746426986055237 0.46915947825248233
Ni 3.6681197885027506 8.844104731042178 11.712559714937973 -1.743028994571811 0.3699822591296725 1.341030330436542
Ni 2.7119592069636305 1.8527739436772543 10.653200563206852 -1.1938177051720602 -0.09543677824377113 -0.18399534131047024
Ni 4.81323874780012 3.33122075966181 7.505400557506216 1.209240981705666 0.24877017169401025 -0.07579843518755333
Ni 9.127786835307653 8.048739174772262 7.1244949062258875 0.6229147897314885 0.548159708206785 -0.24303969696813624
Ni 6.338784433740143 2.289868805193835 3.04584350210268 1.4791443358338654 1.0239402913202107 0.12511682180670708
Ni 8.33837323262733 1.518790910703463 7.305243279164511 -0.5537346311914012 -0.41745125124491334 0.13114117362391609
Ni 7.929829292670743 7.553730420653701 9.930662926502482 2.1697596142361215 -2.4565132071524403 2.235707638992156
Ni 4.041376487332825 5.602892274191032 8.543313297861259 0.4954225257140694 -1.2170921023189685 -1.137130536892661
Ni 8.295048547196114 5.202957904310555 10.963672918110005 -0.4558550478340923 0.8457340458876917 0.7966871677623698
Ni 6.146504035373749 2.3622150317711985 12.15667326777276 0.3918716030035961 1.0122805955940954 0.18210635181787346
Ni 3.13304377471596 2.1107565274047237 8.364428024813705 -0.7892062860042924 -1.2084902195825704 -0.020561883311751683
Ni 2.225255504365429 4.278864049475049 8.904257296420647 -1.622461225588367 -0.3574054509059264 -0.933624893463405
Ni 2.699381667827795 0.8382325410840081 3.0166171030190285 0.398727449583165 -0.7973546261430396 -0.7583327363538874
Ni 3.6892607585395796 6.948384443169637 10.240177432130285 -0.15680901070366543 0.8383809479567302 0.6863300207633406
Ni 6.127060986981083 1.5506638528716024 6.1544492013282275 0.25436437795233613 -1.5440567202365343 1.0813309134245377
Ni 1.5787072435053535 8.095671943697322 10.662911014001157 -0.30864396523150717 0.847777815790598 0.6049031836454164
Ni 8.28483333382607 1.274548573324679 -0.07830094851746235 -1.2956734995682977 -0.1360848907824366 0.7935015709455365
Ni 5.145283935419162 4.729274676929274 12.870080884505747 0.6719734949313524 -1.0706888603296594 0.0007214515470568221
Ni 0.16735878432079626 8.149451766209168 1.18381219433073 -0.3554017902123363 -0.16070346066206517 -0.6294091392065805
Ni 3.507952256015084 7.850663696011662 3.9798692757730345 -0.4221471140586858 -0.5069870906232171 0.2651388428600208
Ni 1.5943207403636315 0.8778873165267257 6.708675741137468 0.7520885552163886 0.10345142101813151 0.6631674666039483
Ni 9.035720725286943 4.656005666849649 3.5767190053871722 -0.1420850742299295 0.1826516827983822 0.1476096035925845
Ni 3.73116435737731 2.9638791030812364 3.5759088014721865 1.5659846306578773 -0.6228759660737531 0.786390156711736
Ni 7.453193158082224 3.0526047368237554 10.328977811336488 0.012331524982159408 0.4420505378508323 -1.2524650825016237
Ni 6.987621197685829 9.324081341908887 4.235629796827056 1.0031151270447434 -0.4028373579864804 1.2145222847092632
P 5.348536229627454 5.553209610429231 10.86358135997012 -0.29647056309376685 0.31470328405170966 -0.17527775893181427
Ni 5.6325320802836965 5.349495924469807 6.386371456168307 0.013256350789273945 1.0348319985320502 0.07952756321268238
P 4.577781309362874 9.092785657066845 1.8371899758910488 -0.5850884629123343 -0.40244269365122304 -0.03596459102006709
Ni 8.085115300431442 5.597789281423522 0.5089077192296365 -0.31860159066485133 -0.08836213078517685 0.47754873075744203
P 7.24645274223538 8.741039041674503 6.3340773150951035 -0.041768856406669996 -0.09036142060339276 -0.26992212318127706
P 0.34873557282445894 3.311270180342899 7.021080404694358 -1.1749054416485896 0.09275717452907896 0.7296317688747692
P 7.173479022876478 5.0533008759136555 4.614496096567383 -0.3643263463954758 0.030439033216147576 0.7914117782960435
Ni 6.839800508458433 0.23070325783359136 2.030202141574737 0.38997078643645744 -0.5192419967311702 -2.0332566620796597
Ni 6.5965916886021825 4.839704178645003 2.477665398522736 1.3331252166568524 0.5717732338606669 -0.06095931329219179
Ni 6.288741884412459 5.003618212151854 8.909416578981796 0.6950303767508159 -0.3332435089477422 0.7557320655062468
Ni 5.020975769829408 3.3337676421280538 10.0672348848373 -0.45676521835318756 -0.4245593230446043 0.23110746430692458
Ni 4.840184026066179 1.9489833516231212 1.1130291630061986 0.9202435870604926 0.12268095867170485 0.3633254159347872
Ni 3.5995938856247522 1.916879713579416 5.882238218779376 0.24847269505824954 0.534119428063635 -0.4105606947726671
Ni 2.6877176843592 2.848697266328857 1.474624646718185 -0.8902113023644604 0.9648653395349254 -0.7791704990348451
Ni 8.551056374228741 1.2046108116882197 11.108172509512759 0.5623118313374509 -0.9326399038423163 -0.655767060374819
Ni 9.191800326859587 0.47278628181708127 5.273056230276407 -0.8189801748326154 -0.0685929185780496 0.026400087260083565
Ni 8.1286614539032 2.6437839618164922 5.149612712828274 0.6050445943192869 0.37954624866902376 -1.4416525095359947
Ni 1.4278136852154233 3.771111655190245 5.329497360408778 1.402883873408229 -0.13893367308514137 0.7150361304487814
Ni 6.471203866314782 7.402264736592367 0.37763346098130496 1.8412819021081386 0.409236833754921 -1.5206154584944587
Ni 5.007493902861356 0.907542809938929 10.50181239295971 1.2533379720248803 0.8511827277070889 -1.2135272677858455
Ni 1.07137932963159 -0.016223456753273375 12.764397258342154 0.2966564538523278 0.6428518949750477 -0.8475147919371985
Ni 0.7036602545985912 3.4496507943421526 10.873196764063692 0.7299505856667686 0.5485870255521906 0.6716001707523337
Ni 5.487581247748336 7.221233069118552 2.295241250744006 -1.215163774948004 0.5737936067248053 0.5101505759528634
Ni 6.809708538449659 3.437100938711385 0.716448188372942 -0.4418157961322068 -0.7773131341111322 0.39358652881217376
Ni 8.567334275208648 3.611304008268461 12.847268753546322 -1.276881306562459 -1.915796328376946 -2.1486043203147447
Ni 3.171477707585184 4.500387457028135 10.969629485617109 -0.3013561733208423 1.2136447672003163 1.0067396111712081
Ni 2.519180505506015 7.718788705703357 1.4831336333925456 0.7598036644724592 0.012037905001140558 1.0276300814669723
Ni 8.747756905570972 4.728739462497962 8.773047633017475 0.5517075734590433 -0.7354054381337529 -0.7800783555610953
Ni 7.840476166146686 7.103015274643729 2.50937685357798 -0.10627346384795891 -0.37904282667004396 0.22698392905685422
Ni 2.0420829791663637 7.553121383542208 6.210471387750571 -1.8772495784519991 1.3774253241258085 -1.3667202790034787
Ni 5.522886944544892 0.4115918938645573 13.068900126769172 0.1463415355134383 -1.8237256383919302 -0.23714312897804318
Ni 9.04464404175382 7.108468925142099 12.412272301713886 -0.7656632085770297 0.960869331001655 -0.10354192384940879
P 2.4285170264087443 5.721359220211466 7.071403480206729 -0.44318722255843673 -1.1512998864145076 0.7292633297917569
Ni 0.977772171162103 5.805590898297967 1.6789279913355544 -0.3286733730785566 1.749032006232781 -0.5275384324120076
P 3.175611777675319 9.224919026755781 9.521070704487325 -0.17330289459363057 -0.07129591933150947 -0.45881155935925494
Ni 0.9238723867949625 1.2357270713845045 1.3339140043757192 -0.3009733360601268 -0.1328260175255067 0.6070757658167029
P 1.2523648579302935 6.638753666820547 3.667748829534841 1.2518490461841796 -0.17434033471920943 -0.30482819102984277
P 3.7799888324820086 9.02132530265165 5.974861690035451 -0.8953272834347872 0.5322345523360963 -1.0336955709347617
P 6.276127433936534 1.8856434920278373 8.704465440345839 -0.12111489973616563 0.2366124532855538 -0.06698675043319431
Ni 7.3519822635540955 -0.20393054008245545 8.654899047305323 -1.3059589406547056 2.789599878807344 -1.9518722481638966
