# total energy = -381172.7688385347 ev
CRYSTAL
PRIMVEC
9.22175742268965 0.00000000000000 0.00000000000000

0.00000000000000 9.22175742268965 0.00000000000000

0.00000000000000 0.00000000000000 13.49697413762745

PRIMCOORD
 96 1
Ni 5.112191888188188 6.902605313501655 1.3661904516659447 -0.11793881600102915 -0.7438625677621705 0.667885698015224
Ni 2.3801355907175656 2.1557333456012495 11.451615254147368 -0.6998594227083431 -0.03045497405574755 -0.6895806664901543
Ni 3.248594595970672 6.939815104700979 6.859607947344044 -1.8183553752189523 0.9678095097649139 -2.115179979218028
Ni 2.0820791690686606 2.1177489267784457 2.2992773772866095 0.3652730265794612 0.36069054941510137 0.6193237299461205
Ni 3.3628429486765996 4.2842625068064635 12.560325016822903 0.9959060108908138 -0.09439573857376647 -0.3261902016453866
Ni 2.0839142987957153 8.343726232927448 8.584183557716136 0.4548358625409586 0.8706120400762942 0.8840170006282905
Ni 3.0775125522705857 3.9691919427132576 8.496506776847069 1.8262201226790096 0.31858564982525134 2.0775254020900475
Ni 5.611190404070862 8.6356225206182 3.4883068027596322 0.223294396020409 -0.07292548451513248 0.7483198322025757
Ni 5.482795875478995 7.801606779337701 5.843798168941616 -0.5298310851009262 -0.30646958328800766 0.18045081849232147
Ni 2.595343743683764 2.2125485930805633 4.963957670677802 -0.18971013230706038 1.0241354380501524 -0.13763372332679522
Ni 8.057787200531555 7.3714486826131305 5.045290804616011 -0.51459447065683 0.37674965976049307 0.8623289741318956
Ni 8.683160680130594 3.741396090865504 0.20347531099769808 -1.6821277882110643 0.33712741738318064 -0.23578095852319395
Ni 6.817811254002826 2.6105319781584324 1.4962070873884086 -0.027633188336236278 0.01381273751337621 0.037672831960425444
Ni 0.27333196782374886 8.37134539640749 3.2318773941153727 1.3946607141674885 -0.5872055092553371 0.4526432257650139
Ni 4.197273669041106 7.029764126598923 8.860223955694838 0.6333218439974254 -0.028240482902932004 1.4168686177230954
Ni 0.462543986616244 7.380937871000764 7.215509686776342 0.011328537638941781 -0.7409369094749434 -0.6281158743164538
Ni 4.729470511644365 5.247613395935911 7.010179880361003 -0.24974796222624732 -1.1675554290414216 -1.9250124476585748
Ni 5.19042005640228 5.2302119396798705 11.139659799711445 -1.0758835171567211 -0.4958608988030686 -1.389914714842071
Ni 8.852767242643099 1.1577270920784786 1.9643763460323074 -0.9152512760522238 1.3407531655157554 -0.686528767037708
Ni 7.612634526238188 7.761759565515575 2.2747124598648605 -2.128251981910638 -1.1041849352045758 0.03895324133474582
Ni 2.6020295178149935 4.498898910812474 6.182032865504111 -0.6471014142800211 -0.7132204173962814 -0.015131970545432003
Ni 5.367597681758562 3.713915253746796 2.9549867501023255 -1.2141052517765025 0.7114612686133295 1.2147097181297208
Ni 8.50168571581548 5.690977049289337 3.580652559411653 -0.012808207508261811 0.9750805895050305 0.4189340064380269
Ni 3.305557391568744 8.141917293495974 10.80741832329776 -0.024824772353163698 0.37789020112283955 -0.006618276647466022
P 3.6405008429071892 7.386434038424507 4.48009113654952 0.8430084194264127 0.3657407102444991 0.9409715636364634
Ni 6.528063635791489 3.093733623576561 12.568652263775316 -0.09487859174745594 1.283745894892776 0.7629455525355505
P 0.8672149901768267 7.0651848968583035 1.3095227523053892 -0.05490179424420222 -0.40691615604154435 0.5241690017191425
Ni 0.3777554601718675 4.861692069566522 1.8889017945845399 2.191500862567955 0.18612087229390525 -0.4694811232579592
P 6.476744555735917 0.4004188512131208 1.595382477587448 0.25412346558612364 -0.5756921092990988 0.6961542059426139
P 4.698743615912979 3.712135454564276 5.285428134422143 -0.9257136090361283 -0.04139861755144483 -0.7806352565058298
P 8.482578234436298 3.2708190313586196 2.9403564319517117 0.12585729951715743 -0.6834100189030682 -0.08510145775603407
Ni 6.907658836569122 5.0993183148265375 1.8901163000370678 0.4063361151683582 0.3491954042913083 -0.6557688601470318
Ni 7.16725130800926 3.7675951037024995 10.452083721946936 0.15057382842723102 0.8314186577062842 -0.726886344919148
Ni 8.459717497786206 9.03036906884081 9.318256658580053 1.9520375700971675 -0.4679875694315683 0.8914120075407809
Ni 7.3386100044320175 1.0569886139963451 13.215265295069592 -0.23326307719734668 -0.29767589625577767 1.494061362155014
Ni 4.354606072424416 9.156246057656366 1.5739086932536823 -0.9868984080755647 0.33723180417152887 -0.9475268482564778
Ni 3.4748688578437323 5.208605362039223 4.022732544131882 0.9023623359046975 -0.8535687114407622 0.030722111674205157
Ni 1.1604751757903495 9.145677923650313 10.819430584516157 0.5933980112192943 1.252503906159359 -0.04558411638770214
Ni 4.628833472893879 1.9749223478205469 12.193747248822708 0.4316781934775727 -1.0859735544028717 -0.3079235421257149
Ni 0.8596596043206667 4.41404952076911 8.293701887613977 -2.2751853853718043 -1.0528518321482383 -3.651837064556382
Ni 5.80613835598008 5.294810350423678 8.847819769785989 2.1185244702102293 -0.5232140940050408 1.2930918548840504
Ni 7.20738439631148 8.025926028637215 7.611672696939033 -0.24838502044044963 -1.091494741331417 -0.35685652038099186
Ni 5.42895003388969 9.062967981328942 11.58591078531382 -0.5083479755264857 -0.8706565201609844 -0.6404116609646713
Ni 0.9088198709636588 7.169058772464047 12.370152090906997 0.1763285687938318 0.11291693730640552 -0.44854797264971785
Ni 1.1891548413739668 3.9188688124593023 10.312444182354213 0.306664215797317 -0.3643430585660241 2.802528413943554
Ni 0.1308493604177051 0.5972129989583009 7.158741470259883 0.29337495488757864 0.5553536548520629 -0.8743529951759652
Ni 4.917917124570803 0.14126810195351563 7.778360573227353 -0.43300411137784783 -0.05673216258472165 -0.22153087636208296
Ni 7.980831634841753 8.665989767810114 11.603375871696075 1.9512359001314785 -1.8173163924314766 0.5091720140896779
Ni 1.153033217550485 4.132251057455869 4.162561129751764 -0.5867100576761572 -1.7717459028905294 -0.18366109789950305
Ni 0.4004769482848819 7.179442471321654 9.91656428014439 0.8305298273434276 -0.7252164134158929 -0.1450603548081695
Ni 3.161015565730282 0.24325797251786693 12.902067669908874 -0.3777400486982204 -0.1754379386587624 -0.32613080916236087
Ni 4.155176346407918 2.416155775209402 0.8317932977417036 0.14361899437595266 -0.18216111631520884 1.1032146008715065
Ni 1.7938531408320177 1.7613187806458435 8.55185853142345 -0.4953248237939405 0.39983379527346624 0.1219944741276415
Ni 5.973448700894411 6.321468604257798 3.9356367339804255 -0.11387441612366839 -0.7549378517397256 -0.3538331601736358
Ni 4.495468417051346 0.8416522786019754 5.347730327567776 1.9841424210515117 -0.7343834246271417 0.575182516652532
Ni 1.7655700108175627 9.118077203685115 1.3589559829680837 0.6183708791145479 0.1988815143936833 -0.20156291788058836
P 8.82311929253013 2.4997325627284765 9.829130953671275 -0.3133729952760603 -0.5625090349499217 -3.0432705731267653
Ni 8.651898922468709 5.128237746103137 5.9765951645269295 0.9177169639838968 0.13497211733423206 1.3637349711229094
P 6.196891883238799 9.039166625421766 9.461473317876917 -1.0119224409237282 -1.2161042844844026 1.5716181747945708
Ni 2.688225284442026 6.3790861446328595 0.28818729685546884 -0.26703965942715946 -0.6489379532681275 -0.011364018862567526
P 4.202068982900745 3.2444816921602886 10.619486284435492 -0.5670303198590428 1.0442021268930404 -0.8645246962316336
P 1.2285686325972403 4.599720384711409 12.600747668308184 -1.1833327464803363 2.268448580868603 -1.1738245498795847
P 4.993046782290973 4.820424705101349 0.6310061290326308 -0.18553183255965466 -0.5674265268561969 0.5630024296465723
Ni 8.289668290917426 5.952303211124883 8.537619215787545 -1.655728215171613 -0.8364821882721206 -0.17429199797977724
Ni 7.077117850962869 1.3442832447333273 11.038527552587377 -1.718084923031964 1.4363838049378876 -3.7976330119789954
Ni 2.808357118383435 7.013948812619532 2.539037537214166 -0.4163405346792378 0.4102470201869902 -0.05601611035430353
Ni 8.820998288322983 8.63202603522347 0.4894392421386299 0.21053272547936647 -0.42591506574155036 -1.2113860530731266
Ni 8.304939521208896 6.247168904705642 0.14637511121403246 2.608942343620855 1.1958128812252178 1.4456770573143556
Ni 0.35296184316604323 1.4352374381903101 4.059714557922874 0.14830174456360265 0.6342117028015465 1.925600716061877
Ni 2.7242546906912843 0.2383298653513444 6.569273825360643 -1.5613923833015044 -0.4030240200759898 -0.023761106975339723
Ni 8.412234668818346 5.716668865468101 11.202474722569765 1.0306673256313992 -1.2417474389738035 0.9591361503606319
Ni 1.6236656076019027 2.7992460220501187 13.477471212563232 0.6416632739835852 -2.00043884421869 2.2366566331689866
Ni 8.839570907771666 2.354794201320852 11.874354447025631 2.1670069911916485 0.33919355588359 1.0962397122155703
Ni 4.54667683601785 1.5750761677433562 3.2962037630152192 -1.7452679112046587 0.9560472270226631 -1.776208566647573
Ni 7.251030974191628 0.3312658144783981 5.7034024452402585 -0.16305602005464176 0.41705375869617844 0.02863926100324745
Ni 7.821682545246233 3.536036774826412 7.820011562801296 0.17870581077675673 -0.3340714041656762 0.5227975752929125
Ni 3.682699604872023 1.0359076765287731 9.941601351546167 0.9415498047374365 -0.16251377439792655 -1.1201764255368254
Ni 6.192585322522546 2.531667508682196 6.2629067559226845 0.0007631034182696535 -0.5012064793856981 0.45572803533792483
Ni 5.503240511684424 2.7784048502755287 9.010283158999114 -0.2794580876961703 -0.24650811513271095 -0.9757256792881971
Ni 6.587645410497518 5.4105802931042986 12.862454688725276 -1.5353013426414075 -0.589950418990326 -0.5662013961998442
Ni 6.589074782897988 7.9136511320196785 13.301902783877157 -0.6195258186545977 -0.003818859525457939 0.8433164375851347
Ni 2.5695689316881984 0.16047148960989016 3.7711085932804282 0.10651411910385526 -1.300261376049296 0.47460121809334394
Ni 7.191928730871562 1.1025256521480822 8.19341896434851 -0.7393801065107848 3.6232050026419858 -2.2519459552278893
Ni 4.380574541325852 7.0134047289316115 12.438932568641853 0.8760008151920333 0.08437486400265469 0.27753335986963173
Ni 2.4414510558190035 6.037420032133496 10.712764360762915 0.374674008178387 -0.9120461388513648 0.4707533051021634
Ni 1.514682878384157 6.27642954100687 4.834427021571498 -0.41463100818729887 2.2899280908986177 0.5493161904087314
Ni 7.291864916057948 4.01293073816763 4.600187005636982 -1.3620339292714025 -0.7695854264495714 -0.501368201774543
Ni 3.19461042802003 4.369582206478369 1.7046003616194645 -0.7536993513469341 0.599430076345987 0.6052063167081319
P 2.0844952695133254 5.9976189270984825 8.540804410801238 0.8058197261912573 2.1642888209295372 0.03800836092297325
Ni 6.725390801115684 1.6614287042465692 3.845760563966119 1.1861972125123248 0.19613120534205578 -0.14324078510092753
P 0.8542298335503664 0.7314402891198258 12.751320523500889 0.6248919680625173 -0.1824868750857438 1.095957662198777
Ni 6.8248566766735275 7.015636394227828 10.382021419930366 -1.4788378603370402 0.8824720247386737 -0.7821588922392078
P 6.666408440642109 5.998863864350504 6.593312180433575 1.5572169117675763 0.46517632523501823 0.14445794533748024
P 0.7435300131005724 8.552774251935492 5.367611514394695 0.21067079371912747 0.6632093755854772 -0.04716611616284135
P 0.8093327853637429 2.8784609183084062 6.3305935332272485 0.2672903419853848 0.37362654075047913 -0.009256485601261478
Ni 3.8504710376574733 2.382754569825523 7.043220515029667 0.119586121796465 -0.2026049859918575 0.07466586424500689
