# total energy = -381169.0925073758 ev
CRYSTAL
PRIMVEC
9.19066096673706 0.00000000000000 0.00000000000000

0.00000000000000 9.19066096673706 0.00000000000000

0.00000000000000 0.00000000000000 13.45146133106372

PRIMCOORD
 96 1
Ni 8.258681889123629 7.293809550141378 8.086789878257676 -0.07774938826633707 0.015273381219302728 0.7042770921600645
Ni 0.8804561190482414 1.1734635776999702 2.781089378761139 0.27147764059385504 -0.37983369800245553 0.005301357608255386
Ni 4.115816887116752 8.490213017330221 10.378501381385485 2.634073334360528 -0.6954073004742605 -1.5563609915251841
Ni 6.153358826225072 1.4113638338776313 1.3192173491002372 1.6004674949260953 -1.7788745435155104 0.7951349927839017
Ni 1.3950044575594456 7.0355244081919555 6.156101319423582 0.9240585899312086 0.629845969633683 0.20673469188951493
Ni 2.162617642655617 0.31979272064145947 10.034507812586133 -2.9177200062167494 1.986331972503663 1.5617685356940005
Ni 0.3152654011053144 6.508476770920789 13.256751669485368 -0.9886434157911295 1.4414185391483176 -0.5570438980702922
Ni 6.815472415390653 5.49991203024379 9.434558934363574 1.6656452171750087 -0.18652479260054328 -0.35171585672031686
Ni 4.8958558456860635 3.234827709739042 8.781503660534625 0.38749018610644875 0.19479757413229679 1.330432757426354
Ni 0.854198400991468 4.70088516635236 5.724256061663404 -0.7964719664277703 -0.9735153019004393 0.9590698158990709
Ni 0.2985576987408033 4.05533314804373 3.4668588098960322 -0.18469262448781096 -2.5142074765401152 -0.239860013688574
Ni 5.771836112898936 7.666867664821982 8.050067673753777 -0.6396560137455694 -0.5452821295486738 -0.9868421009163327
Ni 4.302341349126628 7.52994519943528 12.73926048136906 0.7496809742161605 -0.4084359351201805 -1.3318761747410996
Ni 2.4800998311586544 9.206284976363255 5.3260385128979495 -2.4382308639034846 -0.19380744230488559 -1.1268162994508466
Ni 6.34610536563237 1.785607543808261 3.791226641510072 0.4491213286546846 -1.6532077627426045 -0.3975575976447798
Ni 7.336674792359366 3.8071485423716593 4.836957495610168 0.9639274011016882 -0.7840458248492755 -1.1367957792610617
Ni 0.9648999109648088 1.9910647671751378 12.639745843785885 1.178177427531642 -0.22991447244008792 -0.07027570559711123
Ni 4.147276519216275 2.5441587373034604 1.9580353702019377 -0.43456579943801293 0.32145371540166573 1.0160907133688049
Ni 1.5915283585772906 5.995619514006522 4.083541124333491 0.4774579708158486 0.4549793300973584 -1.7642873897299554
Ni 6.593058422750151 3.4832604632541413 2.109632563772487 0.16927680415337298 1.0548027852270223 0.9844625449405624
Ni 2.4826364535540586 3.4008753793686264 4.759288139808283 0.9558040006636054 0.5885196000810703 -1.9017483349243118
Ni 1.6554677861310085 3.26586457143933 10.66231450291996 0.2381630856021253 0.023580101312785196 1.6313775542413904
Ni 4.2552851655597115 7.174983495974062 1.5277497675884988 -1.6522415421745933 -2.997984704705772 1.9864214468936754
Ni 4.324123215348032 5.408281141540245 12.030475797326302 -0.15791895593839256 0.05690674048937296 -0.3527808076497215
P 7.920842386831389 3.63149663215078 10.733431836599802 -0.18220868172369264 -1.4714281981365303 -0.32873353689253065
Ni 7.759114327802672 5.255091206443885 11.982992248029724 0.42548800550646076 0.5783953671628748 0.8142753131577782
P 7.615032337611551 9.337803333168445 2.964392514142068 0.582142492910133 -0.6153346633913854 -0.45620677474655624
Ni 0.24697511470382744 2.7336793547513856 9.001960042413456 1.9591327863810517 0.27468277779471406 -1.7797440906046575
P 4.8066696727693925 5.95037389062763 9.50289241687107 2.1974941040369123 0.4380385884779617 2.874618804151901
P 1.4119060828679533 5.6124149097443015 11.395257758080685 -2.473574533510101 -1.167003156082377 2.145484029518208
P 5.502733563125634 -0.056960039702015484 11.89306898411265 1.0351405309114043 0.7286215824426999 0.3257687978372519
Ni 7.520828063869191 7.909896309755569 12.823707949549968 0.36006679978817346 1.489150812227274 0.1378044445767046
Ni 2.3981375176723736 1.1744745503937908 1.007209118201195 -0.5097741664500511 -0.7074146093477817 -0.7177782119702928
Ni 5.744135461088256 3.9681321578712887 11.190162646751414 0.6554076201528712 -0.4186290736030984 -0.669597538500008
Ni 0.2907943475183475 9.04534731416789 6.585902574210072 0.3136565879547501 -0.6977883991119274 -0.7469098392289266
Ni 7.412102545979226 7.329359026320447 5.784464999976924 0.6330837598446903 0.041068230795219596 1.053491522614766
Ni 6.320683997713212 2.160264833477272 6.736720399740295 0.5715343783769834 0.8519484022285199 -1.2339235720540103
Ni 0.44088978710553045 8.910171074343241 11.99138607858669 0.902729232325813 0.23049631308548688 0.1216229497208357
Ni 1.5708769436407943 1.9765710950100934 6.285584863915936 -0.8454198570813826 0.2077891012959583 0.8868999786030403
Ni 0.7517657285874935 4.322331036481714 13.365842975677277 -0.6444233532272257 -1.245721850240519 -1.7783675219721051
Ni 6.401139042819615 1.6857602043022109 10.772266054967702 -0.6948853665325193 0.6374813746917537 0.4466492129651082
Ni 7.26409614360391 3.033837147546681 8.758609724350018 -1.7088086399363605 1.262943356325128 0.17804992236031272
Ni 3.466450744554163 6.232775326655096 8.122946857119123 -2.7055911398948562 1.6056246136470025 -3.2976341797481528
Ni -0.06610934258109068 8.971886361970553 0.7971519690774354 -0.08545806976450443 1.3807299630190093 1.203828809551159
Ni 3.073531611770414 0.4872456423154546 12.160484128553355 -0.1909486326998518 0.8455334998411116 1.0101905458342861
Ni 8.309965776682885 1.2265855974298092 7.868647704781608 -2.0674230235487236 -0.29575322531176806 -1.0748033967186652
Ni 1.983206752145897 8.056358681107596 0.3244716860816777 1.163681547908312 0.6675522259352051 0.19396273693582725
Ni 8.734941934521595 1.2574937898781566 10.420430095262562 -0.17910664575960122 -0.8371619879479647 1.3868088222232375
Ni 2.634025019123247 5.862382503621837 0.11080995977140509 0.34308594895946076 -0.43618225199551336 0.07610619623595925
Ni 0.11786103477776019 8.05397829994669 4.189592159915258 -0.7439206746936156 0.9479505660574578 0.5429015451316392
Ni 3.6126282054197487 6.9807664508302985 4.143399898468516 0.5700112568642377 0.5766413605862456 -1.002608362611654
Ni 1.297206635423595 7.150223855636314 9.055846725126258 1.491902149720166 -0.1272032720220906 -0.6699904030630526
Ni 4.636091007339322 0.8118386451203906 5.4975178630916055 0.34561565735984995 0.22896162160851538 -0.19197321730962422
Ni 2.273668397741369 3.605937404318828 8.191038625246186 0.0028436400963821992 0.9367716666225028 0.055371020571136895
Ni 6.680608658035003 8.812832785250036 9.842743754824012 1.5984252676850856 -0.15405021701160565 0.018747455810832227
Ni 1.995384377776007 8.298073061539215 2.859632766410136 0.6667245878275873 -0.4668925365951765 -1.0016513980150235
P 0.298017287882652 9.029576140144291 8.930464972572558 -0.12690091029032338 -0.45964536811445994 -0.13211665016330795
Ni 5.777810042453329 8.029292184895766 4.327133156777362 0.1563850357923694 0.2532050675369123 -0.6414552717378372
P 7.903067648741855 5.120999464599881 2.2420221952265322 0.1763743344301027 0.10706562073195108 -1.113314665419986
Ni 3.9313143704945177 2.4042309258178554 10.796411759160476 -0.5360492980964962 -0.34629957080075197 0.48758246084436024
P 6.596284344709524 9.298743024543562 6.1582133332875815 0.23343508399883667 -0.5604112718806284 0.8116623010149635
P 1.1229884682957707 5.547372602888235 7.610150258566484 -0.03466952635772739 -0.3506714746162025 1.2437978937449288
P 3.393302274825826 4.55639878708371 2.8043068262077684 -1.368014829445186 -0.00903691339128766 -0.3509211287331634
Ni 5.048117524036278 2.267630133561005 13.048818482084716 -2.322077936158285 -1.278876996836249 -1.5616860032825233
Ni 1.6052316339089845 3.0723460165203873 1.7388564901816617 2.108631379466233 2.295580918309021 0.7034240001311498
Ni 7.827832898999906 5.148102723455121 6.835615586781984 0.26928911758296853 -0.45088999051933315 0.7987723324261727
Ni 9.06424331288148 7.058381581733151 10.819574981708074 -1.9003182873460043 -0.29925043983174915 0.1873722282025031
Ni 8.808972707691813 2.452160222165798 1.0617988864692445 -1.583085552004222 0.003137517187717177 1.0621368569945902
Ni 2.979649011157904 8.862407209890652 8.168897404185433 0.9425836453185895 -0.9987823039973444 -3.4174131342817144
Ni 2.99906887754011 3.5425402257554324 13.180077662253854 -0.13402852247404012 -1.2391467681261628 -0.8661056675655083
Ni 5.250982981042633 0.8461170529035015 8.399025118479786 0.18137024498279733 -0.14906793330566587 -0.20360180268748804
Ni 4.396168805774019 0.10752521758257388 2.874523475124026 -0.5465705093427942 0.6426680610990158 1.8010842468433303
Ni 4.228292194634705 -0.04029093811308662 0.7129259958230819 1.0506787357563196 2.8993250486493296 -1.198746252821929
Ni 5.404246441425815 5.01575720717317 7.548489195838203 0.6257095788678063 0.19686165575017708 -1.7046347110643287
Ni 6.230762571928309 8.154717133555474 1.5643111355274733 1.6993048142109832 1.5735593576813418 1.0943826044021732
Ni 2.9204060113000248 5.1829261374268105 10.150539905854165 0.7718521109965611 -1.0832623261192957 -1.2145672790145856
Ni 7.980094577350121 1.2840456090822232 12.764132247769213 -1.6629005645503363 -0.7595290706548339 -0.6477375052021233
Ni 3.4760549851454576 5.241158164590869 5.811986433900973 0.6383414086992039 0.44206159359442576 0.4546515144442944
Ni 5.241038685999781 5.466687791260509 3.159102178707548 1.266080359292213 0.40822279066810985 0.5444637474124365
Ni 8.79107849101119 1.5090329867615409 4.529147558588737 -0.8732929293425669 -0.3110826565799868 1.1033529262215838
Ni 4.87351334915263 4.578594233043495 0.7033364602891522 -0.5111682185841003 -0.15007811973773508 1.098268826830457
Ni 2.387945074786493 7.457890418348439 11.33169882388628 -0.9394242737540015 -0.4307405121546517 0.6816914935500646
Ni 5.167338776620269 3.432518824685207 4.713243848001273 -2.8044608550795767 0.5445951307839781 -0.09641019790063396
Ni 9.276961158322157 4.902362833569925 9.419318061471188 0.13812943201629116 1.4369659026936026 0.6864606328039339
Ni 6.339947622860919 6.995113072421696 11.207824339712458 -1.8730753924696517 -0.6691866762148346 -0.46424661433189723
Ni 3.913355819187925 2.8804909712158224 6.70274160750099 0.00993602816678934 -0.48109299646527465 -0.4238098464730895
Ni 1.0549316246799476 5.531013226570049 1.8452310370254505 0.47934310365370353 0.4973408257827047 0.4146415497102601
Ni 8.348897416055825 5.825040848576451 4.176826331990561 -0.8811345368741728 1.6783307830624774 1.1687641046375419
P 3.755533791021698 7.785114707355565 6.065034737296405 0.7121127861543994 -0.9196254938605194 2.252051113347186
Ni 6.882178231861098 3.3121763114771605 13.266772247013298 1.8787372187411195 1.5679142435804223 -0.37355866362702117
P 3.3088033389441414 1.7618037321992155 8.780414567223556 -0.6564802843917596 0.012667825275655603 -0.376677411761661
Ni 8.49238201329151 7.205919260404968 2.099423577697071 -0.5685051046323564 -0.05244664783549033 0.061799292694983896
P 2.942132733556312 1.563717418836375 3.8480322781097587 0.1581711811585147 -0.9623577426217232 -1.0493103946538833
P 5.984682627591555 5.390258255607682 5.45450005590346 -0.051931398761968624 1.0080773561460252 -0.3233545319688044
P 8.749610229242846 2.9676643894057055 6.128310599136543 0.20307446942910834 -0.6664775048137876 1.6690745545715318
Ni 6.395100778639251 6.248289162174815 0.4219404825589938 0.5109951833413459 -1.6563074847138506 -0.0955380797083258
