# total energy = -381168.4480114634 ev
CRYSTAL
PRIMVEC
9.24077385318233 0.00000000000000 0.00000000000000

0.00000000000000 9.24077385318233 0.00000000000000

0.00000000000000 0.00000000000000 13.52480660586628

PRIMCOORD
 96 1
Ni 3.419363578999458 2.323453994232167 5.861610494392372 0.9130069601027372 2.329641093217523 -0.700939028925767
Ni 6.246707735108395 6.832619006428182 1.8628928972570813 -0.451691403374706 -1.880152353921091 0.4267234205754587
Ni 6.415342618639896 0.40716698110389454 11.24802712628431 -3.263695618019179 0.814356817127991 1.3924117702323118
Ni 3.738447502959275 1.526659020952143 10.416319585002183 0.4903787926425749 -0.12873513528558475 -0.4724998554796249
Ni 5.9317636778712535 3.267158791523577 7.286219028398375 1.6866537011058758 -1.0545991538566484 -0.4268344922320262
Ni 2.747485387766605 4.945560561254873 5.415657212853016 -0.17300541795786978 -1.9309797209856037 -1.4276842202813607
Ni 5.514866161814284 2.849558976647582 11.31987137139321 0.7989361116975466 -0.11061502864610626 -1.667193535498735
Ni 4.969115294014028 4.862412077391843 6.0413962198306885 -0.39300160284298125 0.4300946510405367 0.04613587512611409
Ni 3.8842484340985166 2.252826759050444 1.3354119636028123 -2.255123838735239 -0.6417267802316691 -2.4003238044450663
Ni 2.611960197242577 4.396473774064246 0.5810395353014948 0.024828886118221753 -0.500504568222667 0.19978500004455915
Ni 5.578978651372153 2.749287338683841 2.5012908404476866 2.380294910818649 0.41597183848590935 -1.0882911467924545
Ni 8.857309538582594 6.969151441311075 3.963363320139118 0.1853433706979324 1.052947220075522 0.4959997383737781
Ni 2.531352926211546 5.882769094470299 2.515249029475816 -0.5412411267100807 1.200177843062133 -0.07598381172548205
Ni 1.5561925344469467 1.161278819580258 6.06517273116427 -0.8771264441560442 -0.2442815397950374 2.398698095916185
Ni 7.036756943416202 4.570560714217128 0.9567897331827253 -2.2662824264552195 -1.916826055193041 2.765684248532011
Ni 3.250386786832379 7.183943990645625 12.379580224271924 0.8595758368667906 -1.6515992806049038 1.3672015895152712
Ni 7.729694858445882 5.831482799133577 12.974414386902907 1.8210547764279863 0.8094650362533284 -2.2817787223186055
Ni 8.11590376426623 2.856415630907014 2.8831916974597496 -0.3107813232894841 0.8002419749931637 0.501518097088846
Ni 3.8299034425894614 3.4093743023762157 8.036129086966701 -2.255972302778463 -1.1122692548746071 0.06166508110996476
Ni 7.9064154191701075 4.083082166848108 5.441571115197658 -0.5387283875905561 -0.5970831733803652 -1.1569599129137624
Ni 7.006705946581063 3.661628949241408 9.458532772311921 0.10269551668871345 -0.8000118612602287 -1.9688219886443576
Ni 8.131834858529384 2.1007883055053855 7.3334476999004385 0.02080176723669966 1.1176048081549075 -1.436057017726088
Ni 5.051201088874585 5.049251285574395 8.823827442385559 -0.21598115018844738 0.35771012663053875 1.6127733088766418
Ni 1.1678120467519808 7.648930494257963 11.685352297200982 -2.0370670369646855 1.1039021138568343 -0.28523304250673454
P 1.8997183054636342 6.39912506038477 0.41276504195344155 -0.881007010157373 1.2503146118175241 -0.2953199944290914
Ni 7.708357911431018 8.56068069528372 5.688411592614601 1.3125471353951845 0.4264616822736397 -2.2119071941384485
P 1.0925551838290515 3.627354918718183 8.153997930733995 0.23545622819392353 -0.9497451960640353 1.160382565442066
Ni 1.8935454684753585 1.635044058430414 8.774894772169967 1.1322097025522757 1.1450500488500537 -0.9150743841547273
P 6.400732955049381 5.665518499269161 7.385667313404548 2.625802095490671 1.1461232273095747 -0.8117533180668729
P 1.250516973466153 1.1638107916383231 13.686969540918232 0.8301847852991832 -1.9770991410514853 -0.8461215111340977
P 7.3638248960554655 2.9702434842327317 12.954127191807009 0.310922991073671 0.05879804397481486 -0.50254191036767
Ni 6.118168569678883 8.233779076575278 3.8072191907349415 -0.17057392569824173 1.0990758961127847 0.4307695656203743
Ni 3.7031477465293157 0.10485136552570129 12.671905639149482 0.338975526335513 1.3401093612841695 0.3274448999880941
Ni 2.6028395533691815 8.765058892394038 7.323087868242419 1.1524910785091314 1.3741646510966656 -1.4421039952511163
Ni 7.9372056779200095 8.931328137798294 10.059900162114626 3.6059678128280925 -0.6212410015734913 -0.47564585730777437
Ni 5.45245397466037 3.0425895033662798 4.613595922507694 0.6585626208420852 0.6465671390431058 2.105683866802135
Ni 8.603622571757548 6.573276685955194 1.6408426440743404 0.568214312864815 0.06831472521599848 -0.35772375347729357
Ni 2.5458054966451735 5.363881156497763 8.134508214428648 -0.9517244312775932 -1.5759373709952151 -0.49887320326683116
Ni 3.928678075175806 7.103198108005576 8.471668016281827 1.8306848433185827 1.3693543741922158 2.4781863212504995
Ni 1.0217246516207688 3.4277449609580897 5.995804089392434 -0.7235644796347668 0.4904633819365811 -0.08466334177735096
Ni 0.5045037492660244 5.271390250186908 9.533595578982224 -0.8841535262061546 0.40649372379214505 0.7714235080995746
Ni 0.43513141118461274 0.17269897590791303 7.90526309466047 -0.19708251351173156 -0.8433182373573477 -0.16939507489879216
Ni 3.114519687672773 2.6589310511518662 12.543365549642576 0.5759998703475048 -1.1549395400496238 -0.5268051537904089
Ni 5.75110654745091 7.984130327959626 6.962327129760414 -1.2487647508319009 -0.371250841429451 -0.8967053947292363
Ni 0.8476654337896906 2.9386030742808518 12.731063225723648 -1.0638610387745484 0.44183250830275517 1.1778321283770812
Ni 1.528460971869379 2.3822900018734106 1.8490844087666916 -0.3276703857353389 0.3996188510491827 1.7997357032352361
Ni 2.2729531646798815 -0.0999833258169833 1.6537048773138328 0.8552167885671466 0.5787748619894807 0.09753839796780621
Ni 7.32225065412395 8.735848805986942 1.3009244712016992 -0.5625463159457603 0.7101985998508221 -0.05493830390909249
Ni 5.025816682876391 3.794326462941465 -0.30359176645855385 -0.9166409573108988 -0.72707814921498 2.0368238106056276
Ni -0.30564229419462924 0.21087815749587663 2.8222487933614295 0.7013198093039534 -0.1323537058747785 0.7324188447016031
Ni 6.563453743262773 5.286027636099226 10.85381940654622 -0.22796249092003965 1.3931666461204653 0.726630263044284
Ni 6.885698011908205 6.327777044836153 5.105641260355165 -0.3114716644882894 -0.6180497483297033 0.6251339088699943
Ni 0.9724158819060399 6.288975035085 6.175291337832663 0.06875618362879125 0.029513436078084654 0.07389247641409209
Ni 5.733678447810361 1.5393650851121414 13.406031531760213 0.53115443189804 -1.148587886799983 0.2632100012684241
Ni 8.679738826656388 4.888757523879229 7.455522943962736 -1.095661728224913 -0.6481704789744837 0.04698048251459651
Ni 5.470436520736994 5.859805771242957 13.029068020261377 -0.9756084369840424 2.9620741068520924 -0.28348160703326664
P 5.6319744898867645 8.245939935073137 13.412659014826067 -0.43988669743029407 0.23851532673522152 -0.3401124681534336
Ni 8.461296171617695 1.5730846691992937 0.8942768215929261 -0.31759011868120146 0.6819205788417352 -0.7518265598042536
P 8.020502014165993 5.137519158197163 3.2887868229173782 -1.2608299095265512 -0.9777632785435161 -0.32927526832861354
Ni 1.5710701804815632 7.400547731671344 8.564557199949261 -2.1662179196314497 -1.0543538706150615 1.4381771493928843
P 6.842654486921097 0.9987705691673604 2.967085911779298 0.2751836286905325 -0.16284210427162277 0.5444010124953012
P 4.357967469079 4.787672697809248 10.993693305283845 -0.14834956708240257 0.5590388170131341 0.7141717255659571
P 8.429166000647283 6.862143279149051 10.89635561304432 -0.2798347543092987 -0.8928747081292365 -0.5020361743758451
Ni 0.4539816659336899 8.338818953889243 0.43927497421686246 0.8010295038914657 0.0016953854245519188 0.4346308483479934
Ni 8.55629132766481 1.1458374863356342 11.910201580808497 -0.08872697032376332 0.7386897653119794 0.49313372967989255
Ni 8.532616464844509 1.6530358452809717 4.948104546319054 0.4530787706405358 -0.43118402744997353 -0.10885099476714803
Ni 2.4463655283355417 6.058131261426148 10.546549812061718 1.658953149866814 -1.2348576538325053 -0.8183980770769002
Ni 1.7295586942329337 3.400577085590529 10.735842445723891 0.6602415512064048 0.5681999146871117 -1.9779589179486194
Ni 3.4325871264997905 3.8028464565091147 2.9703044733407 -1.4719015382285232 -0.9012930140999187 1.876337608160691
Ni 8.811484540641189 2.1114059547561768 9.453785786741745 0.8198090984918138 -0.35111961789721463 1.2061518012573809
Ni 5.176256482530774 7.411849198193293 10.989595022043874 -0.30959064541549264 0.2820793273691013 0.4623658523694166
Ni 4.05768852007598 7.3193213287867 1.2651765372359143 -1.0544716271398487 -0.18072515519963067 -0.5655367660326518
Ni 1.4570852339989582 0.970244300031422 10.931843881262544 -0.3167509106093577 -0.3415818536101085 1.2437338732762129
Ni 7.510882572449805 -0.05430248394895661 7.853719905808369 -1.288761860050129 0.6767598605764023 0.4095834184610624
Ni 3.3489211592964256 6.761372639392845 6.417371892595922 0.8651533309545681 1.6419846403332754 -1.8159843038836145
Ni 4.909105708083096 0.23871506489629812 1.9694279317936565 0.8539394645166196 -0.24607796957382783 -0.4748742692490725
Ni 0.8262961440660568 8.764957243880758 4.847818123117017 0.20740317871144925 -0.8740012682635012 -0.49431900823724545
Ni 6.627584714368512 7.2914881176958515 9.183059756858793 -0.2612078832367308 -1.258578394488213 -1.0014909611777592
Ni 3.484806740003901 8.324791459056605 3.5623802649522207 -0.35901650414678815 -0.5736817637372894 0.6321725608843306
Ni 4.615701894887377 6.223790615750724 4.190675270000189 -0.3494471152907982 -0.043366797021409186 -1.0944106294266314
Ni 3.772388865620857 1.6093362253445114 3.7132488365171663 -0.6527588696761145 -1.6248870614210404 -0.419650058668445
Ni 8.444866075562075 7.180598830481319 7.2210022663553275 -0.5739851539103211 -0.6684204874727714 1.3042856667173406
Ni 4.203055134840298 1.1795940335185249 7.566561007637615 0.6607827684218556 -0.9490191165312882 0.04902039576276074
Ni -0.007547864149735852 4.257723553437062 1.2505317587044482 1.6712669342371602 0.3101017807239562 -0.34611393715250716
Ni 8.502814968905602 3.8942099883999557 11.172517990232965 -0.7893572097598599 -1.3096425601538801 0.7138768200333576
Ni 6.110166059451567 1.4821924167791154 8.894143263485688 0.6776818581700393 0.4414275595548527 1.1917531093335476
Ni 2.994029236340249 8.448719478292778 10.3364820704399 -0.16832343910116818 0.33084364125699794 -0.23241975536044487
Ni 0.7577120440012619 4.746079974329864 3.9198272619012995 0.8530388070792212 -0.8262898211201511 -0.20328170034390794
P 1.8888234329948064 6.881567385959464 4.324286696242373 0.06360909221021303 -0.19318369267795762 0.06831086856125654
Ni 6.300849429590891 1.110611656097151 5.78460065665406 -1.287166490538551 0.32888831730284 0.16260427722920384
P 4.274356946519243 -0.06679601030846062 5.407596485749912 0.5337682153718033 0.442489939381096 0.9649486432773511
Ni 7.91813272051911 8.09581432173253 12.669403237568007 -1.3355474529451 0.5534898621704468 -1.6079352640580502
P 1.642362751386573 2.062069462719644 4.217102035298199 -0.48100480762684256 1.1063302636823529 -1.5652868332599044
P 4.720224288861009 9.087441772648488 9.17378201982851 0.7498236704416119 -0.8624315611480307 0.9611580658866674
P 4.760440137024145 5.110138745029109 2.2325802233598573 1.6531072326089982 1.4930069527485705 -1.277896892311167
Ni 0.687645723797366 5.272314327580363 12.247632137337959 1.4428136197236314 1.1312853909657934 0.6958137918840597
