# total energy = -340888.30549625435 ev
CRYSTAL
PRIMVEC
9.15210243179230 0.00000000000000 0.00000000000000

0.00000000000000 9.15210243179230 0.00000000000000

0.00000000000000 0.00000000000000 13.39502701762095

PRIMCOORD
 96 1
Ni 6.579684338121224 2.1172199026435954 11.506944698201 -0.27389010669008956 0.08837910006604134 0.750447677178856
Ni 4.741978793520821 0.4216300338418339 6.106993810027113 0.5646620767371823 0.8227578967074927 0.22938739629202434
Ni 3.066677305221013 2.1739446330437695 5.193479459030949 -0.3980034269329468 -0.545148689294603 -0.19201024119514673
Ni 3.7168884170765057 4.764767528386331 4.925364959681925 0.46472741062305767 -0.3013178638837391 1.3718995092115729
Ni 4.07456172923675 3.1849316197580637 2.7884561392406697 -0.9950333784778734 -0.23192456089158123 1.208124094492403
Ni 5.372247474343403 5.234929330599582 2.854185623148545 0.25495804567227703 0.030187322216657687 0.6476112640369039
Ni 4.9605950624896735 3.1643668457649707 0.6514402392018539 1.2922583032391617 -0.3604784334042953 -0.7478848015476862
Ni 5.853510776714029 8.308278518437847 12.859145856199179 -0.24839761884593994 0.29328188095314006 -0.6059519366249048
Ni 2.337446941627039 5.458689081092297 11.66996194535942 0.4004614015551361 -0.30371104670626403 1.3064178825689952
Ni 1.0365488085935597 7.950010319624487 11.86410915347027 -0.1461805844555418 -0.7176221460084028 0.7112298693288138
Ni 0.844257646840431 0.3536271677088214 5.072603067169011 -0.44024613765224174 0.6727211717306544 0.44510706528896893
Ni 8.671406483602043 2.534299511194212 1.521245979768017 0.13464404457085197 1.0049094999410049 0.05525095005350484
Ni 1.9291441992354685 1.5910380819115542 2.6180979907828004 -0.49194382313684953 1.0356426673588035 0.9063701715125101
Ni 2.083878793762048 6.833984654174666 0.8179270483632933 0.4455521232461875 1.2673821088227721 -0.31336271086341516
Ni 8.033660535154914 4.335909164104024 3.4937711441691555 0.9799816263510736 -0.45240411317101437 1.2332962228826567
Ni 7.789628877944486 4.21761824115755 12.838169237600084 -1.4920111644942047 0.4071678670410342 0.309205494161932
Ni 8.087557265927199 9.130622371397966 7.076030305173923 0.7524281979439944 1.2701637853329673 1.510940911519172
Ni 6.799764943466977 1.2490972337006323 0.6253347824426645 -0.6520685284773093 -0.9517671115900705 -0.08928978480576881
Ni 1.666414796912495 6.8177305203910725 9.877090719778762 0.4603596205726652 -0.17819338991671246 -1.0680737913043155
Ni 9.558638742263554 5.188857647341357 1.5147635456695263 -0.5043949044160088 -0.2897011055804172 1.5236406184740274
Ni 6.706267065801896 2.173706678382523 7.124439435373774 0.07575626909570825 1.272292658750512 -0.8877664403683937
Ni 3.7434020576007563 5.0988192643667025 1.1191556844554458 0.4101901988071258 0.42184243833407353 -1.841200655248242
Ni 6.152528264877063 6.159520471076761 5.1151585127022035 -0.5691221693910651 0.7769310681813651 -0.5189422061025644
Ni 5.466907669007649 3.3510971901268207 9.16322948167059 -0.7003700437961744 -0.30827269793501744 0.45541076120782215
P 0.4584233157319241 6.064366062885312 12.953807881283895 -0.7020428035129069 -0.4925709151978872 -1.6281271656248928
P 4.245074548224429 6.479276623177644 12.716019788300477 -0.2501724513581756 0.8924486763354115 1.0093839907725908
P 2.614398711010656 9.005412459070637 1.5606952017617097 0.722111292128008 -0.8383485520568981 -0.303778923829722
P 6.573323626984063 8.202104979010223 6.058008097378858 -2.1953775719145416 -0.22818926221886507 -0.5169647706612194
P 4.828438704474426 1.3642855939485492 12.739219452561754 0.08202976080924583 -0.1813584179082554 0.4950065212225733
P 4.1953694803310215 5.87638188050074 8.524340435639244 0.010532524100207667 0.5057367631558839 0.2652478576340593
P 4.910322564250217 1.6362403154459941 4.221790684621479 0.32532605387287844 0.5294865572773139 -0.6166320420465703
P 0.4868497456485003 6.12708542032842 3.6436615309189015 0.09140631692813936 0.11832473858553814 0.47782101058222226
Ni 1.2562084172309542 8.301936111505396 3.157743469290204 -0.9776280385172323 -1.8960484563260573 -1.6000010968126381
Ni 2.1839387288161136 6.927107295643166 5.077290773995562 -1.3010851575021722 -0.032749683627195214 -0.4612016568579864
Ni 6.137097820305477 5.702501087846191 9.551391192408135 -0.2525368378252941 0.6153341491707531 -0.04577309247005665
Ni 8.637653530114493 2.593513613435116 10.26694007819068 0.8833677970800657 -0.6090393173009769 0.1498750025879935
Ni 2.307784977892453 5.845164059365699 7.345243056805622 0.6464211003835448 -1.0310853870054242 -0.022285550871077746
Ni 0.39619359576484087 -0.04820320789684985 9.35626562455547 0.13323328026625442 0.8546616873946249 0.3956238709571767
Ni 1.2021011881044896 1.1442690533192852 11.65805322977428 0.24834105457639163 1.168016170727924 -0.28046081792907185
Ni 4.4739686281386515 7.600573899584306 1.647936702256485 -0.49358418695374995 -0.3209670055732344 0.20303230333726324
Ni 5.9824913552118755 7.8787062901718 8.294214482747956 -0.8684679971500979 -0.2980690179291383 -0.40934970518370145
Ni 7.350959459936946 1.1792117801130675 5.04546433805387 -0.5596934198779975 -0.5128155243795361 -0.7937867062861232
Ni 0.7502820294323859 7.767462486039158 7.2520545202001605 1.160160422128931 -0.651322137229588 0.10035478437067878
Ni 5.092522617946032 4.569864356620907 7.007032605514853 0.16165065506668289 0.6788787066916179 -0.10447857673106523
Ni 8.078057383682058 7.193909383514394 9.529797722110269 0.7253552529866024 0.37459636086291614 -0.0870143585080308
Ni 4.6938387351302255 0.8377303674403982 10.389772274326017 -0.584566014749961 -1.269749323503368 0.37923437385555975
Ni 8.336631731535578 7.445793544545949 5.169020465485537 1.3883306581844026 1.0582241522037452 -1.9779550612938774
Ni 7.848907044901879 6.479249166870578 7.175086254599576 -0.8946479979795753 0.27983321164740194 1.8856414020601202
Ni 2.653597165399805 5.556195579589144 3.116138927191761 -1.1818265942484547 0.6767979129031892 -1.4450440517160468
Ni 2.9925635803451485 4.152006819370062 9.522498005271421 0.2850294111363607 1.2608900733405253 0.06084901296657263
Ni 1.4353516687399899 3.6205899960906027 4.040636716224913 -0.5719051314528409 0.4467875383151854 -0.3129636756527836
Ni 0.788747400422849 0.5732703025619759 0.5844797975271473 -0.6503582306544219 -1.4406677770252223 0.6133559423984598
Ni 0.9584539191929978 3.467612605216303 8.158562936843094 0.8129715067446901 0.8280381712698256 0.7610586199254828
Ni 6.026723465896619 3.498729753225434 4.784757550351491 -0.22901021545826364 0.5522606177490359 0.8113745945712155
Ni 4.133647702044675 7.312804345216339 6.238211162340675 1.670276288189117 -1.456763139925188 0.7052993627769917
Ni 8.34625059111134 7.76304202060139 0.19623480265816817 0.1696619554069336 0.603812778794715 0.884705799165199
P 0.49591856387269073 5.724466133499694 8.523001483064617 -1.7369681330897115 -0.16711939149073798 -0.6879161343035379
P 8.651738615639802 1.9479151611668588 8.090181173672557 -0.6907345775889395 -1.383494413138024 0.5573737706058852
P 1.8740210867475293 3.275253717905743 11.138005148040978 -0.26507456528098866 -0.4398229340718941 -0.22029109041771092
P 4.240754755912573 7.001083738983697 3.89171096106345 -0.020852160858660863 -0.941994862694655 0.3648693633831393
P 6.987822342670393 4.068603710603237 10.609932502962266 0.44032867006371906 0.2828156913144936 0.6372417478771218
P 6.371309271688317 8.317915682218322 10.487114034980463 -0.5444560341029526 -0.7337838433699299 0.11862350077287959
P 2.5511027711191425 8.76840961646933 6.326846528024212 -0.3405241017695555 0.29241850451158025 -0.8466354746560387
P 7.1147345460358675 4.480027319898076 1.6292105856266375 -0.4973017450146532 -0.9766499908746794 -0.6724015836077065
Ni 2.6685791569559654 1.8981551806593169 0.23157747632489153 1.1817661733241647 0.7494097228326448 -0.47427674487438964
Ni 1.5544845851031814 1.1446808979252883 7.4513992072387705 -0.4324976040550745 0.4304726032052457 -0.5064625855783149
Ni 6.73122484892569 0.9351618186979281 9.208504932023876 1.6126087582743196 0.26798042607387396 0.12320854904040071
Ni 2.546865347728487 1.635068846344474 9.581958299065692 -0.41239132022350267 0.7644658458348189 0.20139219663067898
Ni 6.54091603254279 2.324267914234937 2.812500542549372 0.2256793513128178 -0.018600902930638933 -0.33404929267848915
Ni 4.25829933612831 7.071646448145578 10.491694662209454 -0.02865417340158291 0.7213762137341964 0.17043637167911294
Ni 7.3382288855602695 6.591829177947141 11.806148889252087 0.037507767137470886 -0.5206568748008259 -0.6274481588254678
Ni 7.832543085890019 4.204393453253669 8.409424808041525 -0.015802257139579237 0.211547539897126 -0.06009927928474166
Ni 3.430647263801928 8.772399933096384 12.774140214309883 -0.5239512292813815 -0.5784503887705263 -0.42549597592626076
Ni -0.05296870759342463 5.048857937607337 10.652288432664104 0.3084418765230301 0.04187889962197303 0.44188110215250354
Ni -0.29014452492925297 2.7993260912084477 5.880657742721289 0.5200616644189883 0.6390302072361124 0.21846200762877216
Ni 4.086889611109779 3.0009835145123245 11.490267737288576 -0.5916038954333488 0.17290951580995384 -0.11941205811244596
Ni 0.7588474820270169 3.658333266205207 13.084154868663436 2.458733868952843 -0.7937224287070911 -1.0600822884584067
Ni 3.462350146361818 8.707328485347878 8.356902723043055 0.48940383032381524 -0.00024862567569634603 -0.10298785111815166
Ni 5.831847750438261 8.92672268301696 3.6485643121508105 -0.031673934064513194 -1.3438950535788468 0.4783288034565762
Ni 3.252336853607254 -0.10518785800392344 3.8884427453122554 1.7161933624362056 0.1135507142356625 0.832103856698767
Ni 3.3871930818174123 3.0754541713800583 7.506787730695024 0.24694314578760052 -0.9060313001158525 0.6532324668784234
Ni 5.516676801617548 4.8033344877129425 12.211642851430716 -0.2729817359432073 -0.07619541351565587 -0.3818435293436327
Ni 8.283622754691788 0.09773438584550112 2.982925501354438 -0.2645279487488993 0.35543752854627814 -0.4364259925752032
Ni 4.638074975477393 0.8930960106407614 1.7083350865422073 -0.5825556691881516 0.16420710293994947 0.1895610083237058
Ni 6.340420926238077 6.273098061310088 0.7727806426532228 -0.21196020195451237 -0.4213469867548937 -0.9815883087165611
Ni 8.046025025437364 9.225227653448076 11.487213680732504 0.25710568814289914 -0.4570392979501806 -0.15874248028095242
Ni 0.1859734654970396 5.324967713574236 5.825162139667476 0.8619019138968059 -0.8564007815729187 -0.6015180692232672
Ni 7.4977774859259085 6.67645866842962 2.946490981876688 0.8384799354284397 -0.18045236115421825 0.1529883514059946
P 8.959057060639388 2.137043356345883 3.6354777209925 -0.43896752805013434 -0.7228003477752326 1.2859215623878564
P 2.1676205303160314 3.6326250106882516 1.558953556683434 -0.08898947995653061 -0.08622425850656763 0.4397164904010169
P 4.905883794607739 1.5493960161934532 8.084367758256263 -1.0757624181978247 -1.0967953276087241 0.6492621693767656
P 8.483843297925832 1.693038262665013 12.83823604794728 0.32292952861624385 1.3631873261495555 -1.1607959988304006
P 6.751634037178737 8.249073568299298 1.7352450130984562 -0.8248286631935925 1.1396126798845665 -1.3171566091427382
P 1.845988197232245 3.728447522351662 6.23881428588591 0.10546613745531513 0.7654593200963398 -1.7425055179681732
P 7.10053963528229 4.69470818485401 6.339892849932157 0.9829275963532751 -2.1255294407731524 -0.6235691354860358
P 2.4997228684946546 8.703237495594912 10.34247420935214 0.15895999560839721 1.443992984743713 1.0351965809603205
