# total energy = -340874.5857812761 ev
CRYSTAL
PRIMVEC
9.23659143702584 0.00000000000000 0.00000000000000
0.00000000000000 9.23659143702584 0.00000000000000
0.00000000000000 0.00000000000000 13.51868521706078
PRIMCOORD
 96 1
Ni 2.882010459599217 7.031133462551794 5.054393005086747 -0.4021650145098042 -0.09550799780133874 1.0809565608042546
Ni 3.143960189374565 7.84345472259491 10.170418089401243 0.9977392074448106 0.0030644978579366577 -0.008827111373326733
Ni 6.403193038396392 1.079175619808262 0.9282404810826288 0.0016534764430229587 -0.6978917574590111 -0.24771781917009594
Ni 0.49060893712275805 2.533116695748575 12.829502493884064 -0.9025883358725746 -0.42851959324393296 -1.9893257650246645
Ni 6.430579531653934 6.45877884494745 2.5081215559832337 0.23246063590070934 0.07782754980244017 1.0093896471995454
Ni 4.373710720847062 6.129956194030583 8.943624190809603 0.9028287340181548 -0.318804964924909 0.6886571262346204
Ni 7.54339481704195 0.5095088502774237 4.891439213738276 0.7826157772709683 0.7275622879402502 1.3508519445126541
Ni 2.7047879819828697 6.103345574443742 12.349575674620445 0.06413616835827664 0.14312971344435996 1.1266427499874598
Ni 7.293203268014276 8.877352571762877 2.7737095790786985 0.6313667771535836 -0.38041502442722225 -0.8184798381574292
Ni 3.890128982398955 7.97689575736446 3.163088246334782 0.8997925182949923 -0.9849860215442005 -0.41590139025929024
Ni 5.372574179146275 1.869975622080694 8.195108379931337 -0.8197368504929817 -1.1231612191967624 0.19903989434841848
Ni 7.665327059029409 7.010905327565617 10.134173705069845 1.9394378790552855 -1.5900794668235518 0.732538658108919
Ni 2.1137939230990246 3.088928578302579 10.947485127702238 -0.2809873798565032 -0.4526887342909688 0.5750588465904741
Ni 5.752419760503164 1.221770116573841 3.600295830753162 -1.1470935616426439 0.9068617664369479 -1.3773006256224862
Ni 0.5976407099961987 1.1989003164707464 3.8497696966354362 -0.7861746982668202 0.9698764195962716 0.3752216531517409
Ni 4.388249115581421 4.429564388546341 12.858364994434206 0.10465932528330361 -1.9683759022458742 -0.40255505085937127
Ni 3.709544385542896 0.6998953178400268 11.378555920849012 -0.21037126020083766 -0.37689595553037025 0.771146343178788
Ni 3.3579997199840195 7.533086781131185 0.7944041202046728 -0.7427168841935015 1.2239250660804017 -0.49238939531470033
Ni 2.4535342249536383 3.199195005455544 0.23808422512818475 0.8983403592294981 0.16272023398177782 1.3323965660209438
Ni 8.357341717157013 5.2864614382895905 1.3324041600612584 -0.8105443853604365 1.5294595391486498 0.10610608503215921
Ni 0.4930307713663087 3.5035868723365944 1.8624828992036222 0.36864348571359096 -0.8279358413640064 0.49178081519642397
Ni 1.9037445999388982 5.5171360698625636 10.253571426399677 -0.4370826523225957 -0.9924962138783165 -2.110459176703591
Ni 7.1818007401292085 7.0277066871728575 4.957328437904441 -0.6997239255717433 -0.23180860413900722 0.6074233789641087
Ni 6.291993715520319 4.738112721520441 9.786811368059707 -0.30731007691143203 0.2636470888058427 0.5564684851827966
P 6.217583735863401 4.457985380031487 0.628647023391222 0.7499607102401084 1.1588401606556107 0.027855331649371384
P 1.8883379656206587 -0.4089353020534514 5.524978859550584 -0.4673540496126274 2.5283421161692843 0.06179466470929357
P 5.547367433246016 8.270859512647613 1.621782871414211 -0.7688475198422823 -0.1734903280140883 -0.6479141399893035
P 6.730094478319138 2.652204067610125 9.545367794669207 1.058871041759125 -0.19324617048477685 1.0043333157225607
P -0.4473207282523368 7.31602688516078 2.3351368264635344 -0.5043727929288218 -1.4922150529748948 -2.6108151351635356
P 6.156188113373388 7.937141468332264 10.97287374625772 -1.9226287779177471 2.3626296323284017 1.4569251194243489
P 6.188331451159645 5.371133270900684 7.63214922301555 -0.4598294591008081 1.1329941461267843 -0.20368793464339116
P 4.196137252760636 8.163678106994823 8.246749238330526 0.287269356210473 2.0014516017539203 -0.10808274914255579
Ni 6.266814767587752 1.1491243258586397 11.030746532819089 1.2427074888942276 -3.3170583499110355 0.09460631192267577
Ni 1.4931319329021182 8.638568213012796 2.2935804784652176 0.3411560789265996 1.4356430701171212 -0.9905851128985328
Ni 5.2714057944414305 8.72044135845457 5.203098430668242 0.6073837839754249 -1.2608322235193963 -0.41206916099739355
Ni 7.225286612053833 7.4221737925859665 0.19855438526501284 0.11031472379686807 0.4710888340647112 0.862859906934701
Ni 6.0832098053707435 4.632187492286883 5.272219538136536 -0.565419009507865 0.2790569956030097 0.38807562629627357
Ni 2.0616995480661275 1.9430370594052004 5.916263035595549 -1.173840490719185 -0.06389962686743834 -0.23402180974024214
Ni 7.7146504566669405 7.009649151146384 7.825425820001521 -0.4336898245909628 -1.2504717062206787 -1.0402611399674213
Ni 0.8208715726260851 4.761887707572688 13.1796367319487 -0.6112427527101989 1.1382561658566719 -0.29226963763854175
Ni 1.3420582453067167 2.6001281657598634 8.206476776525395 -0.5379354593756155 -1.630884673765372 0.13397170109417572
Ni 6.971548211960089 3.132543762505653 12.049392922402957 -0.4065541447164353 -0.0372938513544519 -1.0604445568938319
Ni 6.762662699306017 3.9005940403621233 2.9818700193143166 -0.9706161259757735 0.17787148780091946 -1.2748249382540626
Ni 2.5425195457101863 6.8841054019536285 7.559959719911452 -0.8658117904741733 1.2624216794937033 0.20360154557717192
Ni 1.5403770974931232 4.713617281345398 7.768093374032249 0.12150647874762945 1.7279196497341982 -0.8680190825381373
Ni 3.9248678023455374 5.101147706678772 6.996865708762424 0.8713718010604541 -1.386284060068019 -1.29946947627562
Ni 5.16732788347145 8.659101155512465 12.974625969352482 -0.14301401380210207 0.5232341486096989 -0.5321980426712061
Ni 8.929410000430503 2.9559955560555125 10.005786933069444 -0.44320547739088184 -1.2104540281771605 0.7193293585074967
Ni 5.918743060364402 2.1045019122332276 5.847060646123657 -1.3918764665541319 -0.3240068208408226 -0.44152628991624604
Ni 6.985116764606069 3.4577733793998626 7.478279619228223 0.9438496565152067 -0.14757926457528134 0.43333244125154396
Ni 3.4081728840227954 3.623754925382338 8.95422225568775 0.37147092786005703 0.6924852417314591 -0.7369285596464986
Ni 4.484503633705147 5.6288434052611205 1.388260598737932 0.49992427023916486 -0.8916927720059934 0.6917869301128537
Ni 0.5545834159087246 0.11767140241251757 11.960331861597602 -1.1968603486531257 1.5365979499656441 0.09998865928051166
Ni 6.430995178263238 8.64375917733345 8.76721915152489 -1.7285521411118745 1.2768951905195298 0.4615595544180373
Ni 3.864820722187937 0.5492132617165038 6.654072713477248 -0.7973564259152526 -0.7028853540188604 0.37705227860257645
Ni 4.6408698881257 2.6124959615345174 10.66153781002388 -0.0744033546122396 2.636892291866562 0.2831594478071575
P 0.5198353593708241 6.994371829106594 8.5636271293551 0.759289443840202 0.14357759961505595 0.46622353555261
P 7.86607513473242 1.13301571060024 12.733289540421268 -0.03152660985337151 0.2722957656197762 -0.19855215607872256
P 1.191594172738296 1.165057445881999 10.052007759683294 0.07265371891098456 0.2623566521291933 -0.13373901625807935
P 4.700686053500353 3.103522392584844 3.887554744398659 0.12879375643766205 0.5574694156434851 0.14797752845496448
P 2.3076515016788908 5.660848194177607 1.2315156440733463 -0.3717704613783468 -0.936578062554458 -2.226316427585243
P 2.0079425865960103 1.7612424690864983 2.2861718085691387 -0.03401543771349626 0.25379153616800165 -1.445030424869292
P 1.1734350342073248 5.512822581717109 5.527208572694723 0.613692242691956 0.04254507245106222 -0.32495427235575647
P 3.9179034124918486 5.075765553737211 10.801389039168047 1.395245383026365 -0.9270755223806614 -0.20776596136750672
Ni 0.9343366313524358 7.550128292112691 10.614397942573898 -1.7165818561238757 -0.10334446312662202 0.19568331917135975
Ni 7.644387706511754 5.351911924368156 12.34396536905396 -0.12424881737945699 0.9972738377726179 1.22550912273807
Ni 0.4234579945825692 7.341861631076917 13.24774366169029 0.586977452404931 -0.5662733870883602 0.6022657460225692
Ni -0.09946885190235263 8.1790016119912 4.141732806239134 1.364301642259657 -0.1669502129027254 1.3906595634278953
Ni 3.118014604362613 0.9048848362762132 3.89116440428569 0.48936320689386686 -0.08113064603374415 1.63117700819481
Ni 1.5149210518210197 6.517320360720234 2.945585917640251 0.005855173229196368 -1.7844502378310751 1.5446812411944106
Ni 7.7811169677904735 2.978098719079222 0.6846512475289819 -0.15868540179077187 0.3856343638446326 0.5887260596649216
Ni 2.609697274365197 4.074075698494726 2.674266589632036 2.9159906822304684 -0.21643057902104015 -2.7959749290957525
Ni 9.367658548690407 1.1253770495803455 1.0606728800802656 -0.43503811108874113 -1.0430271327483327 1.0187931999016324
Ni 2.2953945450000512 0.731134393336261 13.385782671617886 0.055238351648014536 0.7409677627128788 1.2798717566493505
Ni 8.526140423491444 0.08442891025943305 9.692099360686068 0.4721645836273933 0.26756365025142953 0.784208575679385
Ni 8.67732495018266 5.036038974478969 9.038701043540298 -0.2631161560030372 0.5268614609496409 -1.8779193508255143
Ni 7.997715034194983 1.19258248800931 7.5968118719515685 -0.3927398645411623 0.045639395105669785 -0.41289859887722435
Ni 7.908258647281222 3.096872046835964 4.796550787470464 1.2239908863213307 -1.404373570579878 0.35387146961073895
Ni 3.132987118888912 1.1256172009546106 9.005404055498438 0.36385609162727656 -0.8317798977004449 0.4297136135520342
Ni 3.262086955739054 4.7442088717902475 4.715398096151487 1.8269706276917892 -0.09319426206649756 0.7927495232708606
Ni 1.1592938128996362 0.07464366541726086 7.930857815258703 0.26374787604976513 -0.3300923649132702 -0.2030274182412568
Ni 8.632342750464538 5.168935050360763 3.962880993914312 0.38665560602029536 1.527792692969188 -0.1700136823193975
Ni 3.929162817308356 0.6446641963955744 1.6553089269207548 0.13387297073278234 0.045816287003166256 -0.593243745029617
Ni 0.3464996393810452 7.554995975737218 6.435678130061409 0.048237751960465314 -0.5957284591246838 -0.7178142074145509
Ni 1.3082707942658764 3.7101170542046047 4.231956753891411 -3.196236555935257 -1.6066684815304846 2.4260183809976925
Ni 8.576516792539213 5.036260652670598 6.649760148990926 -0.2694025032323812 0.28051275421292976 -1.5216313013534826
Ni 4.891744944910898 2.829897611383684 1.622864476257536 -0.30800041811023726 1.3879187674579645 -0.3929537803241813
Ni 5.482785186751332 6.366791632012589 12.280778771507409 -0.3698989553872468 0.016630152357513295 -0.5767735152887357
P 7.019901767509241 8.603515348961405 6.613003133841384 -0.3168226443875576 0.44399352050981594 -0.38122337926113053
P 7.871118313591989 1.9752358167393635 2.6720765938305644 0.08462426100929943 -0.5475693829209537 0.8008245869695111
P 4.227874180528904 2.2068063976701726 13.052317709904646 0.25427104690758145 -1.7103605578045127 -0.8346140247151305
P 9.1518363559566 5.0300628998962935 10.996057590465623 1.1287790796041721 -0.6717719204435076 1.961406412906577
P 4.918872813611539 6.35313071345343 4.536465001823067 0.6988410087461577 1.027219990512747 -0.6518255592285678
P 2.52867389532467 8.195719842276581 12.29221551887722 0.009968681176937671 0.3835718248886491 -0.4734673615992168
P 3.7847394754618344 2.8160519609981676 6.843469018450573 0.25187452165094687 0.52534399586385 0.5143098495368755
P 9.147532104402464 2.852832067626004 6.548410727096251 0.43327202032725387 -0.31681056020269954 0.2972310954088752
