# total energy = -340855.35661822365 ev
CRYSTAL
PRIMVEC
9.45466444795025 0.00000000000000 0.00000000000000
0.00000000000000 9.45466444795025 0.00000000000000
0.00000000000000 0.00000000000000 13.83785711170192
PRIMCOORD
 96 1
Ni 5.018913937078908 0.8595915948311931 4.649533443818866 -0.8558989022358356 -0.21516482493473912 -0.32134495773794336
Ni 1.387084328224907 4.607163311730806 6.857585172737834 0.32294264124236643 0.40702645636716356 0.10612151165112692
Ni 4.196953796645201 6.956392086291516 4.655096568226554 -0.46224501052083616 0.3058080384446088 3.301014151963979
Ni 3.769196424828343 9.01315027888855 1.496619449231689 1.4691288605793924 0.67827089790429 0.3235990438794427
Ni 2.2629549638534447 6.970592991900537 8.900260643028185 -1.553143770139467 1.884959031281115 0.2400711012581156
Ni 5.2810066830094415 0.47475934389017677 11.126065394891267 -0.6280004317845119 2.324525112147197 -0.6342919212201785
Ni 0.5725650085064456 2.187771474237644 2.815574412790789 0.32982085641943837 0.5104470241473595 -0.8464539547728518
Ni 3.7122888010862023 8.04917162770045 13.151125880334636 0.8213461039616307 0.4689517331170504 -1.9138839418455815
Ni 3.621013473023962 2.163728263209855 1.3722943970370298 1.5522407987092235 -0.011318510336612766 -0.4101382625232678
Ni 5.249948111154826 7.124363650239493 0.6937303119297767 1.7449326393524272 -0.9159770984746547 -0.29781704981933227
Ni 8.265967077510597 1.8523767168645429 7.401357892395311 1.0292295647436083 0.6382745600170104 -0.5886358139439605
Ni 8.331620265625803 5.019689219542251 5.973277194788731 0.4174180840141327 -0.9107513312993412 0.3781557960794003
Ni 6.253589078607802 5.003654109080933 8.255153778079814 0.19801145308390414 0.22722689830559578 -0.5305900747541379
Ni 5.668941009270245 7.688712555567351 11.375936096427138 0.14168629612961403 -1.560601511969093 0.933769132350753
Ni 1.8935706887277273 6.0170901086317405 12.658746824265384 -1.395119656081778 -0.17214204151631 2.5625128485137223
Ni 2.6186394305720575 2.9736053428124514 3.5772657963638426 0.9813250277528454 0.39524180502740963 0.8008605824137691
Ni 0.920264065852636 6.932840517801457 3.00627404397813 0.19715887527562173 -0.2554604392299923 -0.9884567537016203
Ni 1.4333743640849368 2.172445463590359 6.8544717518210225 -2.2282560678101175 -1.1571362905906266 -1.3578846829897195
Ni 8.50935849767905 1.3988364758094691 9.794656747664922 0.3645541461355657 0.8289498844508176 -1.0621877648371836
Ni 3.915422261145995 2.980649067631839 10.674481323856504 -2.099857747038661 -1.4920913829128368 -0.9652006113871571
Ni 6.421570097219965 9.341699859390193 13.065165019011962 -0.23973608651620001 0.16362886183897626 0.11260043450725124
Ni 3.557128307111743 5.356937091096023 8.494119469942287 2.134655571444137 -1.6487368714554445 -1.5477837913791346
Ni 5.236966857225942 8.522008838361389 9.211003308999848 1.333324220041536 0.5497687045651177 -1.779207501374897
Ni 3.6689013471316114 6.745836714844853 2.531165822979449 -1.4468952459921727 -0.9850369293867939 -1.5642671337461382
P 9.461660638596086 3.154491978040003 5.564935921346496 -0.8035011053604099 -0.2620193233944326 0.15305802830166543
P 2.511291173391751 6.113206224757775 10.823140790735915 1.4118919904441103 0.3456891909102627 -1.9038257862786305
P 4.28810621407301 4.852975125931158 3.955662257392701 -0.6099466596065947 -0.44072847660529907 -0.22072354996943921
P 2.0516148552792512 3.5681902642106476 1.5225933026864837 -0.26107110054855037 -0.410430596952706 -0.047344036501602335
P 3.600355031775153 8.693573174700463 3.6087885922300442 -0.8086664516114331 1.4314434302134769 -0.2829488744582482
P 6.155118751099179 8.13015082646294 4.93599085935955 -0.4885589658250166 0.3676888351098055 0.6654899440895378
P 9.477260834504797 8.849348221847082 0.11440521852955622 -0.01204844652410183 0.870705885341681 -0.2641101444851903
P 4.964218704756549 3.4892721822409434 7.605341326765525 -0.2587326822233608 -0.8362505318772888 -0.34471268592960636
Ni 7.3625644597692315 6.116212807969273 11.690235607065988 -1.8374843827389193 1.1145333683184353 -0.3106987908780068
Ni 7.885199386703614 2.8151168070441335 13.851555767307389 1.1898949730788861 -0.6359788220042982 -0.18113267505069452
Ni 5.419801153276035 7.4720400163916345 7.066038772335706 -1.6407831638260064 -0.15920270774682257 -0.19083139039569713
Ni 2.902997910663206 0.9236025077771002 11.540412271025145 3.3557652795629305 2.1123170558479365 -1.5084250870758538
Ni 1.820939958442443 0.7644521455156856 1.230127448054899 -1.2450433361162558 0.47207382368579986 -1.134407481534543
Ni 6.0167686500493796 2.533972912776598 9.404636722484446 0.38992373524860585 -0.2550572902543027 -0.26863554315936955
Ni 2.892134501512231 3.027317290059353 8.118047910837037 1.6343885731535723 -0.006758144659439975 2.8962422959589476
Ni 1.177540605846262 2.450459864011965 13.42583493015643 -0.27540602911398376 0.24157365394557107 1.010710422893498
Ni 1.8212614170248045 5.596130640365406 4.681388098398035 0.6766053372764089 -0.5719017890187312 0.12182838086342247
Ni 3.2179233200712414 8.627664710652203 7.421284542636038 0.5446493810606813 0.15989382027657625 -0.6184999484932444
Ni 0.17283504320581958 4.380128460606031 0.8452138870018737 0.20062472233703513 0.02961088088789739 0.8514195263082432
Ni 8.804400748301621 1.1293407278204382 4.596949438009485 1.100232378314731 0.7550154990551965 1.192005591663986
Ni 6.033068491107937 1.56712004367562 1.2306777095105883 0.5224543330208808 -1.5373510260815846 -1.2716059170961325
Ni 1.780927819602646 8.250480337572132 5.218878193703185 1.131284362524529 0.38262385915308295 0.35608030433659965
Ni 8.264690697845339 7.929399941778295 8.69065830173158 -0.2606180721715318 2.3830390492226896 0.04463280821802636
Ni 1.386592685687178 0.30355995758872506 8.22372741978832 -0.7218685799895825 -0.38631647751332177 1.427095437657426
Ni 7.610201024157693 8.451703955466131 0.982861506502572 -0.9421727830334161 0.21514657010229396 0.9129251990222084
Ni 4.770681728846659 1.2284256085012213 7.271987831390417 0.22379190448211778 -0.09276128829413703 0.6254735515976002
Ni 7.815376691681898 4.106879210934722 10.435141227292222 -0.3160803669048944 -0.22020058758643365 -0.19096174532597435
Ni 5.8952005779316785 7.714845247380489 2.918445886478505 -1.7125179704671472 -0.14814156483665455 -1.2036696582654753
Ni 6.596226108748219 2.692329083246297 5.31030479639242 0.07232796014044963 0.5573460026917434 -0.20449037594002845
Ni 9.199983897889785 8.830249800189145 6.6102747942638285 -1.0945504974386053 3.1098631734453344 -1.013571546491377
Ni 1.3362844175476312 9.378951236287357 3.2518409823760352 0.22865617455295456 0.15734431438184515 0.212471337262976
Ni 7.459219491753931 7.16291031613029 6.286593420352121 2.830099124472971 0.5921206871687673 0.6383545213253264
P 7.058927919400591 5.472491996790731 0.4875439408039702 0.20122558914582764 0.29226938052822565 -0.1037445267785181
P 9.179278183320042 8.317192448076293 4.53267284899992 -0.532927978858695 0.39494818504639073 -0.929421911125651
P 8.071427907196876 5.943911007823605 8.73975542738876 1.2007296018005449 -2.6185765242765093 -0.1434685848410174
P 6.723552071355863 0.5775400528016964 8.364804245989678 0.5176229730705085 -0.1275344301092642 0.14125846456357607
P 1.5029890564945367 2.4764034625413607 11.381595658409536 -0.36692778857406483 1.1587069775118561 -1.2595811247211144
P 5.1439329616249 6.217869357308946 9.615262058446094 0.5324767502538894 0.9746483870636182 1.5123581035816729
P 2.697803333810626 1.1227224628894699 5.412678009277475 0.8709640240990743 -0.4626191060308032 -0.26042163989000955
P 2.344803991721149 5.88047021112818 0.9397624198056875 0.12633423915357597 -0.8400171980085727 0.9641935102788813
Ni 5.41369344021117 4.364849723279681 11.200471711110888 2.9840688659556283 0.07505307238109654 -1.1976219094094989
Ni 5.730528691785 3.69014597756002 13.723223828430237 0.9011251210634869 -0.27830263393548843 -1.5034060365947075
Ni 7.46309590407064 9.017140147175505 10.71102738280531 0.20590139735494215 -0.7888116216690351 0.41478938814203403
Ni 3.542133209711006 8.14216770464474 10.619295394462833 -1.680952794066357 -0.3636612020076511 1.022139747776362
Ni 0.19434629516430413 6.152707811731469 10.270512832600803 -0.3557802565976776 -0.11111793642445378 -0.46835986516932243
Ni 6.004638315897334 5.664043493221328 5.4115018490526 -0.34318905019622825 -1.661622983389493 -0.48853582589656513
Ni 9.381305447669945 3.836532543168852 8.63437941315788 -1.067438985933794 0.28125297481306405 -0.6761417673764291
Ni 3.443464334254455 3.583922825417978 13.03611934516278 -0.5468247914454454 -0.42968790252042127 -0.24688555307678767
Ni 9.299201143869189 7.5321338619648275 12.133336953392087 -0.3644811268057852 1.4130338173580372 -1.8134453395118448
Ni 8.989929623645038 1.131260024650419 12.061407759189485 0.5678011365867964 -0.6377140595278501 1.019198148649535
Ni 7.231853727382606 0.20008054899377883 3.218021648578787 -0.8223953711617514 -0.07995925143346229 0.424500701892527
Ni 3.635999115760512 3.0847827389885323 5.94623780068005 0.4001382138877625 0.48590944401731156 -2.03817646797878
Ni 8.017574139987168 7.1677511041940845 3.008239668662627 1.438880346107496 -0.7807170175863586 0.8289372860453273
Ni 6.991015066544668 0.4196670156719588 6.043642587534786 -0.8967429328353911 -0.961113328691661 0.2722715972500601
Ni 1.8325786500567602 4.418372577242841 9.75012622481011 0.029861563446122764 -1.5517952265313728 1.3499003792326623
Ni 9.089194142945376 6.689969104163293 0.2915052607501755 -0.44231921813118663 -1.2675787982146105 2.150052365615181
Ni 1.9063439400444961 7.941917917162012 0.5926202421801172 -1.1060124753316178 -0.9701800668796194 1.5538107142995048
Ni 7.727145765487903 2.797937682216177 2.7850207200037644 1.0128868617195264 0.9489119015294625 0.4071940922932794
Ni 4.484498498567402 5.7949622282200695 12.391440776502083 -1.7089767900831085 1.5901951664658096 1.362128288757422
Ni 4.353882312822647 4.656195200205095 1.314271122920812 -1.1885171188947532 0.8460760026081429 1.3125566484768814
Ni 8.940264272670214 4.971687889464356 12.466732994756036 1.7272113108132638 -1.8562873743780355 0.6202182167359318
Ni 6.58052191153345 5.06943020783057 2.8789518632361606 -0.5081178617935508 -0.09314669665801378 -0.3974092449923736
Ni 1.6191963340181537 9.215243725887762 12.528657263315852 -2.484426902843573 -1.6320432128498472 0.7516326986258927
Ni 0.6392931919397247 7.08971230599378 7.334492616331319 0.35049946781471253 -2.5952625321409175 0.1837803970861867
P 2.6295690223723422 6.712234838323908 6.42408692882657 0.6558866166718188 -1.4595293898164152 1.0284530915888996
P 8.44626752355855 1.0592911208582318 1.69897006309679 -0.017634939472943822 0.3959560574856149 -0.9894774816566507
P 0.32973708632354226 8.755217585200338 10.174740866251177 -0.41862753094120164 0.5006428935727442 0.4634757976041437
P 3.482597189324852 0.5725196261183476 9.33392528902914 -0.3047801114007267 0.4222191049472019 -0.42705020778725805
P 5.689485994548808 2.851186350917911 2.7909157031244196 -2.2958238875577623 0.7773612137402484 1.5083919198450733
P 7.191227035370647 2.27587003513302 11.670737253112936 0.13974382769126256 0.36899958350142903 -0.5851907928181534
P 4.8982251487306065 1.6255593230160705 12.969862949472438 -0.6203729971462413 0.6242918725846733 1.0287459402389703
P 8.677339516291216 5.006017775127707 3.796097780839892 -0.14224833928067113 0.6232104665950364 -0.6894012034894966
