# total energy = -340886.35196189047 ev
CRYSTAL
PRIMVEC
9.09729315401603 0.00000000000000 0.00000000000000
0.00000000000000 9.09729315401603 0.00000000000000
0.00000000000000 0.00000000000000 13.31480809939220
PRIMCOORD
 96 1
Ni 6.477882387734228 2.2126527872055672 11.38882149550459 0.7610830454055151 0.5750249080287452 0.36517918131407434
Ni 4.552604000333926 0.6309491487724874 6.150695503017512 0.9829659057903781 1.240760906690818 -2.1831409206390338
Ni 2.6582837022222177 1.8323131466009717 4.605632123302837 0.11832730968869944 0.1366839578190162 1.1033896929967901
Ni 3.5620816024993265 4.398786964280002 4.635843324806946 0.4288047285845196 0.37661956194053203 0.005184372414416878
Ni 4.066854021619748 2.677961147750053 2.272624874192691 0.283718405634421 -0.0024584888428215725 0.34700585283915725
Ni 5.339055913619104 4.642148658831608 2.8621913452205785 -0.22112747027607724 0.668617691085242 -1.169003731452174
Ni 5.628659150296455 3.329636659974259 0.2547924436527271 -0.34841507448185804 -0.21912483802375166 0.0183389075185039
Ni 5.593680057344756 8.236189052888625 12.286146671559298 1.2800319363762986 -0.7713625729546522 1.5858816266921205
Ni 2.1401746510427078 6.8632983180311635 0.06760835502968746 -0.09511719012082327 1.2357367140033493 1.3406372087631813
Ni 0.6586585946038482 0.5195236802962817 0.1301267744270014 -0.3645801142774947 -1.225712496998128 1.1474913113016947
Ni 8.566184272064168 9.048459084716566 6.346357359318494 1.2684205773896156 0.5255293724017789 1.7333277081236471
Ni 8.953674385246146 2.7007953540722287 1.1410271093778068 -0.11110122425390544 -0.24717197396895496 1.3383034184236824
Ni 7.211642777904647 0.910857399920937 4.765383323812522 -0.32874922062181444 0.5778608348156434 -2.5597057180822302
Ni 0.785361147811859 7.841894164276771 2.513942406927328 1.3849311455845503 -1.0370850562322849 -1.2629657249226314
Ni 7.840302137939568 4.091316643452549 3.849923603183063 0.831660341403445 -0.2446738901374496 -0.4276230495715926
Ni 7.942573909841521 4.0829926200323134 12.820376126564662 -0.8487404368141834 0.6452335078333469 -1.4835473499975675
Ni 8.250762916844053 7.477638538324609 8.412922170904926 0.7103909183672862 0.5181711322644946 1.4931190528464027
Ni 7.133597098208253 1.1187669422663595 0.285807845889458 -1.0740300088877504 -0.16401581286474978 -0.7485010949754464
Ni 1.953789304776277 6.417039689772987 8.779931547555782 0.5194978214957182 0.40721800355267934 0.7808432587515778
Ni 0.4063533509545009 5.067237885451655 1.153710555773973 0.36665165209454276 0.9157822088550293 0.28447713817731657
Ni 6.858786060526861 1.9916886288950757 6.716708171818807 -0.5726759481805944 0.8112707220034996 1.3085040756740627
Ni 3.7744761104689855 5.019622652029237 0.14392463925921034 -0.5126633150723882 -1.8039551406332222 1.0030318233023179
Ni 6.203417047200343 5.7015830538337315 4.753053762127881 0.0701054985678341 1.7374751546331173 -0.42495115916638426
Ni 5.810040985217389 3.3110326950623663 9.186112959665865 -0.9810190664766525 0.06164116985056481 0.2835512839289375
P 0.39084246578346105 6.396552585136517 12.313175639847671 -0.00195763794700308 -0.7582440332948231 0.04769190675932431
P 3.9904094655539133 6.693843034699222 12.20158369090306 0.7457155618105092 0.5912668238089043 1.3242088880038292
P 2.5341238425070545 8.880723189828803 1.1891599787921499 0.10342339599367349 -1.1295090157916612 0.12366080608647087
P 6.886369053980581 8.018481725599385 5.72366309453674 -2.099402147558481 -0.9207886609306852 -0.03160091473473268
P 4.9024859027844805 1.3234833346440198 12.711780826051337 1.0884549260638288 0.33101461961722345 -0.15718053511047125
P 4.42125727886796 6.283391353088091 8.168009387836214 0.005022392915255867 -0.3759099374680171 -2.2026666493767872
P 4.58581821837467 1.3193804553407122 3.8797354335088676 1.4049667240791868 -0.08556014256000748 -0.19299060283054503
P 0.43325859605324024 5.741856771518302 3.210013620455458 0.6716544210290368 -0.2008867177491702 0.6935833598916441
Ni 0.8774248468396633 0.15472858484814112 4.334449086211598 -0.03264863927295668 0.1354287452556764 0.7453790044066969
Ni 2.0549148177154435 6.599849799750727 4.543785084155155 0.13479522543673558 0.31621972069623605 -0.4242600466366306
Ni 6.388756204730897 6.010072271516994 9.15576802794943 -0.22178078758936 -0.6421870076975391 0.3210122569888729
Ni -0.04763433773846448 2.3872389439899813 10.18215377564988 0.5809389595203349 0.8525448981619382 -0.07917377941768945
Ni 2.8158852123120095 5.647062974754528 6.6605997053197425 -0.23761904017319727 -1.0522000574968522 0.9556651610928961
Ni 0.7475000323251528 9.139686742485004 8.637169542387397 0.07434833300458808 0.28107891112904493 0.7620407813330939
Ni 1.3861636858630608 0.6583410990657432 11.277016669895461 -0.1317770074357021 1.5293350977556435 -1.565296089231285
Ni 4.366391502641249 7.159551676151348 1.5224020219662524 -0.3924107633365177 -0.01850808610651651 0.2054329423589559
Ni 6.052447463966673 8.080989228244672 7.9601517000629185 -0.8074019830767126 0.6367825488525163 -1.5764688180186526
Ni 5.575667416500967 3.043972551319817 4.7927852811284675 0.24165567213641606 0.03659039752952408 0.5385147289178532
Ni 0.9521864036347399 7.300368680000337 6.675818567374072 -0.27010878527078647 -0.4884422377414943 0.13354412663845386
Ni 5.374981125079771 4.911064650418669 6.678468608928514 -0.07779386835102732 0.13842279488699388 1.443945162224913
Ni 0.6038455826785993 7.688932273798258 10.45742422664572 0.15472358892954644 -1.5253853690792762 0.5387602692697561
Ni 5.049225244607866 0.22079494865408003 10.361038403544745 -0.935416181035873 1.0540131994461912 -1.146716123698567
Ni 8.419490416707559 7.205165505035567 4.318471509891424 0.396430168908556 0.9646365113535709 1.9544757472250147
Ni 7.691024651270012 6.135378390194942 6.691822525844977 -1.4571611466945549 -0.0873624858760689 -0.1715134067933756
Ni 2.926963164182037 5.364555626894426 2.3907805202932577 -1.2096423309091426 0.48516099588706113 0.3097688228645697
Ni 2.355753211686774 5.294206257376742 11.455409134219796 0.928780163776594 1.9163316320551256 -1.169273954394425
Ni 1.3438157852934471 3.6150551417081034 3.770607031604913 -0.5691134276403167 1.105237030618174 -0.8121523532775047
Ni 1.728231013321284 1.5231689237961168 2.2103912000774026 -0.30503413639306176 -0.049108327490876715 1.3267607078914052
Ni 1.2606756213180026 3.2475608793214015 8.191296639367492 0.7611689202511019 1.3616557199963775 0.43570428391783034
Ni 4.198309910605981 3.029316811724189 7.172620847785785 -0.7530426915995418 -1.0146254416771883 -0.3264984769144248
Ni 4.2600350460227 7.273622637535318 5.9833553403907125 1.4302596943180206 0.1256032745248224 -0.719392093424632
Ni 8.299215101255173 7.557157979544585 0.5341075512744013 0.5615039907241748 -0.2657029428936069 -0.933065164305193
P 0.2077066727035961 5.534593137001116 8.068068342491927 -0.006649644106033708 -0.28148000322220557 -0.10893327006830916
P -0.3455506810840246 1.7880093279599367 7.801758725451203 0.5914432014857686 -1.164243333949053 1.1029420639364103
P 2.0786223641997426 3.3732035978535024 10.601383435619683 -0.34758589371234333 -1.0061302597219832 -2.4401661332529847
P 4.192296599698029 6.539916831125032 3.7687166140456507 0.39149647905236445 -0.5891649469745531 0.18208758276479609
P 7.125300366668084 4.46860869078307 10.569001619920964 0.15340281323559388 -0.8279978049501934 0.32302851608795335
P 6.7616542593707365 8.112847949575453 9.993868914530832 1.098940656086501 -0.6191216412376433 1.1138543399735397
P 2.4805680765235287 8.599725992665707 5.962291467355506 0.12371814168696758 0.2480250659978696 -1.243178257883059
P 7.219521033950465 4.31935849599358 1.6614086644375072 -0.39166102965468674 -0.11010029379321683 -1.3777066028116531
Ni 2.8148117316960666 1.7919393586894907 0.024186973844131227 0.4033469506330472 1.6637228033413154 1.045121553383516
Ni 1.9074385951302661 1.2202654442330998 7.101932149225942 1.273966189798193 0.637791706843321 -1.1702111214967137
Ni 7.11671252174054 1.3191075365400489 9.26815871925065 0.23506104963803387 -1.6521430689235161 -0.973502189274317
Ni 3.2595056254971055 1.6314449093126662 9.283789688693982 -0.6971093707670317 0.4752589062820008 0.20243812139669007
Ni 6.420815066515499 2.423327906731046 2.54212946065985 1.2365216717984897 -1.0036805126299102 0.04247950932044942
Ni 3.8900026387898268 6.852736360445489 10.090188327390313 0.8587795662177404 0.8304575793445956 0.5986669729277173
Ni 7.495259995554112 6.523887400232732 11.597650774208251 -1.0383299843829796 0.02661040349867675 -0.6021731863087629
Ni 7.913680906144616 3.779033854440065 8.279786921565277 0.2613444088145951 1.068069163318625 -0.05517484539993078
Ni 3.2719962092741364 9.009240653061227 12.250476184312584 0.9931477314193865 -2.511229624858714 -0.522298524169307
Ni 0.18023466622881237 5.154599193544028 10.421487188703694 -0.36729905587055456 -0.8551386270310434 -0.6406978247465224
Ni 0.2108807183553121 2.2764339109206175 5.767842280258805 -0.04841952895396822 1.523529289707144 -0.8588893523227272
Ni 4.055327750938394 2.9435020435022423 11.299931842128503 -0.20483156132953112 -1.1620434980842567 0.6569752217503072
Ni 1.382679422507924 3.6738236567843017 12.614915575590526 -0.8186135355218159 -1.0031932885808466 1.3331830664779816
Ni 3.719546653188786 8.712641597793535 7.950751466838734 -1.4550428147999717 -1.6939173246468244 1.9596459785720441
Ni 5.5148974968865705 8.424857819787274 3.9282276460107513 1.357319297404553 -1.1931692729547838 -0.10265746436192642
Ni 3.2155566012969334 8.656274768163176 3.469133646557372 -1.2474861412297933 -0.2912149711217823 0.06464884632863704
Ni 3.7002876831553015 4.308132435992956 9.159043963286727 -1.0781980242225109 0.9751173562802367 0.2651529839274079
Ni 5.137177876768344 4.92153563507079 11.457978209863375 1.0309874279749793 0.8038158083873511 -0.7373520203371624
Ni 8.136737441926861 0.2857468940239765 2.1988339985986407 -0.09781376311637993 0.7153775729486003 1.3787139610302448
Ni 4.690427994668973 0.389523358246921 1.660835534956114 0.7792805422501482 1.1522239408906738 -0.9269130286608682
Ni 5.9961079262163794 5.906872575692785 0.3220842128736449 1.2719784699442032 0.22411046416380115 0.12363098128979999
Ni 8.137647171262405 -0.009159154950265664 11.352472350173562 -0.9315083613410344 0.7507793494866618 0.7883732485800358
Ni 0.42284856326660036 5.048288223392255 5.7365384938227075 0.6826227471150824 -1.1287266290996818 -0.2550763164176962
Ni 7.229591737694946 6.367468538279148 2.602019672006774 -0.05474701383389281 -0.9349112163749963 -1.1031721776693453
P 8.963563143123519 1.9924073150701564 3.5529770313091933 -0.7917473072585912 -0.75186332657946 -0.699197363644312
P 2.3657511370844118 3.5339254795642128 1.5091399877126794 -2.1092559004241096 0.2166036142637947 -1.6411372047313155
P 5.192261988035585 1.2912061378188882 8.178194717476975 -0.04273816229847478 0.2745485662096949 0.3719272986711853
P 8.83107925998812 2.0813424549130217 12.27998143585231 -1.2104817960913024 -0.6807797803690727 0.6154112822655917
P 6.4661286847189885 8.020637784124625 1.4779835774289392 -1.0779992779481435 0.9471422112235494 -0.2996525603661742
P 2.28124637910565 3.6216142902173822 6.190467050108862 -0.7513377930932932 -1.4577427302296377 -0.603131179346658
P 7.399474593814594 4.0664173515386866 6.00042459191354 -0.8264859962913571 -0.3395116013446411 -0.16602975797098504
P 2.602953964034379 8.564965234754538 9.913779982746805 -0.47791742695077044 0.7593506360954406 0.12824328325083076
