# total energy = -340868.83038065984 ev
CRYSTAL
PRIMVEC
9.25448494745590 0.00000000000000 0.00000000000000
0.00000000000000 9.25448494745590 0.00000000000000
0.00000000000000 0.00000000000000 13.54487417827715
PRIMCOORD
 96 1
Ni 7.261115137528241 6.346651719522265 4.043361272030805 0.6905314604391979 -0.19974771904872052 0.6387003347005193
Ni 6.565992266516686 3.4761881331225686 3.5856261190483867 -0.8881294801347672 0.8502962113370776 -3.168244698708021
Ni 8.981246248867544 9.424674893618297 0.7150422243447812 -0.41204936350305166 -1.739192137324224 1.0827689314226447
Ni 2.1215166311166116 0.05685122628755837 12.013179311736359 -0.8615666420445742 -1.0717872356001608 -0.05480100700027982
Ni 4.138096657770554 4.14323289689894 2.902070428733356 0.2816255276611343 0.05589603983667148 0.8431251475099351
Ni 4.54111096689308 1.2591189452481246 11.013756945855912 -1.5624853592553671 -0.35662486398615995 -0.18679475843247828
Ni 8.684825097007653 7.458392992482886 9.34523161875377 0.6811227655307883 -0.5826366589377321 0.739616648001623
Ni 8.949706964273773 5.102941491659302 8.450050845518799 0.15472230337796578 -0.0361319698358668 0.08971684504085839
Ni 0.15528100240577913 5.730691712482284 4.711435134529838 0.6363901985101039 -0.46050951588696815 -0.7698754468861644
Ni 2.235198723824913 1.000918816091367 9.499088355930974 1.2271075775734417 1.9542412626167052 0.7744388978871307
Ni 4.228799864432395 8.53173740752697 12.895681440636391 0.29549251545121374 0.892685732046882 0.6769737763594212
Ni 6.259122801186616 2.14937263071381 5.3986750352899335 -1.098077022534625 -0.3689265641716485 0.7307586833903609
Ni 7.931982003574926 3.9340630288272185 6.601961673039752 0.4999738925301776 -0.18074058181859842 -1.216327456238802
Ni 5.791984166081037 7.609713075344612 2.8986703309752127 -0.2982847334843701 0.8115656275360991 -0.5065083512145857
Ni 8.434324699301019 4.6728393051876065 2.33299641862337 -0.4394984608529399 -0.0729059441311067 -0.9075569927317596
Ni 6.9760492386602975 5.271280572281576 -0.03496899670364605 -0.7666163165189184 -0.44409122242994487 0.173743581675475
Ni 8.006767496181226 1.2286901988442744 6.6511696202351756 1.006251101570564 1.408706393627277 -0.09402087173285097
Ni 1.909598181024834 3.8985350612346457 1.1068604576159153 0.2571401409252604 -2.0450441416328906 0.9405756137496253
Ni 6.1174458916073755 0.7737147332638109 3.0278074134932558 -0.210661794858063 1.5266580651441128 -0.9868816959050166
Ni 1.3731712173530668 4.868516134251781 6.471659450870784 -0.5774456016550958 -0.35146594549303983 0.10637476531251358
Ni 2.574403359451531 3.525653354998657 5.197398317403079 1.6199829392512035 -0.8805699226199546 -0.2708680320343142
Ni 8.850980119189748 9.305384583050893 11.458543223543844 0.7739017944367381 -0.7887900244024802 1.4102390282217196
Ni 5.971752535574587 8.85136880755622 9.37507085446847 0.006073716997905669 -0.13739923871848594 0.19582627250712725
Ni 6.7033565861250635 5.939769035704846 7.9418880042290265 0.6463449957299707 -2.343500624808435 1.4043293476055039
P 6.202809260472678 5.214245181744189 10.093911119422781 0.42523269496254507 -0.20704373848950147 0.6202110176470803
P 5.640441975581327 1.7849402692061411 12.740647532977869 -0.2589617675150314 -0.22853430426310964 1.8908923660464148
P 8.957156824631163 2.8446620824538535 8.255776996367892 -0.08738716846641724 0.10815165470727825 -0.12708294439414244
P 3.83534543822811 5.296869223074351 4.8918531688644915 -2.311312213001348 0.6982131453541717 -1.1706299542016871
P 2.908582809768754 3.4554210689710354 7.611786079965799 -0.21908729991759687 0.4079098874133814 0.09664776783273678
P 7.677705776022558 7.974765487341654 13.146573303054973 1.0791135940582448 -1.1302217255879696 -1.485609631843235
P 5.591245133767803 7.458374483513054 7.357061009895004 -2.497828006740827 2.9503719879238157 -0.07929153594247634
P 7.999937686313208 0.4048254118205901 9.559010220313665 -2.269303986890363 -0.5791690121041058 0.5182366953951075
Ni 3.114152683208147 1.996969773116911 13.21391911523729 0.9005782474210813 -0.1520388430085317 1.0695277501420226
Ni 8.648214354679906 1.7970266265064538 2.9065542266751643 -1.076780317939378 -0.02679295182312805 -3.8531441576724226
Ni 1.424746461790006 4.415157427186145 12.543420577690263 -0.4249971819129713 -0.6109427049712769 -2.614684645421271
Ni 7.08160589361234 2.9932983646899354 9.675198427537223 -1.3757373949004241 0.8076549796277833 -0.44444500622493777
Ni 6.2889407515860105 9.085572057325756 0.7375574606969487 0.21484446548084288 0.8479883891395071 0.6426690895402802
Ni 7.5988853279928765 2.5939118136544863 12.325917045951671 1.1043571991163819 -0.4466800662030436 -2.603597020148542
Ni 8.9726673413504 8.129047005376503 5.411150080956719 2.102090750134238 -2.0183424639719885 -0.11844660887538312
Ni 5.71904957045794 4.845962954511458 5.244019636064477 2.4753781623777438 -1.1952819484224124 1.2047148117005382
Ni 7.748706184298209 6.862274601102835 1.4304879442319005 0.5443606461756688 1.7318133283616497 0.986710717544791
Ni 4.374965199195902 9.153518485579124 4.463036430347629 0.3055126186913771 0.8254421284078753 0.8672305251985709
Ni 0.4862343392812801 1.9668186612605412 13.263398218840754 1.2382805634711254 1.7188529115462396 -0.8237428863285813
Ni 2.0609090094016436 8.064941188363282 9.502961357868326 -0.32477840889952453 -2.4557164222827574 1.1240544204349934
Ni 3.019969790217884 6.269589623626627 11.480405093260941 -1.1784929018895316 -0.5068371953089142 -0.12882358123433296
Ni 3.3601831647003477 8.437730349750112 7.630369085677152 0.9357396258135626 -1.6382064042377658 0.0722791091803852
Ni 5.291557148732561 7.228474569229464 5.228159299815413 -0.0018771624180548313 -0.6363776001046137 0.5497900447213563
Ni 7.080152939480526 8.905044820069094 4.824372241202401 -1.8547354565098833 0.4386132300345091 -0.16449198117021993
Ni 8.508980629118494 4.826463754793419 10.896241645495397 -0.3141029314635494 -0.40729153710309207 0.2749517151853845
Ni 1.7793968327414496 3.5656604932905807 9.795612232573433 -0.6018147745280796 -1.3510766589289507 0.3625756822529562
Ni 2.4636734474314377 1.294878274963598 4.189565475630959 -1.0943725770998443 -0.26507096573656286 0.9985506476025126
Ni 0.3860869307626474 0.22290630003255965 8.395167122724384 1.1526993378651953 0.030241315383044694 -1.8660758212233668
Ni 0.15883102281956166 6.841646354225044 12.057118680669095 0.9486679038394566 0.8263985787838736 0.8891316961470366
Ni 4.22646773423356 4.379129717408108 9.268554509430636 0.30491740830953945 -0.5631842066400753 -0.03484538981395935
Ni 2.011230934372487 5.32240234695763 8.569719664519269 2.1206872821895026 2.778046626752106 -0.1660205019996044
Ni 5.81321395447837 0.4102753779876301 6.916514211747096 -1.5006487855645447 -0.06481159715874643 0.7978593336936001
P 8.662734641513131 4.0646253020223275 -0.019786088750435415 1.8011004447932466 -0.3003624419490053 0.27647277981560126
P 8.187276224468055 2.801193766803341 4.650429569963482 1.958749177789388 0.5317529847139874 1.8021085743427867
P 1.9130686128683387 2.1144647136106096 11.45079629422065 -0.7021477045218875 0.5840014004957427 -0.6498141852254938
P 3.851642586165209 8.199945614318079 10.916572823407385 0.2900824001792359 0.3822315088106707 -2.3090455284543587
P 4.074509091912629 5.006185851862388 13.32657118377444 -0.8070577123634166 -0.6823250133690055 -0.039305996688474246
P 1.7822749775503295 8.963255530190816 6.239541236552825 -0.8945405258674335 1.4553428625388936 -0.38458869618893765
P 5.041667547030381 1.5817025259655837 8.972721017362913 0.5398789562552315 0.8381212665374405 -2.0487946098142586
P 8.132563709644588 8.705268254187125 2.8530651547575934 -0.3980700185048241 0.48339310535336094 0.21048541718119881
Ni 1.2903343228698358 8.524148729895838 2.4927852806317388 -2.045772278048167 1.8802474847380586 0.9638523248893788
Ni 4.837124921416666 6.8847352359939995 0.8554494185935444 0.7026110173115512 -1.089781358184736 0.6395128032994857
Ni 7.476198621461294 2.426424145644486 0.9842709231759513 -0.30866890493217164 -0.3120573617884303 1.2799589170465182
Ni 0.8703297048900015 3.6406958569896126 3.5014852676404895 0.5198593186001951 -0.7906967545068898 0.42804471049004345
Ni 2.884687729715609 5.76765412523684 1.751582478326373 0.20448446240275753 1.1301970429976214 -0.03855189213126909
Ni 0.7630591193315136 5.893681700823103 0.5381066526840236 -0.6826685127513534 1.404377684344936 1.8254691034455983
Ni 7.718166384075365 8.31322976417499 7.375116509966145 -0.9887850835753164 -0.891760134908819 0.6096270714836468
Ni 0.8653878099448507 7.100799695328151 7.2334099860351735 0.14592321702909708 0.47479379372012426 0.7428935189806819
Ni 6.515416506450675 9.279564570135218 11.89635439595058 -0.4301689559218979 -0.14675136935734726 -1.1219893103758483
Ni 0.19540382175915275 0.8253852988953853 4.571381461604866 1.2478311832740379 -0.20418852842889348 2.4841643932108055
Ni 2.892840930926616 7.209067914360585 5.617384426413081 -0.5529812979651445 -0.5478141519419081 -1.3898015863029742
Ni 1.1920516930617797 1.9319385076120887 6.767479986659625 -0.2953439056884914 0.3453374639977988 -0.25026269707913673
Ni 3.337805820173429 7.750566335766328 3.047785995529944 1.3372006722778067 -0.1559122099210089 -0.057292920184198105
Ni 3.4158211280154167 1.3393275660152075 7.248485541963358 1.0771472143604932 1.94404529592031 -0.2438763339368187
Ni 5.834369706996376 3.399764596686135 7.509779445427539 -1.1566264408337434 -0.7352645416805142 0.3836952378403908
Ni 5.2201402886356885 3.2085761928062255 0.7919729065546126 -0.6816272159710326 0.6225476362000568 0.020605077844861288
Ni 7.273090441009561 7.052139613639755 11.171866118852023 -0.34076038615007764 -0.18562619204567385 -0.6132952643638534
Ni 5.3598089749881535 6.269154662835574 12.090384852148194 -1.271288900076346 0.09471018449039173 -0.9992196486450792
Ni 3.4881634366038887 3.7100582214351285 11.473361504791363 -0.7797525967905604 0.5279058430537553 0.0738557096388857
Ni 4.177298655874783 5.612872865016525 7.007914281123113 -0.1900844849273436 -0.3644906398874819 0.7882750324392745
Ni -0.16373960161901488 2.1164636823524687 10.283945489033664 1.3464417312601005 0.22035639643800758 0.8229738693730408
Ni 5.674193082070026 3.7120849536317357 11.796447604039763 0.8081272912785114 1.5501538342732077 -0.4554475279830285
Ni 4.437747624866133 6.8438766850898025 9.227012052091148 0.35255326501994766 -0.2866929148817127 0.624399601807131
Ni 3.4711259298735095 1.8921257135034015 2.2111055977945653 1.40746429369006 -0.40118028199903166 -1.16459351819962
P 1.4007773458575328 1.8734594174278039 1.8671469332665913 -1.097357627870097 0.1411659048497698 0.020479608010590535
P 1.7239902315492808 8.122846500482774 14.05876659591105 -0.15741964770447084 -0.8012051102373814 -2.3435309638257382
P 8.134886585358508 6.261603003144108 6.361986401028099 0.746834763016617 -0.3351145007182099 0.12119563237542999
P 4.486046781642804 2.0927999644222237 4.1919762689515805 0.23189962119091675 0.9132908098917433 -0.22227135407253332
P 1.5626197780687652 6.596189650797635 3.343619487597668 -0.21602485894218923 -1.5093697103773103 0.4970448918088407
P 1.0317269963767735 6.165171270319255 10.27048206437785 -0.14789062516811305 -0.8155377248099696 -0.34359399894413084
P 6.2306467511000445 5.391912783161803 2.2881084649867414 -0.5643106069350347 -0.17406728356348086 -0.18377962575523832
P 4.256877971667578 9.119184346540715 1.4804140394568064 -0.13092957183374226 0.08016134014193936 1.3135303252440604
