# total energy = -381168.5888937774 ev
CRYSTAL
PRIMVEC
9.26190686989335 0.00000000000000 0.00000000000000

0.00000000000000 9.26190686989335 0.00000000000000

0.00000000000000 0.00000000000000 13.55573691197974

PRIMCOORD
 96 1
Ni 0.6638906884054955 6.59808039964596 10.371900752186756 1.2251175437266062 -0.20190384615977486 -0.08193257310974922
Ni 4.073164248514087 3.3647765821035702 5.026561761865017 -0.36572631206679596 0.21273924621238202 1.3056054139700288
Ni 8.148968140416686 1.4823866793621676 8.284954232076892 -0.29346545771885585 -0.9150905821046434 0.9450506188018434
Ni 4.080573773815175 6.313545366177555 8.307185586552144 1.5672655542528298 0.8835943112685749 -1.5233534262509119
Ni 3.922760146808627 5.565526001312844 2.7819349862040252 -0.25227972750916555 -0.049315815515992484 -0.7001867241407748
Ni 3.9080800248058463 2.125385284990583 0.7701516169390609 1.1454619395764918 -0.9394510132268789 -0.5518741809438946
Ni 5.011349080231221 8.842573803851533 7.912456092805957 -0.4888173616927259 1.4400867077107713 1.6989646572627448
Ni 7.769081778229905 7.339551596525834 10.785323552076923 -0.6823800349766571 -1.1965644146792618 0.6644756438924104
Ni 3.1074993398365423 8.121275039603871 6.2273021964355415 0.7688392923121663 -0.33699911933543253 0.19883214921298661
Ni 8.21771001139753 4.88517412626032 11.083956133621312 0.31397411919516893 -0.4327423730760289 -1.055474100262434
Ni 5.70548267234377 4.693934278239238 10.685132877146275 0.5205769134925099 -1.1418562245031045 -0.6387278455043451
Ni 6.551233675929832 5.954220436701293 8.879685337512694 0.057251782533617526 1.1795663374593686 -0.011000721985877829
Ni 0.9907646756349798 3.260237442011845 5.55558797550276 0.9324056763443233 -0.32054097377940927 -0.4523115534572081
Ni 2.906719727990311 4.088437132540954 1.0842932611292881 -0.5211453844014702 0.6384005440719135 -0.1866705741497882
Ni 5.345879885668717 7.48103648215011 1.6672876784881676 0.19978834247866883 0.09356630069393562 -0.2905678244560867
Ni 7.879252157550457 2.7859722513024554 6.496451350616238 0.9202816393872796 1.993534146679057 -1.6844464090419118
Ni 1.1388996102169815 9.085235757462165 4.044760759463029 1.0376571266856711 0.22328051206333802 0.426340069094111
Ni 3.554988358489125 2.650628009771457 7.690332417139279 0.62386172702579 -1.5059378018776257 -0.6765297468434671
Ni 4.087010798920495 0.8275532094465896 2.9769620278446247 -0.08135124668498248 -0.15111581697363008 0.3026031583540659
Ni 1.0115669179177844 9.181846705481725 12.525961826283211 -1.0480886064316401 0.45931729535107996 -0.3942449883317791
Ni 7.292751182342838 0.25489785845471563 6.178854089063716 -1.6212785181341756 -1.5564216695597906 1.5504317705249426
Ni 5.370201652469539 1.758187734881915 9.344809952572527 -1.2484549329009658 2.1135265027750054 -0.9243540096844404
Ni 7.581120645154556 6.9942399317752555 5.12012369022318 1.406415026489939 -0.19426921243265252 -1.034469987206941
Ni 6.506081881126327 5.8206915288690615 12.665964806847269 -2.022713853566807 1.02415420710323 -1.114424867765029
P 4.4842632360317 9.149985746687047 10.33433816367289 0.5826549137701772 0.016681060200106755 0.029756148216510042
Ni 6.565950845559117 1.8099803167365203 4.668283427837535 -1.1375959065648538 0.3248887092251437 -0.8799068351146587
P 3.6773751926498455 6.091278130958168 0.5577427551327717 1.228930232604477 0.9991484290875116 -0.28765759278782715
Ni 4.796889632297856 2.070119488151093 11.880369886799416 1.2244871092314589 0.8943564348810855 -1.3836741332489977
P 3.771309449654389 5.837353698889883 5.856674962303132 0.3809734680338536 0.790057064040362 -0.7833904506534637
P 4.52576583962442 0.6244136637919614 5.300984645678763 1.4420705709100197 -0.3305803602932823 -0.33471520839726226
P 8.028572616180632 8.093276295872384 1.7737949737379943 -1.2230328932834356 -0.8257684013990423 0.28910615230889564
Ni 5.617244487914438 4.919480228404356 1.1143342552718867 -0.8915809290184775 -0.6536474429286548 -0.589786639718952
Ni 1.9441297723127182 7.071113756774043 8.239637575335436 -0.6254547825445228 0.37197049320429487 0.1811452734561848
Ni 3.947971056645579 5.154315870915713 12.18773274152981 0.290018636820836 0.16943749810095335 1.9710285093773732
Ni 5.735028154481858 8.508959927170046 3.9459260276624786 0.1572854361194517 1.2522329118861595 0.5936242682974874
Ni 1.4785429881122283 6.3912620246793415 5.78038278504048 2.0557859535304273 0.3595332958822066 -1.5060984958252062
Ni 0.49991326253910523 4.364034426114922 1.7876767193895826 -0.38195588655178087 0.20529538833982708 0.771783976762787
Ni 5.836057031962192 2.050113769838155 7.068977961106005 -1.4188712499754208 -0.6192586810361399 -0.9695321488829755
Ni 2.5356136532853193 4.504259692438012 7.061305397656729 -1.396379239520492 1.1806821962313665 -0.23393310668117775
Ni 1.2211082934325523 2.285292102894688 7.892922731730964 -0.5640295853595061 -0.5818432165021592 -0.4773911221336552
Ni 4.846246332709728 7.804582666328743 12.747462175633935 0.27429891209273405 0.18514616708546178 1.2787463847956557
Ni 7.182506707769274 2.408929294449967 10.671930029250397 1.3436955359735312 0.1389259597756575 1.6690097627718676
Ni 2.452117565048684 8.815112250704376 9.994210388061084 -1.2851036944722514 -2.7187559594115887 -1.0964482286819504
Ni 8.413766050864318 5.311610831151186 13.401621378747114 1.1781134070629258 -0.7056914560090879 1.545203175136152
Ni 3.098478242782468 1.6474431173505288 9.710312573768572 -0.7477292498064284 1.5108192983396431 1.057979640293107
Ni 7.2550366985603 6.004521851589054 2.3573423269224674 1.0192305445493672 0.2556784687780693 0.499782602454978
Ni 3.1756669726065523 7.989691132163173 2.597238675214468 -0.20838688278095724 -0.2229688943601902 1.2282949130133234
Ni 8.436318793499504 1.10541781776269 1.5280432480768091 -0.553312456052318 -0.3075705296616703 0.21121895291311366
Ni 9.288395679311371 1.112623581117998 5.8753275160579586 2.0066352028373893 0.3956508675403702 -0.7273748545197924
Ni 5.787450545987056 7.410766396575917 6.417462106143989 -1.4336728337646276 -1.6380601084678885 -1.0904652716256382
Ni 6.277303525548609 1.4843131559404505 2.2522854462503292 0.06479874164294001 -0.4071483266570085 0.8191151577485828
Ni 2.906673418457179 9.085189447929032 0.5180193638029764 0.5529553298232155 -0.7850251580434092 1.2046081109193447
Ni 7.556576592594701 3.2754732784122074 0.9863523033181819 0.11790102078455825 0.6835246901040616 -1.892634545548502
Ni 9.50864381888621 7.342941454351083 13.652931174574778 -0.350268582750829 -0.95631307908954 -0.8042073873988149
Ni 2.7582606266763867 2.6836096592679253 3.205050371378679 -2.495868311911295 0.18108433831126233 0.5399887423602183
Ni 0.8752779619108972 2.8586133849729976 11.271947830988527 -2.5194263017368934 1.2872675348927896 -0.30705810880162604
P 8.306957743649134 0.10253671587910608 11.46376099102978 0.2228953608097774 0.6191879756992046 -0.13775096563094988
Ni 5.467720267338483 6.278433478157024 4.125633875743079 -0.15821386147099203 -0.4857634053577506 1.2271901099849187
P 9.064063038914306 3.901865285459559 9.145161219525376 -0.25053806222771047 -0.22557650718636635 0.6146342948902512
Ni 2.027153503311409 4.96315938005427 3.8225954052165316 -0.49124962528330235 -0.38968899352998043 0.4739265606238225
P 6.240357780016058 3.630963778545156 12.565571296161501 0.43176355410252737 -0.21526921172308733 0.16334732604281546
P 7.351944027591904 3.474178223174134 2.9752133798735683 -1.242584075942486 -0.5870921236059244 1.5141185379162052
P 1.3271663862110008 0.004968086714379494 8.030147140307115 0.9053052205831055 0.7065584319950735 -0.5652763132824135
Ni 7.278812012870166 8.06420317097224 13.03771736263478 0.10495628769843213 0.9396482168393495 1.170659521888042
Ni 1.2468563938538333 5.491671557874249 12.465733499873318 1.4372091290526603 -0.19133121285025112 -0.6610967001178486
Ni 8.906258673814383 6.3773413790199225 8.104419295734557 -0.20835397266049277 -1.4600996604975887 -0.13048605653842044
Ni 4.7962320369273845 3.2440476292289677 2.8028789356582133 2.052944113206258 0.9128076996077376 -0.2746745502645979
Ni 5.3655706991563585 7.081403735035929 10.623807014801155 -0.7761360830838956 0.6776648888891749 -0.4771625510626169
Ni 0.7138577484640449 8.788169364328294 1.6601708294364728 3.0095335858856362 0.2572368144041247 1.3360624449083054
Ni 0.6345063634427058 1.054495855130963 10.030377207246357 -0.2859447238617785 0.17491009117975037 0.26668896095596006
Ni 8.060655860734345 -0.010374261612185813 4.036166636304429 0.5606840659260408 -0.49431849401661315 -1.8066727966747014
Ni 6.365097138459875 1.4886106806150816 13.467109541930117 3.3824186204844007 1.5974071108332164 -2.1675633779157506
Ni 1.7366074924424963 1.7099702489850852 1.3413371033493315 -1.757427429385328 0.43083564297161925 -0.521558817789805
Ni 6.600849709727242 9.398797606297581 9.975422610469513 1.830909300624563 -2.276000682184248 0.25786390646516233
Ni 1.9209750057468182 3.845682559864059 9.54112347304353 0.8600352930017124 0.8249942422371792 -0.5691453093195166
Ni 2.776043487398998 3.0061462956242853 12.169011649665949 0.9650604862648668 0.637737713676934 1.129443195550732
Ni 2.7249640723546222 7.642888300445751 11.999456703629164 -1.2643942298390418 -3.228591318116879 0.12771106489644457
Ni 3.136822536215598 0.5437424570763659 12.003117009127902 0.4350648505616184 2.1084969107708975 -0.7001160188038393
Ni 0.28473601684219696 8.128573422025442 6.42612384122096 -0.7170996978460294 0.8597213613057194 0.25344906522691835
Ni 8.855577520754942 8.500059234902114 9.088158815193443 0.004872240490636771 -0.26494806700545337 -0.17490340631153103
Ni 7.003705600347395 3.510095897071158 8.543638357960463 -0.338437651554172 1.3074514660398322 0.762350599264029
Ni 8.871220881046863 1.8722295911722855 12.936374506519812 -0.4205669140557596 -0.3094168388417897 0.008633507305281904
Ni 7.215442047732611 5.271089989660861 6.8173023199666 0.8139793791839143 -0.18284168732200123 -0.9000108049533854
Ni 0.30618937116083456 6.895165316593084 3.216138725991757 -0.722139317152466 0.1477240176832617 0.7138356823827771
Ni 4.9807199550178485 4.474760519833056 7.133001816851381 1.1418999332568462 -0.30299782268932335 -0.30513286675445517
Ni 6.43821062936836 4.195069463530237 4.901009208019406 -0.4134575567044879 -0.15197353698823504 -0.6382730173551137
Ni 2.602818047766187 1.145808992560246 5.824859386850924 -1.2883291433880844 1.210014883757213 0.2727423662388916
Ni 3.201100168202536 5.7273870815151104 10.206019078317986 -1.3732447103855576 0.44429151136620904 0.3959519437205568
P 7.183006850727098 8.057377145788612 7.844772857752506 0.04070544813916215 -0.2846964532769742 0.6006531501198108
Ni 8.79304112721376 4.519060219226935 4.011034452673801 0.47977479187448346 1.6128172747407 1.211748578618868
P 4.286475220025784 3.9697735848440305 9.256792201520904 -0.5221918233881137 -0.09559001599218375 -0.2691063121482011
Ni 1.883149379084764 6.334282775113976 1.644676585841235 -0.3630688198392909 0.011464291885857675 -0.8862111800661319
P 9.32183116223253 5.061252233134049 6.167792593979853 -2.2114917038675848 -0.9531423946710423 0.7467882260493978
P 5.100263383844277 0.29666813114893653 0.7114366860719145 -2.3854813401155948 -3.3401198597161894 1.6116440803682048
P 0.940518832186977 3.6030391300666804 13.454529094159533 0.007625377755741706 -1.132931668319965 -0.610817235137006
Ni 0.2944832473757782 2.3262112063699467 3.2570235604124984 -0.27764700262936054 -0.6778880606435744 0.6386635679253131
