# total energy = -340890.0309922826 ev
CRYSTAL
PRIMVEC
9.05009324539780 0.00000000000000 0.00000000000000
0.00000000000000 9.05009324539780 0.00000000000000
0.00000000000000 0.00000000000000 13.24572626208903
PRIMCOORD
 96 1
Ni 6.046457897698857 1.9062030714650506 11.333652780022724 1.4198361849918515 0.6383200685429652 0.4947093016971286
Ni 4.5530114857632995 0.42910474823704586 5.860531873996001 -0.17441309693867382 0.48813164847961094 -0.2980337938158287
Ni 2.7534999653242354 1.7586593988569703 4.469531614275141 1.2279120757526079 0.596366864039631 1.108838117705871
Ni 3.338145048692609 4.340325240902692 4.611632560715859 1.6442348698200329 0.16506405162360602 -0.9672137851624438
Ni 3.7074341096490406 2.9621408184375695 2.313339622996652 0.4940184462776911 -0.7935681625174139 0.9315556696392021
Ni 5.279136679165538 4.744991116937635 2.7288185506191653 0.1641705932750592 -0.7799068629802375 -1.3802352827707778
Ni 4.888054993315513 4.435658924718769 11.051678115125638 0.20241806679203203 0.8058590640696249 1.5587595736643478
Ni 5.532720296075212 8.102204712412139 12.300273345267728 2.375172759100735 -1.1026960093638751 -0.0850945157774986
Ni 1.7887238091129993 6.581300317118124 0.4593049098939902 0.28776969288565923 0.4088755937607603 -1.335601960332119
Ni 2.9596067922871514 1.619686164693339 0.18093127715851445 -1.666901201069297 0.4126484305396313 1.2419770384861064
Ni 8.032880997011421 9.084031244578329 6.927355978312582 0.2904618950058417 -0.1480963134210159 -0.19635411998613927
Ni 8.8753813413716 2.6861039198165146 1.4550694908968185 -0.08653587620971548 -1.1206669920199992 -0.13696755049770604
Ni 6.81418637043492 0.9100411913622103 4.885036787168498 0.9190313119199462 -0.34985514936249423 -1.6225098194381156
Ni 1.0671960631550896 7.36473975198678 2.660073136186347 -0.38102386165581476 0.39820577275174 0.10269783068155862
Ni 7.9039986169824905 3.8557379901022464 3.571114362868633 0.05508974188529222 -0.07098687273152289 -0.02106787641389275
Ni 7.558656103147507 3.905739756106027 12.461645560582376 0.5411408536867907 0.1934066073220411 -1.2941256954652036
Ni 8.089851334928852 7.269397018077307 8.746139672634914 -0.8622929786876375 -0.23761158397402954 0.37796836265894257
Ni 7.091472181944396 0.8082448358532274 0.2729571518389575 -1.1513392242928753 -0.17550812977506547 0.24608542577299555
Ni 2.2159063175130855 6.612848942690827 9.136557986639135 -0.31728621428753745 -1.0939532301742385 -0.61470808555098
Ni 9.211909064240487 5.060712675092914 1.2805502049082007 0.3982759638680431 -0.6075341935103601 -0.4640892628184265
Ni 6.376071349214461 2.1660403029102193 6.670812980862958 -0.24531049528018398 0.8044971507250919 1.8352320963696331
Ni 3.6723378474657533 4.328949273505994 0.14452003640502803 -1.1347095861559942 0.4007858747740904 0.07119873163201286
Ni 6.537325913314981 5.849618366371756 4.338134213291919 -0.9093889037341758 -0.27036358159406987 2.3285835984872865
Ni 5.217206890068005 2.9461945538767256 9.246563681866132 0.11132311045672441 -0.9710822669789146 -0.9721382190472548
P 0.16590812212389425 5.688363802271236 12.305014689197028 0.2553527100075344 0.25750446624321455 -0.4760623760199027
P 4.295844031869463 6.127890638061214 12.493607775423198 0.578653763030584 0.9949788710908541 -0.7046920682102961
P 2.3940302557006725 8.47950310602257 1.2819837397018656 0.7975400026809685 0.08663897744648304 0.11042579545343563
P 6.459857113859349 7.905374231178431 5.692695176969771 0.6631885496498707 0.7338218956967169 0.9895150197628056
P 4.631086641476353 0.8689193769969649 12.62345580041731 2.1583508581785473 1.7383228473453933 -0.4317149602527791
P 4.184781285734006 6.179747673210836 8.015492147563519 -0.8936684076751253 1.450211197739283 0.021341956010885826
P 4.854433896355505 1.198847771762692 3.6155141210613118 -0.38030858075634505 0.8034363135607453 0.6205971973419053
P 9.38720937328904 5.568694417317751 3.610758296982581 0.03141733796901686 -0.051023285125402454 0.2884507781130839
Ni 0.8681419739743903 0.1540687899454062 4.4245227847970225 -0.5049188952402789 0.010713272652446065 0.9546876276709753
Ni 2.0037268778825608 6.633863259552506 4.806675648504182 0.5576265100466397 -0.09362337918411619 -0.8985614741013686
Ni 5.871917796495432 5.260231034064742 9.003849227123071 -0.4189977697964267 2.629114447693356 -1.925540038027271
Ni 8.741829113151185 2.3406347046740104 10.278008256076182 -0.7850863502986478 0.6223373199614637 -0.574572650982675
Ni 2.46439473184174 5.195875819937523 6.600888339260855 -0.24757486583432844 0.6769272393922019 2.086242984468704
Ni 0.859708191940196 -0.3100290494102315 8.882968034664085 0.30041797777728907 1.613301670576286 -0.017818002018027378
Ni 1.4856723817098114 1.3290424153338043 11.402743003013867 0.4017091579193082 -2.5721724830906734 -1.0511824148656155
Ni 4.273580802119364 6.61218828587304 1.466964028645012 1.00329664692793 1.5929799282997985 -0.801803920163645
Ni 5.665177462994912 8.134269193308318 7.932229478316825 0.8196885137535497 -0.5766346757180263 0.16406234983196907
Ni 5.618252728745209 3.1973617958501075 4.6202817349728384 -1.0513119984649442 -0.3994545575571765 -0.9997940330913104
Ni 0.9472732755865642 7.380296862531667 6.835788038357895 -0.6534312131527907 -0.053104593134463376 0.6989379393353382
Ni 5.017471328854711 4.774168618041018 6.578873987079099 0.927942241256331 -0.23792911521444832 -0.4065178921618612
Ni 0.48747151556522417 7.453874121827728 10.847441942467334 0.2588298699228575 -0.5907706008987761 0.8957479159119736
Ni 4.6274847043054015 0.3811347282002962 9.933711933037587 0.06834377868172102 0.3038683982197347 0.699335431884073
Ni 8.450796209775694 7.340639353277627 4.902309795420952 0.22467173598390985 -0.340519216673549 -0.5587012311680571
Ni 7.073353894968908 6.212273708870129 6.776301774476835 0.5358744630815288 -0.6342654388576173 0.6614893075705769
Ni 2.6041372239438907 5.397873904499404 2.3664546211280895 -0.9265232494216172 -0.9768955312265819 1.2667671009465924
Ni 2.416021982648942 5.610107644690295 11.437923431065721 -0.4314995018078634 -0.3009843918037204 -0.3903068296196375
Ni 1.4392273024100097 3.4577872833659096 3.4913884701204503 -1.9581675942543049 0.5066711020446951 -0.7212923957711384
Ni 1.765673221237591 1.1904945355597074 2.3180945420660435 -0.8959965415876698 0.7852907529999702 -0.34183485016117904
Ni 1.112129776858035 3.4634888422043493 8.008260217932094 -0.056639859981231486 0.41106617365417597 0.20902220237211097
Ni 3.641685181139092 2.962539022546921 6.863644225825701 0.09123868100202352 -1.1069776674583645 -0.8227653529066603
Ni 4.408164740986735 7.05677412387046 5.942072310469751 -0.5414907808270416 -0.3245351825404669 -0.23160908653369144
Ni 0.5319635847105253 0.17458263664237827 0.2135659139385388 1.5414197968343197 0.8348387391314268 -0.48193451852996355
P 0.42123388201198003 5.665059811780786 8.101748587705064 -0.04349509506915735 -0.4274266172900703 -0.28381276512044024
P 8.948062641421622 1.5728247810973972 8.217516477396243 -0.39101028344456534 0.13157311895501214 -0.47718877631486206
P 2.0243520407282833 3.499770666622297 10.304208276452824 -0.10604360722533995 -0.17846669818275715 -0.3206420181336478
P 4.181242699216815 6.272873134238693 3.852890830720384 -0.1495916670196198 0.021493651097401693 -0.6123526979449261
P 6.972246251567236 3.962691993836669 10.061268474384246 1.0513366810552927 -1.6314325758490418 2.5384213547821575
P 6.552421469096756 8.170306665204619 10.13488826911926 -0.2011335436526536 -0.438059157303252 -0.16940124554637923
P 2.5230031366635473 8.543957871177128 5.907130804883507 -0.014046193680420972 0.11201190899363289 -0.5496820583885823
P 7.047343926553547 4.067383474222504 1.3069104119379225 -1.0033807220013042 0.3916525450142545 1.3839461559634616
Ni 5.289073681712535 2.84393754861397 0.43906166098950916 1.4118945615472716 -0.9375615095136498 -0.33547856892584804
Ni 1.5994682560503621 1.3036659534560482 6.831761651806747 0.3089519833902292 -0.6756175194418429 -0.26050314386022233
Ni 6.89002615307957 1.1769555958417606 9.048341296268372 0.22144782972997343 -0.6410744913596508 -0.49057753891694217
Ni 2.8277107311579015 2.0254109016554223 8.88561699700061 0.06912950780780998 -1.93496004578959 0.6327759987962844
Ni 6.572304524284141 1.9356882757438412 2.3980457821397456 0.21303543729656213 0.46307547684193145 0.6654107541121702
Ni 4.457831653534925 7.018808982081164 10.280087967538204 0.03866656333226244 -0.6156025723407914 0.07650163190216502
Ni 8.190633174968328 7.493947935377908 -0.2191941670204848 0.2554840933790761 0.12820625936530822 -0.012099097256379164
Ni 7.764364726001071 3.977470796349642 8.017360086840112 0.4447705078851566 -0.2776973962513217 -0.12820163137961793
Ni 3.2113170398641944 8.2870981204587 12.349957452993369 -1.4302396397133625 -0.8108112658685778 0.7178818274276927
Ni 0.15259181470344835 4.614796473366523 10.220971852476973 0.03494643416819788 1.982093766052599 0.16042269619685273
Ni 8.711547500653692 2.495309850876838 5.8668108287930005 -0.3416379036590245 -1.163501827797338 -0.5071812089118942
Ni 3.6996600794232943 2.3253400468375593 11.161749876034412 -0.1652568843607025 0.5807466410038707 0.4944794450745097
Ni 1.433308541330105 3.349620567116644 12.377045287531995 -1.140387610377378 1.893131282679262 1.0031763192999819
Ni 3.2855187556044663 8.547596008721657 8.108940696925554 -0.3665549786156784 0.24764325717841867 -0.9642104795597459
Ni 5.658598045097219 8.122495021802271 3.77207802175554 -0.7305234274511032 -0.8337257085729062 -1.5561715012221973
Ni 3.073999972791729 8.750815855891775 3.643303337838001 1.4865347147606658 -2.1889552133279655 -0.7787979461867748
Ni 3.3827891594069346 4.361701561500145 8.889551072599135 -0.017951442272098116 0.7954705217464494 0.14189944058168466
Ni 7.184434741291154 6.115193357028941 10.965898614905974 0.2622512368995806 0.11410375852565509 -0.07453962307978776
Ni 8.471493773368572 8.996942195844504 2.2484486433404873 -0.4150228443090788 -0.49742207264260135 0.4163497906506185
Ni 4.814360082805325 0.16449630755437572 1.6645637678172394 -0.4004503458115426 0.018000550342478674 -1.2015924640214726
Ni 6.481079582869099 6.032629354992291 0.0051893235523200135 -1.5906003723240283 -1.4426526686657348 1.2290765283743543
Ni 8.007640286534581 9.355986551078534 11.313691894032148 0.20376635328981035 -1.316664499997668 -0.5177715828332309
Ni 0.08350159171230527 4.796287046296809 5.883102806921509 0.6752737629491791 1.7896916887356726 -0.28669214355076433
Ni 7.504255991754072 6.230446296405983 2.365885370253585 0.3085362360090492 -0.08422625423993237 -0.16057567683494925
P 8.520717231340438 1.5707704098968798 3.5398272849950274 0.20158837180188507 1.9775637393927297 0.7682245415463028
P 1.9326926948303114 3.496974187763443 1.2603151010877744 -0.07052098883869791 -0.11906007408966593 0.65840424088735
P 4.834614191821879 1.2599630524547345 7.861206155376648 -0.671942641693417 -0.13908922482639915 0.8229864677785311
P 8.649138056606258 2.009292685320086 12.559518700604908 0.41259829402798615 -0.9503365497911311 -0.3659245441205311
P 6.740744862539774 7.9601091960274575 1.4931902942924975 -1.6487741524512831 0.3336520572400706 -0.9478965728910708
P 1.775148669021475 3.2807946068526155 5.6523887760193565 -0.25705478030030565 -0.20379077876984256 1.5229572192537577
P 7.095028868648376 4.115014115756966 5.848968569666041 -0.7322591791952873 0.37337482975098923 -0.03994851536847959
P 2.5087763898476303 8.426903963214611 10.338911764582797 -0.383935635985971 0.7711851668365234 -0.9310576469568611
