# total energy = -381173.18142678874 ev
CRYSTAL
PRIMVEC
9.18469540506851 0.00000000000000 0.00000000000000
0.00000000000000 9.18469540506851 0.00000000000000
0.00000000000000 0.00000000000000 13.44273012855859
PRIMCOORD
 96 1
Ni 6.301399107488371 1.9162764868442543 13.137297892127147 -0.07327129789032542 -1.9540481727692929 -2.134846090188388
Ni 0.8908263659638718 2.992640129947452 1.7425277662999137 -0.22074823255978757 0.7075763317366266 1.0418120293943092
Ni 8.957135424065612 6.090509315530861 3.380551149433949 -0.2549109944844255 0.15055865891857942 0.6336692000345151
Ni 7.430391055452704 9.070548043337043 0.888911356964998 -0.33634117403645947 -0.3820543598028581 -0.8468365349232513
Ni 7.152186630628307 0.09044720679764702 11.778856638133247 0.8627403506377013 0.26718775496924957 -0.290090627709352
Ni 3.645047416316767 8.96922248326234 3.415165511132057 -0.48435649770789485 -0.1799643657742062 0.28150905668792814
Ni 0.2269685197916989 8.020177088324074 2.1416955485155214 1.3342089366393346 0.09138497677190069 -0.9731293793159306
Ni 4.587424722366868 6.048112761387928 12.63056079387792 -0.11731455215346892 0.40051513761120705 -0.45586250403326006
Ni 1.5658895405707018 3.260952637784861 12.877100062709427 0.11377388599006212 -1.1458828291639944 -0.33813991780809505
Ni 2.018382746031208 2.185351324403037 3.7413002691009276 -0.49451466918781933 0.42347663150338677 -1.4186647903915697
Ni 4.3161455579029075 3.4602697134901836 12.470216217856152 -1.2385613279363379 -1.8413983730813448 -0.3434165928260021
Ni 8.435582493604953 4.533832024484717 11.258460979297807 -0.86193019603158 0.4420029724423485 2.326877414429457
Ni 2.274286730331549 6.859663265615689 4.337027881451298 -1.9341357501160823 1.587016254517196 -1.9337624259370632
Ni 6.325683442227087 5.693271237826828 3.3059576454322537 -0.4704218899046737 1.3931687030029942 0.47832340413993757
Ni 5.578067602944939 8.216325444103203 10.319956859314011 -0.3626885536817367 -0.5547077937379479 0.14474873710502167
Ni 5.085565864155444 2.1628212664930255 6.184717655110469 -1.800089744140545 0.06665764922854972 0.21808945478070182
Ni 3.81759110481961 4.5040736112648085 10.047930060641377 0.36814906257567565 -0.787356120169431 0.5303620179037317
Ni 6.17857217539274 5.7305794706969735 10.222725836465678 0.10795162288133021 1.3115330923083734 -1.3195914438364758
Ni 7.607499537588354 2.1055730598264537 1.8257245745186115 1.5581818467840067 -0.7641912520171935 -0.1603656177066722
Ni 1.7903451276904971 0.04492877467525589 12.416054987326374 -0.11445240011432548 0.26800896531896423 0.9955388573593822
Ni 3.348317460793433 8.593899088873956 6.128809495508336 1.1668036384770615 0.5083762576612599 -1.8355097755110517
Ni 1.0654614096180028 3.4519667488140113 10.416758038415836 0.17221917461114858 -0.4611162962330317 -0.45164023842179635
Ni 2.656021042135827 6.98573239520102 12.952164741587104 -1.3892326011733815 1.3726063054706104 1.0778653234734406
Ni 3.920974036672479 3.928735104317795 7.2319198901972435 -1.8145851095432426 -0.31298373025744164 0.8164604937345552
P 4.356071428972952 1.917773592200688 8.364792371984235 -1.6054978582611512 0.3156687332887725 0.3949960075651907
Ni 5.502551037051701 7.731906237299363 2.2589831907923474 -2.2448219425885982 0.4959102639837653 -0.059844997182090486
P 3.725303285056139 6.661990250393812 10.65390136381402 0.6718441684423397 0.292629849191438 1.055912216241117
Ni 3.019900306008159 6.570850517560121 1.9473143281387106 0.538364319382918 0.8478762890416752 0.013879843305885773
P 1.0474594065590457 7.0786447742542915 7.19063743961097 -0.6241838862518992 -0.20478091059725378 0.0549681287057634
P 7.7486774911695955 7.6295244372492625 9.970755657221536 -1.820883798067761 0.8623122619613472 3.0694973680337783
P 7.590544589809356 5.070796873890749 5.028723621027242 0.1503226316483734 -0.16738807177109236 0.01092770265609731
Ni 1.7007484236904316 7.2322771748497905 10.671861117273961 -0.9212167496070394 1.9978438297980043 -0.7819766010250727
Ni 3.209720406630338 2.312706311349722 1.5586575113826289 -0.6403517542610132 -0.2507694615122262 -0.3833993038665268
Ni 0.046842865204585846 1.5915423949297158 5.428322165458905 1.401739732501457 0.47163030839047804 1.5874975650289886
Ni 7.8451627167483435 3.705730699077242 6.763870566072984 -0.36778319459582465 -0.6447228867455155 -2.8547302927580898
Ni 6.6228450784360176 3.453454669475007 3.4862376029027295 -1.4255610032907708 -0.858217008846051 1.9745259810076705
Ni 1.8489067458047381 5.2415219926968195 11.662375412115898 0.3219586800625423 -0.7782593000744855 0.2737065299243738
Ni 0.9197094777085163 0.809366383652546 10.36205950320292 -0.09266590036685332 0.33514226863235186 -0.6545609558818598
Ni 5.792282254651093 5.0459522727302994 7.740189914115114 1.6101566971894012 1.2656967507005492 -0.24511226322644883
Ni 1.8702060545260248 4.743996225502606 3.527977451321827 -2.415299709028608 -0.6884280409429498 -0.4530887979428648
Ni 2.536169951362187 8.967679454428716 1.3412227054558266 0.05229778096245187 -0.2297157261657205 -0.735287681608966
Ni 7.009125814482226 0.8160317171320794 9.194840852824617 1.892892427195579 -1.295228698721395 1.6445639710246773
Ni 8.35700742413078 5.770872729584548 7.521193709963811 0.3894298263313229 1.5518654176476758 0.43123776350604437
Ni 0.9914143949948835 5.447654112417319 1.252729083377894 0.0035933737782131666 -0.03802044510783129 0.09125487895193961
Ni 5.1950106949975545 4.724745103864047 5.1277970937804875 0.5569983895443374 -0.8218294713559524 1.436290988113765
Ni 6.167017828531429 4.6190384440653025 12.247873110687152 3.208629787393287 -0.9077457117037979 2.265858965764556
Ni 5.665156885090364 3.0863056540266602 1.297599994471889 -2.4800259455624 3.36766511632431 1.4123496468068193
Ni 7.952476698248781 4.457351065570464 2.0504731534228866 0.9984704291838804 -0.16776113883979496 -2.0365286479627125
Ni 7.293768710808831 6.673057808396895 1.4596657824187838 2.112910209347245 0.13861099963839998 -1.6520312259360002
Ni 0.4729218050542472 0.964429759797324 0.7796208290062506 -0.26752791191748765 -0.6152536736418048 0.7690753195823723
Ni 8.146622790422374 9.022732518885547 6.65869478167057 -1.379609476261321 0.3880550574709833 0.4489992012545235
Ni 6.986807004567294 1.6985900202624442 5.366835221847583 1.7269734837708453 0.16726851547409258 -0.046939601974332064
Ni 9.146597321565698 1.0409566421887693 3.2985364115181532 0.2191050405294097 -1.0299996101404134 -1.2778346716146636
Ni 0.5585442913381848 5.408775296627235 5.591503893901545 -0.10600324090570776 0.8534779514991688 -0.5964252280813921
Ni 6.325113991109915 2.790889109950995 8.110214657705175 -1.0970966608992267 -0.33585600686992484 1.3352993414900358
Ni 2.7804920347149027 6.107262200010217 6.340331194511998 1.3367604994165945 -0.9086880210124092 1.8074541549254164
P 5.083223766818692 7.28927739473953 6.955658028458036 -0.6288949185743233 0.10731964572428614 -2.526506605622442
Ni 5.2462153720657625 1.6402304654478448 10.751790929325276 0.026977557030108377 -0.1475324704977459 -0.15085176467896602
P 1.8919554133237855 0.10451081245268552 4.661696762028225 -0.9316271463070859 0.5108727988308686 -0.2595685478610949
Ni 7.875215040222276 2.27741871147599 10.976190489802898 -1.4986263558178772 0.281584904231186 -1.446470242639612
P 3.867519109221902 1.1796179892199317 13.032861475707511 -0.4057802426648882 0.2894290828659531 -0.5391490200677425
P 6.0425100971706 3.6434217252241976 10.41693254762916 0.4305677340222133 -1.0069625258152917 -1.1899435669286345
P 8.453272217019009 1.7116047336984355 7.93442326089537 1.1748571049091574 0.569686012314335 -0.9790310895123462
Ni 3.315923039982748 8.954076920484676 10.772157072990039 0.9785945161955597 -0.11171083281344632 -0.528365042078361
Ni 4.4607126641008605 6.897393994475993 4.575139273748674 1.7633880178441372 0.38377365648681 0.08790935951847441
Ni 0.17293771193714366 7.131576174064889 13.137983070406841 0.6364591040748265 1.2203792577106722 -0.3430813209737704
Ni 9.04630044738008 6.05736174969424 9.92937860427225 0.9731759162831498 0.02802091069295819 -1.325810171052678
Ni 0.08376993321404397 8.036479922726956 4.844343615513135 0.7215718746847702 0.08967750716249072 -0.08244242286663221
Ni 7.030452677289828 7.054103268043305 12.380942815135512 -0.31029538479200114 -0.9376823513622303 -0.37460433128271614
Ni 8.30737332998251 3.845953444332906 8.991008580841854 0.3437325814045242 -0.4084881285143546 0.5063371157440442
Ni 2.7095310777590336 1.8961528191390626 5.858705053590926 0.27664092996234935 0.6911791213255258 1.386573823394296
Ni 4.423808557829998 2.1292420199708073 3.829269445069337 0.3289394822557496 0.31126443357348976 -0.009258799594106635
Ni 2.0554797309062733 2.257001133516775 8.59766114012546 1.4449604908633051 -0.2938282403749133 -0.21084562873409496
Ni 6.786332657236753 7.617051620844126 8.123455314648947 1.1060248166267919 -1.4115204660373046 -0.27717263409610327
Ni 0.10246538077858869 8.374247097468363 8.78861463216472 0.5713649426786546 -0.32256777440145096 -0.595425068951652
Ni 5.541383929364595 0.24212877808206368 7.682063650564647 -2.472034699826807 0.18676647629770418 -1.799953475672997
Ni 2.6523930874377206 8.314041418870676 8.107727442180499 -0.3476856525150012 -0.7182070719775954 3.396013842670332
Ni 5.478174855358603 9.121210823374394 4.995385931995051 0.48996510214392397 -0.23724443044259788 -0.09750188830291594
Ni 3.150993463998209 4.418802898816155 0.7513751351250202 0.06875721207005578 1.797748497601878 0.3544671942132089
Ni 8.890362688229581 3.4012947840812218 4.098043024617745 0.48800540731439185 0.9929248167753029 -0.14457158809720907
Ni 6.998342982037728 7.147814715599703 5.530957463103101 -0.5159373578379696 -0.37855148885592227 0.087360686103856
Ni 3.9761924256471994 4.6239614408202 3.0682356842214595 2.479703529225975 -0.4687370460030831 -0.9982691118063517
Ni 0.9264969676373782 3.6615155752375377 7.01230647451249 1.0484398191234718 -1.0194411178982767 0.30316520150512305
Ni 8.27930490072324 3.200094845811059 13.262758994874467 0.28757094661129184 -0.08743910475027522 0.7095843633055908
Ni 7.45603472511628 8.451720003489946 3.2257982159949834 -0.7232258653484254 0.17223768655390984 1.345868889475766
Ni 1.2175599660753156 0.4923189633502737 7.059113519404867 -0.45425119368208217 0.300349843543515 0.24668680680242033
Ni 4.043626459554783 6.437314230583499 8.56538520188593 -0.14911524160383352 -0.6881899567902148 0.2881255335631812
Ni 1.8691773686369415 5.055394139640814 8.743729944027567 -0.2647452069660279 0.5077108561631192 -0.45354054076830275
P 6.409392756451237 1.305402393246677 3.3730904213294637 -0.6804547929294862 -1.8453421882204415 -0.40476362847491587
Ni 4.893376112110198 0.7699392415447981 1.532511438878581 1.237495605675985 -0.3460823125836233 0.9351562425062668
P 8.359193381645081 5.320262386688881 -0.04632025603414979 -0.5022624314540381 0.27743745772171574 -0.39512816226768077
Ni 5.05594522136711 8.452528256688511 13.146478913687215 0.0007425345929793663 0.00011698519383850818 -0.6825486993440374
P 3.120858478265332 4.084268736869011 5.135270680458587 -0.3088997899960551 -0.9304328688886685 0.4075658738104013
P 5.374148994825056 5.6551547517581175 1.1740437975584617 -1.1413191210527118 -0.39529322709063536 0.8357967321693218
P 0.04340319676296364 1.4976380687691142 12.260092429498192 1.0883698225491902 -1.0756382339151345 -0.01741819547644742
Ni 2.9154978729616445 2.1071895662235844 10.890076622313014 -0.05154187663303382 0.09705528768380059 0.5976737557765125
