# total energy = -381172.0100154896 ev
CRYSTAL
PRIMVEC
9.24666755646834 0.00000000000000 0.00000000000000

0.00000000000000 9.24666755646834 0.00000000000000

0.00000000000000 0.00000000000000 13.53343263636917

PRIMCOORD
 96 1
Ni 5.823856256649059 8.90391191463069 10.523827251127376 -0.01734569036729916 0.29655078151239894 -2.045496141568645
Ni 0.9418562927728723 9.406449793459464 4.999791410310719 1.1508445440446438 1.316090629772069 -1.744492466491215
Ni 8.141820082414052 1.6104920577685933 4.561713899129166 0.9693537143235822 0.933162866225322 0.3894164565948842
Ni 8.41867455047198 9.397942859468838 6.454351368031161 -1.0010037371286953 -0.6111715331526313 1.066821406954453
Ni 8.031997413928561 8.125231561132333 4.329101035822914 -1.5510210673695095 0.6421103888233328 -0.6097437995671692
Ni 1.0310866330006205 3.8658282053613022 8.540299665202722 -0.6951573892469834 0.04625388876121712 -0.017179082882447832
Ni 9.243024194165658 3.8483982373479027 3.2335974945117645 -0.6137292665774785 -0.6782076487665224 2.326579166462748
Ni 5.301613729631131 3.598285131356155 6.6793172374132315 -1.2810603776408132 1.063450433599691 -0.06987049973889257
Ni 6.744694874464659 2.293959477243621 0.7218392397731739 -1.3233480826654307 -1.7680355439184776 -0.20071239695483498
Ni 9.190854496801412 2.341293167567543 6.7799246771867026 -1.1337940163202604 -2.01709779293161 1.5692522456655555
Ni 2.0523902919120225 1.3106318812664535 9.642273099680438 0.34674771408176414 0.4683963748342127 -0.3164606330624486
Ni 1.0839590770858294 6.459176279070626 7.857930749812571 -0.19534624754691518 -0.49876907358879913 -1.0171111842135192
Ni 4.7774663891326945 6.103364518245367 6.747173905989536 1.292526983519516 0.3082094487972499 -0.27513426350983583
Ni 2.2595433812511154 2.5003728331922246 6.876810333339274 -1.0479777918853888 -0.14012049430439094 -0.7108655440108596
Ni 5.675558205190755 7.172732354203799 4.443445324657768 -0.17553641190983962 0.21754360957956081 0.06972291841743475
Ni 6.8607313034302555 5.725471715714007 2.6970781130573975 -0.44262183697327 3.314978841674187 1.36585947366508
Ni 3.4280632315372306 8.083103744543978 10.636993514537876 -0.6245302138477244 2.1308925048572784 1.2643348373560162
Ni 2.1207601505279783 2.288171063463044 12.255930553625639 -0.18281134830469808 -0.5188882129361774 0.49342066479269214
Ni 8.676545610396483 5.599134499285849 4.463123157511515 -1.293253063052263 0.880002994372891 0.7947333864701087
Ni 3.5498418409465 7.989582950651393 0.19996195611680062 -0.5195908954301568 -0.06646121694702747 -0.21971644886116354
Ni 1.0189919920661237 8.262701765087352 9.40653393813263 0.6621953324986659 -0.04375811892255689 1.1601249409053052
Ni 3.7726772781639615 2.9194872789085897 8.403666284645695 1.1256862996114614 -2.1510990617121406 2.7861720840727178
Ni 6.8173089534085465 0.6856246669750417 3.0213790807812972 -0.6382704462519524 -1.4113425456985438 -1.9113681174022632
Ni 1.790654125022215 8.98278598739159 12.107644522834933 0.30719566282075483 -0.08858504542926034 0.3038131195017671
P 3.042671381759788 7.887555222768183 4.067391684268512 -0.16736570317358918 -0.8957108920264508 0.5255203735407143
Ni 4.283167290940494 6.085416736858625 10.669054484348411 -0.18003172867703188 -1.84657554640691 1.172951146135696
P 2.7990956696064875 4.432399255804289 1.7561252196876598 -0.07784400486267239 0.25349354531160856 -0.18464145953490138
Ni 0.00492569971391933 0.28908873366988047 2.622860661989625 -0.3390909688674547 0.09997040444806653 0.25041953437197517
P 6.2042179193711755 0.14139818825851624 5.393153887370682 0.20047765523620956 -0.16182446164038583 0.20149504075713043
P 4.845318434375308 4.621447370411161 9.17237873070721 1.2724086155030863 0.7997074426459324 -0.4632019751174668
P 4.367127030761006 1.2508429299801715 10.75512708766551 -0.9828962288947072 0.25812487343603285 0.5166855488579036
Ni 7.464677383427705 3.6738396505272357 5.65954575128688 0.0941766805844249 1.0853248650752794 -0.39619105631455637
Ni 4.994115805872191 4.771927635371408 4.5007321277507195 0.866092554939386 0.04790530832171104 -0.4708054984963375
Ni 4.448164823689088 2.2347530660023494 13.130934365899797 0.6586708642851753 0.4962241956797583 -0.8055037376127354
Ni 7.884855195892898 0.5474748329675106 9.842784307839676 -0.22010854209325964 -1.32210289740442 -0.6138840469877879
Ni 6.576387034793625 2.0733524868650077 11.698325996542119 1.8422038997017756 -0.9737338456691488 0.46359252568766607
Ni 7.30259255090416 9.010396536191596 0.6923867548308502 0.3129258804363127 0.5712821531568613 0.9602388965065076
Ni 2.0871485145976294 6.504059602538553 1.2265602567706284 -0.4905387152592068 -0.8546223495162573 0.6907703159228813
Ni 3.391409442038496 7.3809857969612445 8.51974247428103 -0.62726869582481 -1.6371962178056967 -1.5479236593911083
Ni 6.118233159394197 4.470375318738523 12.957246815146432 -0.10162542355298626 -0.18009137827037372 -1.342749627120494
Ni 0.33295862239283686 3.8527441710170263 10.91857025562734 -0.9247281051944073 -0.35419954237411905 0.34159110958148914
Ni 4.231681846962451 1.3490425375676003 6.727428572463905 1.9529297428941335 0.15674267624210422 -0.8305110582903504
Ni 2.5701296919153473 6.362927718300613 5.887422471560525 0.37383557143749163 0.8092796597153998 -0.25835601561023247
Ni 4.588547727869158 0.10926786844262196 3.6968740236403286 -0.12983299633545384 0.4971081409466084 -0.10248391489853963
Ni 8.15841785036315 7.140840598406337 8.952324691037987 -0.424734672280204 -0.1462803432581997 0.21068364923493393
Ni 7.8543596868699845 8.807885273877822 12.014331778958423 0.7881310506622426 -0.04279806900213274 -0.6245674948435631
Ni 2.5521911571959865 3.786436319227059 10.417210402222919 1.0147982198096264 -0.1532467472737038 -0.342250597542359
Ni 7.890246002976088 2.64710819786312 8.989961401279334 2.6894338134087037 1.6916537254236284 -0.3464294115103969
Ni 0.4176137116004101 0.6056428434618834 0.40397117854631476 0.31839564530163234 1.3308402772774177 -1.571610975705719
Ni 6.957886037603619 4.9640456435488085 7.963463889299961 -0.7491438707657678 -0.23649263987823788 0.3903770207359406
Ni 8.340530964434187 5.513528852671498 12.375024855494171 0.05568880892187183 -1.0121942065278762 -0.8673107436172032
Ni 2.092973915047731 8.835763976031881 6.897652321616306 -0.8415858280472732 0.1457139292317684 1.6819066733391936
Ni 7.178400561308421 7.2798827358161455 6.508823485573303 -0.5132870646993161 -0.8563182491614413 0.2619468182852843
Ni 1.9320541626142074 6.533796884836215 12.432081416569336 1.2538773894681179 -0.6682649357315136 -1.5175381051207155
Ni 6.691276877003965 1.9397843765448186 7.1529065746719525 0.9337416215469273 -0.7403093031932735 -1.6083381559234236
Ni 6.310979940953515 9.02694807080379 7.928777790619927 -0.40179374721331446 -0.6828621168193982 -0.0022839109381702603
P 0.18551866166750083 0.6692969017134709 8.37368951366286 0.4085524060933867 1.1221500043234287 -0.6025840485939363
Ni 0.3532476599604768 7.344322760795127 5.7600450050519925 0.4485865391971371 -0.7716194261604646 1.7042089363808197
P 0.05735152976462034 7.066580612668612 11.348229600825126 0.1328311597318293 0.8543896646801608 -1.568719255980221
Ni 5.408736371241335 4.451604583954863 1.5797172993907702 -1.762226136325552 -0.8379531163906924 0.3217550486921684
P 7.062206938997345 3.8488883107191016 3.2857006158708644 -0.6003993822377918 -2.783325872873174 1.627649454657526
P 8.583681329887956 5.57266129057372 6.7929301148582395 0.31943179987563053 0.2778596328607989 -0.10603537969522384
P 8.546334040335637 2.623630909382472 13.041384090980662 0.8819513763485133 -0.3798223851485458 -0.4268285786947552
Ni 0.85687757020696 2.722727443705869 1.6247023361998891 1.8336524105873386 -1.2624247648174967 -2.3572403429920303
Ni 5.4905878708989535 8.717267933542907 12.67423499127942 0.04787111264966594 -0.2672083237945398 1.003864346505942
Ni 1.8754922982439344 4.9280576141015136 4.179990202301811 1.5055037996640008 0.22890248623580578 -1.8701749309934048
Ni 5.729161135999072 2.2990913776401394 4.2162056997666815 -0.6383630059657587 0.7150307311321428 0.7265204769392972
Ni 0.32884755407519367 1.2734325383922327 11.165095654675214 -1.5976714202381967 1.0633069660432912 0.8222434189649194
Ni 3.9651096730323214 0.3105650433292554 8.643519288511357 0.3164804305567904 -0.03488704168517217 1.044752600079872
Ni 0.6891652159152701 4.128618492332557 5.911240962067536 0.8615103348853422 1.4870139683899293 0.39529117020810633
Ni 0.844217957895477 7.224402731529463 3.460580062049656 2.08182814323046 1.1036966827142476 -0.09686811137365899
Ni 4.828397033067869 0.6372294592357681 1.202837006937643 0.9681740921931841 -0.38420663025917057 1.1450531341738475
Ni 4.949888995788324 3.4919114698038216 11.063729988176492 -0.8217343405389848 0.4555377737039897 -1.2693963110393236
Ni 6.624349498499463 6.873537937753099 11.2624547401977 0.2390560297300399 -1.1895478741521126 0.5222645856075779
Ni 3.9576753524579056 6.176986483933796 2.832371651510902 -0.4629795746940155 0.1390401167560186 -0.044540505614536194
Ni 5.595999879043652 7.844253079422427 1.9768015600716318 0.007329700892193828 -1.0135450641288157 0.0013559998072621808
Ni 5.917765410571651 1.820298940646066 9.30201515805695 -1.940210238444936 -0.006867416543794624 0.45243085264389177
Ni 4.113888551194442 8.398553802250676 6.038942061934409 1.0826401191542645 -0.7925674891670416 -0.4647430943523415
Ni 7.125648323899167 6.444187431245841 0.4686266508752769 -0.8788159160433253 1.098342617491186 -0.1029837373530936
Ni 3.175462772019963 1.790487685009355 4.7630101493490615 -1.253281407755332 0.4873443766916253 -1.410881289791409
Ni 3.8507283975279436 2.5423896897720057 2.2651579576849277 -0.3295706880818453 0.058363784650873676 0.15926981353933214
Ni 1.6054711173806486 5.868813553456034 9.960822640293284 0.01440383413015584 0.46018889932275586 1.224934995402155
Ni 2.446510995697237 8.997996755233522 2.1969231004127363 -0.20536969322118823 0.19589672073374648 0.2267144774455515
Ni 0.8419710177218664 4.421386474953382 13.366741028119487 0.9006630938254037 -0.5494162063217055 0.47258907275932166
Ni 3.3076346355656043 4.268603789815239 12.612671604522703 0.2274271872418599 1.736090615580765 1.1545068233875795
Ni -0.09242598847466127 5.77547769291107 1.9556488837705956 1.460076777679453 0.25082911110556805 -1.0483894255015105
Ni 3.08394850494908 4.900576518644844 7.8395113883893925 -1.0316055211749524 1.4679579801997429 -0.30693443873956816
Ni 0.18684648310342877 7.5670749780061595 -0.044838939464497116 -0.6987985855439964 -0.327506606463965 1.4204599346187794
P 8.152888343269245 7.587491619583659 2.17380735662669 -0.711966233274206 1.195995172439353 -0.2643068338770287
Ni 5.739369456787822 6.877477018057453 8.996375814441613 -0.01947842043958581 -0.061883881988990204 -0.5950378608155623
P 3.371131500471713 3.909907068767072 5.575138472765121 -0.8329852308624557 0.13074959461245225 0.21109219752726222
Ni 8.015177725962316 4.020885570675199 1.2502215539321606 -0.4512689711253067 0.2682820164746928 -1.3288381592457243
P 2.861113067731618 0.9902995831825275 0.40025771692605944 -1.2190931919093972 -0.29455894789335074 -0.3974334133620897
P 4.939763895006004 6.3538197509302154 13.47005496743541 0.712549873691818 -0.1351017009335609 -0.3559743748863547
P 0.9806460624366446 1.9976962543527343 3.62794751564803 1.041390368475858 -1.0332335436966789 1.2784535361455853
Ni 7.213963244056185 4.3953016262712605 10.423030254672593 -0.6101562045142395 0.22605318971246877 0.4788016293279367
