# total energy = -381179.2346958661 ev
CRYSTAL
PRIMVEC
9.14359019162317 0.00000000000000 0.00000000000000

0.00000000000000 9.14359019162317 0.00000000000000

0.00000000000000 0.00000000000000 13.38256849370955

PRIMCOORD
 96 1
Ni 7.363232456410897 5.209898721627883 12.529616833176178 0.24987446050178255 1.0636730911334584 1.2981309599698547
Ni 4.742286384872618 2.0605994448909146 2.463209085898601 -0.6304146976529594 0.4088300852348055 0.17204562514776175
Ni 0.3706345067390341 8.113290288607589 7.366942925237383 -0.07573647160136633 0.6977369770487015 0.27749196510873503
Ni -0.04257072637346077 6.4991906311364165 11.494689539826126 0.024735812183783207 1.1380386505292273 0.3056658564397897
Ni 2.9640135687529883 5.305339514163253 0.21295055392142104 0.13044543310847212 0.5649479834087174 0.665214578940964
Ni 3.4341678235313253 7.825980403280281 -0.1615114595962399 0.7794702896634512 1.0653628201310554 -0.10372524350480847
Ni 1.4091643745534401 7.125380249453373 9.224323339055639 -0.08085450955422205 0.28048678607100086 0.4195914375163677
Ni 6.727908391672897 3.156147825655246 2.9293099872250377 0.8675938220752607 1.1001673294047505 0.8991978221337869
Ni 9.005503514706124 2.0495997061076174 1.218301076662719 -2.126121822941512 -0.01226184808648856 -1.2917163146927626
Ni 1.63735180686928 0.6277568296448514 0.38105271319762796 0.5162474328792205 -0.05773026483193284 -1.0982318029449345
Ni 3.3227531792466443 0.746520177221416 11.713735210848915 -0.9027652277700711 0.5146096401654814 -0.10543219889358617
Ni 4.310334049160462 4.362525660943552 2.0718625190665296 -0.6395768237682018 0.27316351293671015 -0.6562383435842827
Ni 5.9158113012512095 1.1318210023381792 5.039206183301544 1.472338882876258 0.08529094805902085 -0.27767811297761213
Ni 2.85097136544634 9.08292229132971 3.8866996372813594 -0.09381209815615456 -0.6652222922504479 -0.29351585134081704
Ni 4.104648991861823 5.7634425173070225 6.434994400027814 2.036185148580364 1.450213254621812 0.37017869141119475
Ni 1.0050634140149508 4.691283439790964 12.405439565954069 0.2840796456285817 -0.720889503905765 -0.24098821375574625
Ni 1.3928887843337658 2.0862929328219737 5.176056466278972 0.643346318112963 0.09502103086259119 -0.2166833184617946
Ni 4.94366481127605 0.4998745797502634 9.660393947708775 -1.497930358192117 1.6469044462323958 -1.33705566205951
Ni 8.63114665247359 6.670760954103816 0.9571025413299743 0.5995833140943996 -0.3011571699361588 -0.40610908675921675
Ni 0.571896809549326 9.002047237681944 5.046686554289586 -0.29254294590458646 -0.510961501889933 0.029350942358291384
Ni 5.281538749364483 3.207278780997055 8.944721500107649 0.8091757871476839 -0.03552287549695818 0.9216864901546062
Ni 0.6418361295438708 2.6725982115107167 10.137549449358573 -0.11550012465254947 2.138942114634632 -1.0944705361302893
Ni 4.985889909947093 7.937038447554531 5.000637606275921 0.2541324644471881 -1.0699332131105574 1.185547751853784
Ni 3.857671482073269 6.710325268081642 9.01994490076958 0.41034009412142874 -1.33818669034016 0.15026195361376704
P 0.9922349572294434 7.330726993921602 3.7124987034677797 0.030067251699025636 -0.17142881749936928 -0.0330265914376657
Ni 8.487052817489404 4.290428453706398 1.2009154546157026 -0.6435355513056337 0.39703643503398717 0.2531065942858351
P 3.4711262143560018 0.4380373948645127 1.7162609886646678 -0.6502582147414478 -0.49097194614188355 -0.33711199076421294
Ni 5.042945911616065 0.765630280344517 13.415488979602046 0.07219477699669502 -1.666855692543342 0.0015372625801328365
P 1.7704184723001348 2.5754658548233005 12.057587228086573 0.4163577610704185 -0.4963303822403194 0.49197210527162366
P 8.33819517210946 1.1267828842420888 8.75553147918895 0.6119991712602493 -0.24533877741495808 -0.08707940741801132
P 2.7961189689700325 0.27905139482932567 6.1357064117860265 0.27315605673754245 1.2579849838785884 0.21377462945543185
Ni 3.8023984804564535 2.0016324329096333 4.788965326238046 -0.2834507537953312 -0.9589507738227032 0.1356532025616567
Ni 8.48927470986209 1.4111668207658608 3.776908894582641 -0.9141984093076772 0.13600518658443675 -0.0833299676779081
Ni 2.9883720925424337 3.9344136330360375 5.848463274665797 -1.2720592025834674 -0.9307329166275907 0.3646523622763268
Ni 5.444175784891083 3.141006040596942 6.247652298650349 0.04839278948109085 -0.4319170489612561 1.2619848490666008
Ni 1.4280367443362538 5.480073519274477 2.018144842110594 -0.7343140048417869 -0.8045783975849886 1.3053984401655452
Ni 4.58696422135486 8.275570724123758 7.403169828861174 -0.6395014904455761 0.9154703340415653 -0.6328207359912907
Ni 6.357766724435459 7.594455560610406 12.859832100271351 -1.7357059785478364 -0.8180018700797459 -0.4695484861607849
Ni 8.380731152840879 8.07976988762707 9.96134149753757 1.6068039786670842 0.49674818650402836 -0.05173882313518832
Ni 1.4787105201775097 1.63474588371613 2.5641936370576746 2.2941647546877846 -0.3639687059457409 2.0967407986762336
Ni 8.737148291471726 6.30193596382797 5.953891610570243 -0.5181227955250625 1.4855368696237705 -0.8614779389855098
Ni 5.192379603166705 9.053461644314096 3.08767970929348 0.01081817366142653 -0.5604197565210607 -0.9579159048002857
Ni 2.609818322494827 6.414566705584121 11.448786889252638 0.7695823411257778 -0.9484401040993665 -0.4551672777384484
Ni 2.3047058674159975 7.379663487660759 5.706728485904465 -0.14368172929308803 0.20950454132516821 0.397773827420644
Ni 1.224884461470677 5.279133985191575 4.627277395354592 1.708634062031709 0.9974432734709466 -0.09044138191170875
Ni 3.7274210423658185 1.9654329600558744 7.721474655607951 1.9274130866802677 -1.7834431367227992 -1.7195257692435482
Ni 8.231407184370372 8.581688974103804 12.969542379377973 1.9631398506579156 1.2534881244494993 0.19915070889466993
Ni 6.598864905846907 4.987718627949304 5.4321985963356045 0.9158272031603518 0.5960755580514573 0.7616299190479205
Ni 6.5853232490405365 7.747939862535942 1.7105599602927763 0.8027901953363142 1.0450462200608905 0.8619867603011283
Ni 8.570908681480772 1.6139807908010284 6.381263922045863 -0.7617911272161332 -0.2453830003893322 0.7443806450491697
Ni 6.040648735672117 3.2803726395454134 0.6303444656179793 1.161899773417541 0.2344200736199253 -0.656651005641669
Ni 0.11028541091831631 3.701617831354627 3.524955443110072 -0.3799190586274102 -0.9325535147760972 -1.0236255882932694
Ni 2.09911224601747 4.9423572779044695 9.628155478047804 1.0223102119159555 -1.2911948949716536 0.19987910242026222
Ni 8.30675950965146 3.2470716847251575 12.286750281456593 0.1453020385053304 -2.1175780471365595 0.7090158923966305
Ni 9.056543034147822 1.052820384642681 11.495653274213291 -0.09327628025734258 -0.5703665833211273 1.0748599609882132
Ni 7.3034608085086425 8.607775636405337 6.271860867563614 0.3351677225536486 0.9356079853317049 -0.16532064771910238
P 7.623376735815367 3.159064630868772 4.999192004695173 0.0750975524657868 -1.3506470275906997 0.35755046112422295
Ni 1.814719165903687 5.646148544645234 7.154441321585504 -0.7454008587835679 -0.26523474500793676 1.2633819865244436
P 3.6503680093426745 4.292796643519261 8.089588274580937 -0.48618403783493697 0.4275022077230122 -0.39991092836830483
Ni 8.145283710056264 6.121286055979595 8.258410034391014 1.705454892972779 0.5245788355630514 0.12493530192352031
P 1.4165889696424154 7.032444800581031 13.305604972285215 -0.9237042919155833 -0.4797025438756513 -1.260449643368997
P 5.858270689311653 4.450962463530457 11.111091251169421 0.0952161775925328 -1.48136088386921 -0.5400167673846765
P 6.5544727763432435 5.667608550401175 1.3337270138852493 -0.1534084696625487 -1.513368547124058 -0.8527500721942087
Ni 2.1726541404763693 7.584891365458844 1.8505144920789576 0.049891228403488266 1.827182229481963 1.0468444496118938
Ni 6.30081130225661 6.412701413221866 10.565818747014278 0.6983756390739649 1.2832890098610155 -0.052045555742329726
Ni 8.299828668423082 6.0649523979214965 3.3427246085487856 1.6817279816694843 -0.34456124795340654 -0.11955398300694894
Ni 1.2683530883832232 0.530287074486027 9.437092849894842 -0.13402003783360789 0.02044232701475189 -0.9331379265246574
Ni 5.032677660033652 2.3466109404366535 11.311883573453144 1.6655868531332476 -0.6037603282902247 1.113416738215489
Ni 3.42118392571563 6.342597508607122 3.914441289374894 0.048890812163431926 -0.45288130991774905 -0.4543414394030434
Ni 8.03350332217114 4.77607194996346 10.289937434841786 -0.015686557497321372 -1.259581896052063 -0.45927127260449285
Ni 6.6081090753480805 9.138451313466835 10.949068664891563 1.587854177037459 0.10517843101156725 1.813686508988373
Ni 0.09137006626245088 4.073908242244663 6.309975008165687 0.4669529575194668 -0.836012961945186 -0.005475935512906698
Ni 1.4782076227269019 8.375455301404502 11.361947471840663 -0.5077098277218546 0.3705759268496134 1.0594238289388012
Ni 7.478176526439845 8.293967627225998 3.9095567835909897 -0.1152278448277693 0.3013345760542875 -0.015742607546237405
Ni 4.676617121413235 7.941153063059504 11.17740239464758 -1.2068850798789794 -0.9215252819863936 0.14626285975670295
Ni 3.150433081898338 2.4724175953987326 9.950582235171563 -1.4020654912719916 0.13600364392253994 -0.05593409216345851
Ni 6.626368824600154 7.955362201936681 8.609086827212924 -1.4150827294672659 0.11187769740861378 -0.3375765891054573
Ni 6.919750053694801 1.109053463210657 1.6842099625989235 -0.018929489914651272 -0.7666726236781506 0.22997746446753942
Ni 1.665962100013865 2.470936333816942 7.6937458045404306 -2.7765695279859472 0.8555533459709589 0.18697036477839413
Ni 5.110334169997525 5.614612302697111 12.865345685048016 -0.5649315283484851 0.5125663844832076 0.5370229748636751
Ni 6.018493817075337 5.4059464350548705 8.45754188072873 -1.4417360703887363 -0.08273475729607041 -0.8359648823160699
Ni 7.463336479851905 3.4509920291516627 7.672400093659627 -0.2499425947355566 -0.0349834580537204 1.2635637635179462
Ni 7.2613271457377095 2.2458577221048603 10.439085846384081 -0.21877028289781034 0.48301566740928426 -1.5733387570301032
Ni 9.07590001420122 8.831281550635518 1.9335264027123047 -0.39936893982190574 -0.05928912467862047 0.9413783121565787
Ni 4.799168658331379 4.228206323681182 4.2655734329793535 -0.9508517988646528 -0.6119582907199848 0.29519863835987864
Ni 1.7247919581449802 3.436590874884254 0.9958393604118005 0.02895473536113723 -0.5410464942007714 -0.3782820372446195
Ni 6.0924197423147 5.951489589474339 3.4444324176777332 -1.7247255682769331 1.0426738631739723 -0.6976063650081082
Ni 4.407292677637668 6.781782424018022 1.7996340711034517 0.6911390121162098 0.03605200852755081 -0.3953027401723321
P 3.1419021124180255 8.611195339069472 9.546133818212654 -0.881552855358514 -0.19845368282764533 0.47887979086403976
Ni 3.7529133713166343 4.199486307456465 11.555512700579651 -1.644808997155948 0.5069171566172302 0.09104456271334642
P 9.436550635007187 4.417743801020301 8.660542380000123 -0.16035070530833673 -0.7490893633787487 -1.4834977277065549
Ni 3.834748501915559 2.6454874671279445 13.660925794473737 -1.6196769779750106 0.7535587120040119 -0.950004363262693
P 2.5101714785543705 3.448898147039132 3.6174684581239047 -0.014547558796871722 0.5975796534008095 -0.5148464387666359
P 6.9975528610988516 1.3218156591778505 12.842741816181693 1.5334455203795914 0.8306072175485824 -0.6593128687445483
P 6.5586422533882835 6.7418432228497425 6.665282114969193 -1.2434286833309682 -0.30498631387426184 0.603906881170418
Ni 6.33032681081229 1.2179627638323098 8.03567035300376 0.7184783233611111 0.1879252724924957 -1.6003165711705276
