# total energy = -381161.8829705426 ev
CRYSTAL
PRIMVEC
9.27483492595848 0.00000000000000 0.00000000000000

0.00000000000000 9.27483492595848 0.00000000000000

0.00000000000000 0.00000000000000 13.57465842883055

PRIMCOORD
 96 1
Ni 7.057398138923725 1.4143937809275235 5.390415357805878 2.4840129552346055 -0.23362020342644926 -0.44339162525975895
Ni 0.8178085721339584 4.377100684694022 1.7497328585840133 0.18437689301960503 0.009495341084944939 0.15613023946908594
Ni 1.130305586263921 7.630824084835311 5.904189275222576 0.3880851393779704 1.977876128426826 -0.6028452726751231
Ni 2.6243238252778642 8.790215553517289 4.187063026405437 -1.1063413194259462 1.9485994909498958 -1.15455593145796
Ni 3.70238426624175 2.3367575675062353 2.42490930885004 0.9111606509226179 0.8011094651997817 0.9052630544912602
Ni 6.521794969957558 7.529477963284898 3.2125245832723466 0.8274396184538781 1.8553548352614369 2.273023858944111
Ni 5.593968305590505 8.169803293725003 1.3164895506288123 -1.1865080588845243 0.8563776416444671 0.30455873941854
Ni 0.9553080003379383 6.170519870881839 9.750758270703681 -0.19100134031465815 0.7918239261327976 -0.17889247286626608
Ni 1.524448972500436 7.218622594941924 2.2115157611784357 -0.5507153847491032 -0.13491272485120637 -0.6303841015253402
Ni 6.308983881921111 4.080482188006569 5.694026152565708 -0.06563332172909342 0.2894923320037208 2.511785240251868
Ni 8.911511845055342 4.601189972035429 5.661908326600947 -0.1992612663306052 -0.42806219399154016 -1.950223913927196
Ni 3.275927355022931 3.3625543135001763 5.637270655027183 1.9127526564546153 -1.305769964572351 0.5162019243532658
Ni 3.9349693024016963 7.173454148712353 11.053247457968316 -0.9925826029445357 -0.8643148942136728 -0.06055539298555376
Ni 2.8453895164240266 9.067143575595834 1.5698817515262165 -0.2472977009135418 0.22909043387689576 3.628072358036616
Ni 3.1466361557538933 2.697789792954338 12.13609742370283 0.31600143403784287 0.3630053135912071 0.7794926582609543
Ni 8.208015613738521 5.155723079144216 13.522925467661379 0.2820291908574562 0.3042373515233793 -0.9533082308249453
Ni 4.160171569937672 5.440321389730328 12.526273963029203 -1.624244799851351 -0.7946675662291798 0.35771372617496455
Ni 2.333298054068118 3.21188461966047 9.393691037198728 -1.432487812317591 -1.0171253252809063 0.23665693337024402
Ni 7.176802364131013 1.0767990634100417 11.527979885126545 -0.34976541786216536 0.8891381239049396 0.7858304275535241
Ni 7.274698247078265 4.4495000463507015 3.670343421407115 0.9868960940827197 0.5875438664313622 -0.17548447562598163
Ni 3.123476892871914 5.201234694267111 10.001618441658442 -0.8774748286343984 0.051252627527389155 1.1838328260452065
Ni 8.112716684578595 8.299242890353316 6.299971524795593 0.44014843573211293 1.7628113194050608 0.4566999123328908
Ni 2.0348895142344015 0.8226658031997544 9.68232853840763 1.0782088228557882 -0.4348429643587995 1.6029285548720782
Ni 1.7398755639941184 8.509457024602437 8.051007497690746 -1.6698160607232468 2.326656813778219 0.39040710264292766
P 9.309708334167077 2.742169878212756 10.966356166694862 -0.41077178234220874 -0.211763512562674 -0.4275932247749216
Ni 7.461419224387035 6.433350143829183 5.084754824521052 -0.26742866733546206 -0.1488481039853759 0.5301630145190482
P 4.785657164450198 1.4482469285123145 11.72684904125903 1.9937534617787145 0.7540474787149724 0.8637883322862413
Ni 2.592242171169428 6.619876349603905 8.004365280186867 1.1909830639367425 -2.9636939018437025 -0.4389736986977214
P 6.508160962574094 5.813754069512915 2.09843882837727 0.9017015623922471 -1.498334278498755 -2.224712059212601
P 5.061954497751821 3.4198635186854984 4.185474247177691 -2.2481270957024315 -0.020846247321389906 -1.4199444284349418
P 2.191253956736317 4.538371514886993 0.12701144483716306 1.794959364892515 0.3351718363187066 -0.06794782879488298
Ni 0.6348541053003065 0.15281403568124213 3.129583444206113 0.5362017645139604 0.6270365252093459 0.6861698410363926
Ni 5.085920671274862 3.909463506276169 11.08577244918759 0.6565347917787789 -0.4939500549336009 -0.21355531435577413
Ni 0.3491075701467971 0.6306897044056294 11.399319374634429 -0.5423783256383176 0.36924820917712536 0.7698952443805064
Ni 5.9023287433306555 8.875135942362864 5.918754476035496 -1.2958336792952456 -2.600222447249354 0.5804303953150326
Ni 4.422788521681057 8.23873386710861 8.071125542191067 -1.094781896723121 1.126561503127563 1.3412378184616578
Ni 7.191586451048865 3.2820858454328765 12.558079227055988 -0.05206046814066518 -0.45400873865397295 -0.25984699833346214
Ni 6.5541826936195005 2.358516330310049 3.1660446753801765 0.07677108351346777 -1.9630043535213157 -0.7186248762413043
Ni 1.4275176723884766 2.8483296391046786 6.523410646206673 -2.0212035875698673 -2.5332863475484375 1.9576718855648088
Ni 8.924811958380436 1.1759655987460924 0.2531705323419858 -0.9399022418316845 -1.066683595825008 -0.9965840107944451
Ni 6.814814830682572 4.561809022817615 9.369052438141468 0.03685984914082684 -0.8499619679261103 -0.5917198521859228
Ni 8.345450118097817 8.702846608243663 1.7337829249123513 -0.7554253328991054 -1.5771252206557291 -0.7994457043441136
Ni 6.027761611258522 6.78753754108069 7.3368990002187155 2.1207610728502315 -2.044879848140885 -2.770238700671913
Ni 0.479002561171388 3.107412878730309 13.253699268529246 -1.3475658175622147 -0.1882867695969725 1.1151488904152471
Ni 5.1550274665226095 8.430324132768618 12.692210962687902 0.3458560555054302 1.2049652371484474 -0.7533933900707412
Ni 1.5360703406987215 4.183534879188655 11.746355874135832 1.0503673751634877 1.067451070118652 -3.532812728800657
Ni 1.7292558779709442 6.375011431963886 12.010274085223369 0.25762505098147886 1.2245382741843684 1.1341308308343885
Ni 3.9112164500826143 5.2666964793776465 1.3722350186407652 -0.8280733953831352 -0.14159862151181418 -0.4156993015508131
Ni 7.635563525497182 8.410856254198624 12.955138621402273 -1.9899783110069986 1.3502868160378036 2.8746285743439137
Ni 1.6705461727074573 5.0194015549794875 6.3533472724766105 1.7404589198517897 2.1987660287708004 0.5791121907242412
Ni 3.172058478364828 8.942443419629392 6.305062481702249 0.2826233727980294 0.8285680756313665 0.08318341479771481
Ni 8.617638699514492 6.133105186674428 2.415759684167192 0.009104276294113351 0.1001804635763436 0.7709098016879498
Ni 4.979176595780792 1.6444189626399626 5.65483626494796 -3.2541984771620216 1.6716911662587726 1.3249809902831633
Ni 4.502746873825848 2.1009912629568137 9.488034658358316 -0.24914606697619024 0.8517686821175461 0.22161880809019896
Ni 8.65794713222778 4.773683352523633 11.002206186245408 -1.0852860414175436 0.5392120120951939 0.1545135298012694
Ni 4.240491640645697 1.1067475054788884 0.615088504528266 2.5791126618539324 -0.18071769900046297 -1.8562045848562416
P 6.495398789676376 8.600647201877413 8.217270044056358 1.9934331023248184 1.4737571033800232 0.6968746290484064
Ni 8.858821507677481 2.3105561587591024 2.193067186969968 1.010700395591169 -0.8050170277843038 1.6251094618444917
P 7.8356217154708645 5.050370228893355 7.269365216979291 -2.4528391007349626 1.6941937182366629 2.7906686863914905
Ni 8.77609925471618 8.838926986699569 8.942930348464515 -0.5030121651358692 0.14748696197179118 -0.02803016666433882
P 4.2329326501575855 7.542546205736122 5.180918168298759 1.016820392445978 -0.6681127264243655 -0.9441239932225161
P 9.102211726559696 6.916068203883439 0.43066675880477473 0.8666918790862815 1.670794365476116 -0.0642590670893861
P 0.08966817685890441 0.9717522827126875 6.691587518506942 -0.42675324537212955 -0.09849407701285617 0.4910570496565221
Ni 7.729174434695346 6.802349452503405 9.322749679596935 -0.5681101831867829 -1.1094772939517665 0.1723518435342709
Ni 2.749932915069871 4.38281398302614 3.785347664911875 1.2681004750460354 0.369969403613866 -2.007918440425187
Ni 3.0716583899797967 1.4648117837414751 7.757564704491796 0.43955014002648174 0.5623018040351219 -0.9173017308233492
Ni 3.7171219789848275 4.35211427932596 7.85756875742426 0.5067397504991015 -1.3495267979433274 -0.4841934897674693
Ni 3.8418035852813603 7.489800219348532 2.895122108934823 1.112448974985581 -0.46671358781515104 -0.7299094480161882
Ni 4.89201169687617 6.025767521743254 8.974736539974796 0.09356090137729693 0.29051537395159643 1.6251462286196978
Ni 5.193879750148004 0.3964379804043168 3.6867682266284585 -0.19122348362779323 -0.8700847068179145 -1.1159855273839296
Ni 1.1234143838925512 8.625967501303846 0.08342621293436624 -1.9999989284677944 -0.2749540291782297 -0.42058028379219825
Ni 4.109410398230395 5.448483244490497 5.746559745232834 0.6375978456649599 1.4245641865951402 0.14239232105770316
Ni 6.612475031310024 0.8681709259381817 1.026010994681396 0.23815614362358983 1.906124866725453 -0.34029141693345916
Ni 3.1228925782697656 7.619434587510894 0.07201816594003939 1.9450904493553725 -2.744981982987653 -0.952196228707689
Ni 8.788425510371024 7.530210675246321 11.531129619077173 1.4429396037785343 -2.001194491437792 -2.3484942213682842
Ni 2.0776372285407856 1.6141830006875189 0.7542175212337933 -2.3174499504679704 2.2584446755783554 -0.30448186343401756
Ni 2.1771469327701616 6.5295765564845825 4.396085344362874 0.7094144133866299 -1.1944998188407492 -0.6687832701288289
Ni 6.839012875079481 1.7194245529189227 9.166383382128027 0.6808350590870403 -0.6227008739484696 -0.21186789935102224
Ni 5.878585165846528 6.318685359283767 0.1412186370208296 0.7837146667621019 -1.0650892547546946 -1.270796790931276
Ni 9.025740712357887 2.3800710467448583 4.874347773704874 0.034256350079708744 -0.2747308574238301 -0.9849551683062651
Ni 7.356455917204273 3.7272315490854915 1.4304429553332008 -1.4029746333498225 0.15164032201853242 -1.4535811426527805
Ni 6.377951554644538 8.453010379067905 10.535591094639567 1.4536325647160062 -1.536987729204895 -0.5574262211103754
Ni 2.806407385109266 0.376560154129324 12.3247447842317 -0.21573432428496395 -0.975376009258262 -0.6403059886247424
Ni 1.8918066353876695 2.071256142091926 3.953198063021737 0.5239458299647428 -0.1718167969664073 -0.14858739412482153
Ni 0.13418923960863421 1.8462393712550456 8.824233793164273 -0.10008610409032441 0.5767046097240133 -0.12810650056265033
Ni 5.0365136254709775 3.2677284009229433 0.2606701638863863 0.6113818493912245 0.3573270322595072 -0.21782540248603774
Ni 7.885594526206989 2.835298495993273 7.138885911352552 -0.13005102588353087 -0.49299077634412514 0.4942830127929875
Ni 0.019056075898003188 6.672232792923396 7.426383535345515 -0.6050147695226161 -1.585861314977146 1.868895035839717
P 7.749551247090904 0.24803320126055678 3.6556010712465596 -0.6044295864431074 0.4547379035105136 0.14163307429417546
Ni 4.975216241255119 5.626773396825412 3.3866874340524027 -0.4462182960752767 -1.3670390957954779 2.8166540547116585
P 5.597780262756903 2.657926552318877 7.603682207823768 -0.607643722505031 0.10653263104661652 -0.06565800431944176
Ni 9.374446682151143 4.233516964759734 8.618116353514662 0.13417584668518184 0.36943589970789925 -0.060611957255102066
P 1.4331011230312287 8.144900361871533 10.684681284086482 0.93822562546021 0.34631936829509385 -0.5893408104307851
P 5.912781482324644 6.14787072392237 11.076555118209571 0.3165781324769193 -0.5337784997844485 -0.2548942823138771
P 0.7239463149085218 4.165013033784045 3.86854664438985 -1.006321806907499 -0.5280182002619035 -0.2951163630587175
Ni 4.3297897515899075 9.180676830276772 10.45112981012425 -1.6896233252571609 1.4337643650371694 -2.0986855811074308
