# total energy = -340861.5846684686 ev
CRYSTAL
PRIMVEC
9.32011026620701 0.00000000000000 0.00000000000000

0.00000000000000 9.32011026620701 0.00000000000000

0.00000000000000 0.00000000000000 13.64092346577913

PRIMCOORD
 96 1
Ni 1.1033053370059573 3.6329417138476763 8.982848127019077 -1.452974105196401 0.06369599549706449 -0.16072197260482643
Ni 5.3218761814491735 8.514638406017042 11.334489037383298 -0.7987273381208503 0.9719281599189777 0.7172848172736421
Ni 7.077346916470445 2.0294353772406692 0.08689884439956533 0.4795469921343935 -0.7013892290893082 0.13488829937117414
Ni 9.038698887981816 3.311891874401118 5.660778692172182 0.593291567548417 -0.8197959858656914 -1.6950861481439454
Ni 6.769559593978408 5.866133342430428 7.67644360644707 0.22570377679285 -0.6321319374543823 -0.23449180739812517
Ni 8.602713448336257 1.0862122547188209 1.9832812590323114 -0.05332467956506945 0.6663322374851751 0.02382229923057833
Ni 4.68918049384707 0.7110358747147127 4.211116620226612 -1.7575924942082828 0.2665118119481475 -0.5735876613615865
Ni 5.649021373030839 4.421870410380679 12.400403955894417 -0.4966543412386414 0.6057447057101052 0.07664329968635188
Ni 6.850495431809103 6.669582770808227 1.393993053133648 -0.7448293025508139 1.3407025147834781 2.2659607814497424
Ni 2.3546513059905814 2.3381826710934335 10.576572075856959 0.5705378187916691 -0.1758086917346198 -2.2935158082498757
Ni 4.905873058283233 1.471151450260429 13.465337466791121 -0.3208217382446216 -0.9914893698803571 -1.2885230045664453
Ni 4.663578150857558 0.13750145125331595 9.285786196122892 -0.9050139145949316 -1.649429783757411 -0.6006984015354493
Ni 3.5875993772463035 2.335237516239161 1.516993344773793 -0.23309904081565663 0.5321342793128061 -0.15691339749201363
Ni 9.232659703400353 4.354253010166298 2.7410481667828486 -0.06818565583730192 0.39350065396658684 0.10301176237755164
Ni 0.13339221462278245 1.6363410851880227 7.28704939818286 0.3645765147330689 1.7260319457931825 1.6477984188015753
Ni 7.6503006970602545 3.537084379429357 11.958533798606492 1.846381942338865 -0.735325733935753 -1.204449216743977
Ni 9.292084726662502 6.752951157426785 8.116309008009823 0.15744407318450304 2.2057938821518595 0.9763738543951572
Ni 2.6370133675887746 8.409078836778162 5.1954870977045555 0.16955525462574025 1.725223590959274 -2.5761695200652084
Ni 6.653710622970172 8.857665065547062 7.3258713856195214 -0.28435603921841995 0.11708469553084996 0.12761541985884475
Ni 2.6352891471835833 8.052258414006614 10.120528826838362 0.8999555262354177 0.006461182244311452 0.47881139951994955
Ni 4.7868925302147565 4.635058613344669 1.1433277546490441 -0.16468738501047767 0.3933427882324839 -0.1154949824462269
Ni 4.18546581266355 0.023747641040143767 1.820831736532427 0.2423516697621762 -0.8071775257707324 -0.9856321397686316
Ni 7.906827412911478 7.416039724711742 5.831345098730883 1.9614246677390221 -0.6872813289330164 0.2488645311800295
Ni 1.3829272861764415 0.6151636281199158 0.905787035486548 0.23455685630810574 0.34230304804684925 -1.7849230637024356
P 2.5594980102375673 1.223935524597237 8.769613323503593 2.3151030475023484 0.4144944826094345 -0.9670466634569604
P 7.19175127038244 4.671435003839051 4.961995034455653 2.033381360582982 -0.3947342692633718 1.6711072687308446
P 4.799325557352729 7.3298566647830885 1.4248491422983276 -0.9391352817586728 -1.1384068325019232 -2.5208805176849163
P 0.9981838129510979 8.013300352959597 6.419254860316423 -1.676100608180378 -0.6114407276536179 0.8114381008192992
P 8.798342563498194 0.2222967467585483 13.325190968235137 0.926138869499005 1.29197548189142 0.8404303742865913
P 8.080274665563392 9.06255837034554 8.977719270321906 -0.56717661562892 0.02873644870274406 0.6488538781947535
P 0.713930700973374 2.492999023258986 11.745735176252971 -2.303686321024974 0.9975633439885787 1.175667773735911
P 7.773764198182227 2.848673072463839 7.908312106482003 0.5644407047549956 2.3222435152018717 0.4747200030593954
Ni 5.725203954609386 5.272265234331165 3.69831389949119 -0.7757151934963931 0.025100137501737417 -2.4801251901444257
Ni 1.7415278500149702 4.378392095838971 4.79100642690044 -0.1767646278899859 -1.3117187259566183 -2.070557969633279
Ni 3.0778545846997636 3.226724706494982 7.900945491302203 1.0940437330055157 -0.431896737246282 -0.03773093889187051
Ni 8.615668401650936 0.24323530655477554 5.936666073146126 0.910607092411993 -0.6902144434194112 -1.3932689760262844
Ni 0.32770905825471547 7.621855720429753 10.833675706535645 -1.3279503573241322 -1.7797494899212962 -2.8348307256206855
Ni 4.516935535423641 6.383222381892051 10.682371171930503 0.8289971927489852 1.1734064885055597 -0.5663590048236311
Ni 4.428012363067278 4.758167950275305 5.519444811564194 -1.220905819638104 -1.1628829632664166 0.34741980044812426
Ni 5.499433602742649 3.547960948147508 7.492672467617696 0.5835589136416853 -0.17859988132651175 -0.26941664429976825
Ni 0.19299245595854042 5.383985396477241 11.749868645170281 0.2378013313873324 -1.0385246168922888 -0.9022060128324914
Ni 6.185328479927619 6.787388964979113 12.93059986646858 -1.4692545875239793 0.08774506602646824 -1.4267717357694203
Ni 2.3351815955773714 4.4758711294492 2.3311245515645083 0.2896134309626174 2.3511735679726606 -0.7204770989586947
Ni 4.637146318051496 2.17282527418047 10.07450425816315 -0.27721942817363865 1.2510095810020199 0.14870977863529872
Ni 2.2002636788987524 5.849375784114031 8.506807649344386 0.4886767223498035 -0.13496697512790948 0.08127128537666649
Ni 7.506500715267329 2.8269012948069414 3.355517446685539 -1.2071493892839598 0.28767404784805944 0.2229588670578612
Ni 3.47909465315315 5.854781448087062 12.923874474877305 0.5614654241767556 2.2359698915146073 -0.3027553676612141
Ni 5.994098456826492 4.1710289618114365 9.952431317497691 0.5505009547454519 0.6077000296642631 -0.3393326525646156
Ni 8.358563838961215 1.3620595592184814 10.886166567735838 -0.16201883703937903 -1.0949094234399206 -0.5445704481936298
Ni 4.552025750696852 1.1293270849588934 7.01270356345226 0.5499142290040465 -0.2267219336447192 -0.2613138126869758
Ni 7.148030632972977 7.213103643075913 9.72065881459883 -0.4528915943303942 0.23426657876119653 -0.009977422927686044
Ni 5.271612826610282 7.655920723570148 3.3811617301713923 -0.1871619119639099 0.19015596159522735 0.742036056076393
Ni 8.331386397331286 4.801786066471488 9.299986316173426 -0.31594692665082363 -0.19951811953641768 -0.0001681501467480975
Ni 7.887842348233781 5.2729456023829435 0.04761457949210616 0.5825975781696805 0.3047209760280171 -1.5883938515910128
Ni 1.0615139624282475 6.5458676267082 4.541513598291366 -1.1981536135432527 0.8325424868980823 0.8066213961569462
Ni 1.3147599994544588 -0.03605857473320731 11.683955893129463 0.9223914866414309 2.687167643082346 2.156769629734357
P 3.354121294162849 9.025911696652509 12.87780889771678 0.1871786241344583 1.1346597067546653 -0.6843831814496149
P 3.121547261778333 5.841574851794329 4.0393907919468 1.0084542798694698 0.6007518804812041 -0.26279785343166995
P 4.710877710621581 8.348954805243638 6.012905507397491 -0.41183236239623916 2.1905631812450337 0.7581252483287717
P 1.663956572001973 4.391850335109759 6.739080037269781 -1.121138532339779 0.11606011092107753 3.3583086148100745
P 3.6666152723555414 3.858311300971584 12.794476859528388 -0.11453647518769952 -1.5897228548150815 0.7135824287213904
P 1.424513618327588 2.6635197612772235 1.8543468531652199 -1.172205526218923 -0.974240095881606 -0.4759338208618384
P 0.8747408160717823 1.5274355963520414 4.644488700944519 -0.47673806193068863 -0.10806629408232357 0.12197004864760928
P 6.235060588479505 1.747371559172023 11.450218710979716 0.262377992285432 0.08901570520877573 0.6126476034775256
Ni 0.8127508984555327 9.471002884059535 8.92156001370829 -0.36831207051610115 -1.5135750067079097 1.4771797559083268
Ni 6.608731770670433 9.104647988452797 4.7577494773229105 0.8989412260382906 0.2688736273121047 1.4854047149212806
Ni 2.292579371403707 7.59013006497424 2.7725175192051585 0.9367984060953802 -1.4666197210042935 -0.8821616925871065
Ni 2.2972767069940647 0.5244528586083336 2.9673917054329317 0.1385366947570388 2.6442793283592523 2.092232112172603
Ni 7.086900029526232 2.1436719691672947 5.973006115210342 -1.8940877330552603 -0.3192765052446888 -0.45151065482246755
Ni 5.0055702781444635 7.38039030282063 8.219393155953469 -0.5529013366568284 -0.9715820894334686 -0.03053699224659257
Ni 5.8383873740723 6.728718870651128 5.581716196511453 0.24368272986877385 -1.6487348145729155 -0.07299387585922268
Ni 6.955933839614105 8.903268365236789 0.6996308557426469 -1.5704902318377147 0.8333629259168488 0.572389270178111
Ni 2.620815015890278 2.0406101894883664 12.72800490086967 -0.33226443286392454 -0.9645881746141389 2.056709493785961
Ni 7.921562507293138 6.625834173067869 3.456214714381781 0.773493760365042 -0.7755652981820901 1.0991484012219328
Ni 2.067964713213964 7.642378603306676 0.28327543240742925 1.0608119675355794 -0.49035719537602 0.2831033977582415
Ni 9.151863667224134 7.974137249486015 1.5173204806452643 -0.6197124807441069 2.751643968388861 2.7498364828664768
Ni 2.229407663801629 1.15863883184714 6.338173628765074 0.2370798798402756 0.4770993019248493 -0.026687793703831456
Ni 1.523549110357638 4.574720219273284 13.483315959556597 0.37605700456884267 -0.19590006316785616 0.9619553649769821
Ni 3.2961408879969407 2.9676349603117176 3.7636264364287944 0.26104873195104716 -1.0008867519348568 0.5558910154127717
Ni 3.3029538886250194 6.7104980550178945 6.411998222438144 0.19646519164270682 -2.6616491870962675 0.4732012524220238
Ni 2.7617816841525125 8.433562766531873 7.852602079184767 -0.29855289954409225 0.9245342440160466 -0.8080853822969826
Ni 3.6784331722138233 4.338306301445856 10.538677439394979 -1.500723604666538 -0.48568267271848614 -0.11774469771235205
Ni 0.4421134121667111 8.754826968515294 3.7140415856196216 -1.7100096022229967 0.29791732284262235 1.2250458099484063
Ni 8.892512957952517 3.3805997275204036 0.4496925258613127 1.6769719550417377 -1.821050405552612 0.9026287021922068
Ni 7.635444441244718 8.402526799238435 12.02972546112028 -1.4831285172925943 0.673378345698679 -2.2095191535222467
Ni 8.930688129734474 5.41233717200476 6.4693718894236305 -0.12045592599592803 -0.6145530480303545 -1.0512160963170283
Ni 9.265140287790032 7.355179404463649 13.108313865615068 0.621338446383304 -1.5249439106664835 -1.2112443852889396
Ni 6.540322161080694 1.428223022226323 8.827587205592293 0.43302956529914455 0.06104981612346905 0.7124627132946504
P 7.43155770835846 5.818889703328195 11.348580112143342 -0.5400352793274377 -0.7846721455793647 -0.015525863549741004
P 4.376239150360058 5.242617963472178 8.35385159119438 0.9911746668534155 -0.1449246005612536 0.2944368204931897
P 7.4929119944523634 8.674692660170257 2.9424976908260936 0.7766544174812109 -0.026185143035800065 -0.8664265412400368
P 5.76378921124447 1.4314664206101417 2.278088463911864 0.5074151792995713 0.8977202091469958 -0.886353619181267
P 6.866190497551489 4.638656175919825 1.8867444885732434 0.5681631479119054 -2.379190879121193 0.7654112404672238
P 0.3788354553072322 6.089480465619597 1.3712808763476487 1.4729952855133341 -3.1680819478779116 -0.498656973490967
P 2.067964713213964 6.077168599915503 10.737848196470281 0.10129992189276749 -0.3195765529836109 0.7927711205374153
P 4.693309302709229 2.533159378534488 5.251087147700271 0.9100941573313166 0.9023929320323167 2.464647920444433
