# total energy = -381159.46627175814 ev
CRYSTAL
PRIMVEC
9.37337824710403 0.00000000000000 0.00000000000000

0.00000000000000 9.37337824710403 0.00000000000000

0.00000000000000 0.00000000000000 13.71888654024051

PRIMCOORD
 96 1
Ni 0.38128747187634954 0.3991475069548618 13.269798911673385 -0.07852431875914863 0.7318238914300815 1.0570794970763409
Ni 0.7020219823741451 6.904814789687372 6.703294654198787 1.0978818758046833 0.7785385218778011 0.4604280119167554
Ni 2.83305673470396 6.327217843338572 10.304406946967616 -0.40608877504424257 -1.2310207965849185 0.706847423990402
Ni 6.615430480367067 4.0659465604160365 12.709382430473848 -0.7338851448344845 0.4473236133243135 -1.2354891167689175
Ni 2.488500720506925 -0.007151887669205848 9.534269561574659 0.44467974794356324 1.3514055030232792 1.9814995841120262
Ni 5.7336017934161525 9.05066229179916 9.034407916429345 0.4498445799739542 0.7075398220717363 -0.4139890037279257
Ni 0.5489800222936411 9.068612311309684 8.306991577471434 -0.32889063129568524 0.2355089358087299 -0.07192789648855355
Ni 4.600978995747976 0.39534191535106417 11.083790232749697 -0.2512739119524705 1.0993571747986295 -2.3293775551434917
Ni 7.9649438793167056 8.165984097834565 9.09324836158619 -0.45760519775597963 0.31586490845997856 0.8108560030635842
Ni 1.2582073205934985 5.888196922286681 12.602567160325485 0.22643345587002292 -0.20646781138137346 -1.6971610283951029
Ni 1.87159182542333 1.926472955571692 7.925017036963168 2.9964376719336268 -2.8884562242556258 1.564298501204706
Ni 8.183934117345089 8.00040336955603 3.417305967656737 0.4416522739711491 1.0402408282524471 0.3240227616804226
Ni 8.124028856409446 3.08489129041635 4.212082215339698 0.3116963789045858 0.4945043847751741 0.29201201310178093
Ni 6.319681647157654 2.506000817857393 3.1356987503405485 -1.122640570806602 -0.3243827161230026 0.3642201598349147
Ni 2.4246492672924687 5.78355252656058 8.12960601651846 -0.48915571886875114 0.994636400149771 -1.554813444532406
Ni 5.138757830931917 0.5598343944049652 13.09076738548488 1.5853841182304116 -0.3986814268365779 2.11243635503462
Ni 0.8549299031444663 6.785182362004444 4.332411085032878 -0.08492225186569245 -0.2817455981787664 -0.2218000708630696
Ni 7.923757254915014 6.378462102693158 7.3305498842879775 0.993450864482102 0.5373263650367069 0.319916709931849
Ni 1.4386354801538437 3.040958266162657 9.768683693652424 1.3709435730562067 1.2106635730848052 2.284962005142594
Ni 1.169113359524296 3.4866061656970246 6.820440324609579 -0.10910990485548952 3.526761123289939 -0.8589891111253852
Ni 6.443204026849389 2.1010333802946546 7.749771418283954 -0.2088669077411693 0.09403244169707678 1.1884163316508307
Ni 1.943588744410447 1.2419632559398501 3.2661921114996346 1.598803734070427 -0.7018962506327138 -0.1528803650732206
Ni 2.82732022716326 8.400121715251462 7.645535701853238 -0.9102898182818904 -0.0014675856844619886 -1.8882238180753157
Ni 3.426110381926311 3.941768044240887 8.830119822318588 -1.5015563849804785 -0.9529343924252942 1.338908656107849
P 4.32532668568768 2.508765964466064 7.215338879165422 -0.18530968924651958 -0.5627712874723727 -0.06154989568833915
Ni 4.801428691430763 4.718221211955613 7.385123567626969 -0.5570536682623052 1.0728403594550233 -0.2977121488103518
P 2.89819234075024 4.394146029419409 11.721101223116115 -0.1939588802810853 -0.6613260425198353 -1.6576426585855064
Ni 1.2468467860521126 3.2059672183627876 4.4042842754259794 -0.5155843453739251 -0.21723379164862588 0.790315202797755
P 6.239604876046218 6.421795230733444 13.271651091232279 1.6394377055417055 -1.8473049683737668 -0.14008886973550713
P 4.235323506920033 3.094742711045885 3.2310447547588472 -0.10785546362309811 -0.5754789648470282 -0.443791688911655
P 0.04032333625708603 4.587612558243012 8.614185305627245 0.09075917026244369 0.08749978278488156 0.24042231394994723
Ni 4.568228411847314 1.7550057456991068 1.2335572102494912 0.20584200487191645 2.7557672465286154 2.0877686770846107
Ni 7.171431163033232 1.8259340995560933 12.30142394788458 0.3400664454068466 -2.033717917986794 0.8233597919575497
Ni 8.768673577984758 2.867438286434821 13.513583610072128 0.8142750560474621 0.19474486651749043 -0.47450017373910536
Ni 5.903672369916902 9.173828483114187 2.030093778383667 -0.028903570408227643 -1.571586807336003 -1.0150738420685164
Ni 8.973388160809733 7.06010354855465 1.6482963947259217 0.3860074309133352 -2.2558774290718118 -1.816349914753149
Ni 6.51056112356094 6.631918252857413 2.375123148186593 1.622099214263258 -0.6083520614259652 -0.10036712566585296
Ni 6.199749271368023 2.6296169313324738 10.434860002599864 -1.3418422848148759 3.010571540231848 -0.017163399153163988
Ni 6.756321730112589 7.270160957030277 5.034008453368472 -1.7661051596649842 -1.1427967340395029 0.8851624270866434
Ni 8.922031420915134 4.933190270678505 5.659754569545811 0.5852327017996825 0.4997916013160425 -0.2591070348436441
Ni 7.39133061876006 4.766653457809854 1.024021898947095 1.0888567894879377 0.686684575889282 2.017266714409306
Ni 7.226143572371574 3.982495373104189 8.932820179378117 0.7376713513497941 2.0499696039589663 -0.5556863556011333
Ni 8.905206206804749 2.1898555133921573 8.996530094579724 -1.3064767608313888 -1.175514535987498 -1.5611100761743952
Ni 6.8211667614305 2.5868368326139213 1.0729031296235585 0.3689401910184033 -1.0417266687693543 -2.111476819334828
Ni 2.925637592513588 4.728906863256916 0.07869607248276742 0.28821860749761974 -0.20243169363878685 1.4792281537969234
Ni 3.2257637934052026 0.3985869789304601 5.683542329083046 0.7276314506152888 0.49848265269663183 -0.23440181878748018
Ni 5.9408378150131025 2.4446051897665697 5.479377963566305 -0.7050772194638566 0.4381568592233808 0.32591972159281934
Ni 2.3301187467892692 3.264832034303302 2.2345599666827782 0.3936168678294769 1.5754470616223577 -0.18422725481561822
Ni 0.4525692020965458 4.585934723521141 0.8733673383283822 1.1249949299713915 0.6005271660649077 -0.009935513946157083
Ni 7.9728550106310045 0.44675583285350323 6.875110553745415 0.6852020778064845 -1.2518927549379213 0.7711820815127299
Ni 3.6634349479769313 6.620838919666061 6.018887124390791 0.6786912732711602 0.765815674994494 -0.45902187559784813
Ni 7.009215477576775 0.4393967935231054 4.759273797047121 -0.5420386829107117 -0.08710383289804353 -1.2838181428916082
Ni 1.7699844042776007 7.703351636758126 0.1230640214911802 -0.8307082619028209 0.3713536855559024 1.1008934089374975
Ni 2.426392715662681 8.278314663794935 3.76037442671209 0.45081748541018485 0.18056857501710838 2.3288458510097376
Ni 4.371856135740023 5.997734221503377 12.158692703972001 0.7399382930070998 -1.4074390968790793 0.9121119590922937
Ni 3.2496846549147875 8.532876872602658 1.8248730331286305 0.2293657990254695 1.5997699546384385 -1.1210562570386176
P 8.688690540656667 8.164353130004367 5.4997781841734605 0.6179667016975938 0.5136652739743411 1.0318294642603003
Ni 4.636513473013978 7.225871744399874 0.5884428824196221 0.04083040375280065 -0.11586984928714239 0.33802627504836624
P 7.139280475345976 -0.07381722905967221 0.20373600212685536 1.20842517067259 0.9891890038819545 0.20773099436451323
Ni 4.293869627997176 1.9840817388153869 9.403789323145242 -0.6856083121059675 -1.1707749644199834 -0.6445267115743093
P 7.169087818449613 0.976209233400762 10.219830016917797 2.569036508564853 -3.319819200485625 -1.091186466062379
P 2.2796431044581116 5.2061711679134755 5.257900968265785 -1.6665638723345364 -0.3603390796129536 0.6301218490028889
P 7.1107197915608245 5.134792891896433 4.2047700429009724 0.28394749092609156 -0.07335691562559625 -0.5816131027692242
Ni 4.414280046081866 6.66367525865462 2.965406024773273 -2.214569828572276 1.5579039105322718 0.0387660650246042
Ni 5.5538766372308945 0.15145879647981098 6.719400930190918 -0.9371424196983603 -0.6433820564469049 -0.9811499356275619
Ni -0.037635988688591505 2.4271238391727703 2.252092870857417 0.81259098347682 0.9782116789348442 -0.7024428671648031
Ni 0.04663818124102309 0.8556966454922265 10.942512799816795 -0.3610553889536879 -0.13977828047362378 -0.4200136126554508
Ni 4.704058037292218 7.610049028816743 10.49684146683659 1.1114688704604987 -1.1879825865475215 -1.4293598082115704
Ni 4.862580611684891 4.900430313399508 4.191352989153002 1.0161449636455082 -0.732434528430887 1.1948116936542132
Ni 5.0908130007510675 4.835622775594936 1.195593153319193 -0.46319143359450554 -0.4069616645674991 0.30724939887682573
Ni 0.5322222965072633 6.809187583919039 9.544833358957614 -0.35078691714814425 -0.4132991767497527 -0.17486869641885366
Ni 8.878060903148103 3.623363755597042 10.929727511768569 -1.1155114159609885 0.5354767134224778 0.8973849372947641
Ni 0.7272241847020531 8.951182627535358 2.028831184322013 0.49342863521249214 0.8400146269054114 0.2858259388957271
Ni 1.8922601246508515 2.487975811320194 0.10492278506263367 -0.19953148927285638 -0.7446248998494918 -0.186512194195053
Ni 6.625178793834924 4.8180383178394575 6.340224343115493 1.2463844235251826 -0.821898634030991 -1.2106237209858053
Ni 0.18373602477458204 4.816313616225913 3.2262708931730977 -0.6776327500996587 0.758691662355203 -1.1410882359888284
Ni 1.0088942036530828 0.8038459285594007 6.2533153165360575 -0.4406819396380798 -0.839830278808747 -0.23044874767700313
Ni 3.385692374548047 3.2887435224345527 5.3097029436312715 0.6476966246618587 -0.6282200039944859 0.7593575780739761
Ni 5.154045810995449 4.812826719485488 10.178330321679734 -0.2502963785305496 -0.2589633101769282 0.4286766876470875
Ni 3.505634123716013 8.10114843989499 12.380266245069365 -0.39176695910493176 1.3326804158099501 0.37041523290203304
Ni 7.971645844825856 0.6629424934220441 2.283577111345091 -0.09697069838979429 0.010417852899214316 -0.6363696296848137
Ni 8.781318265357967 8.043567776786297 12.04125927084634 1.4437957811312425 -0.9205467201232082 -0.42903072855239655
Ni 8.377222551980335 5.631694424163721 12.929968017494762 0.1821857989055572 0.7594380536029244 -0.3455128132333985
Ni 4.628733568996362 0.8684256932704459 3.489055429455824 -1.2845321382394974 -0.03040020955841216 1.8693771176824578
Ni 2.35474261167394 1.3278421482403273 11.80171321413045 0.20510229849241451 -0.6226646213938954 -0.1419896863026458
Ni 7.531518865130495 6.1372194644987275 10.824064229817512 -0.06641210887664692 -0.05737236727188184 -0.07351889512475726
Ni 8.476552242190786 2.6507913929900573 6.471171375785969 -0.7986872289115341 0.12861352210605592 0.05592560752302627
Ni 4.629970854936513 2.7326772261200474 12.2111395677669 -1.1446160466364286 0.8961664915066307 0.04019996925765335
P 3.243816920077405 0.6398736720030632 0.2375710859008165 -3.545092574609275 -0.8591387493293721 -1.517199490834374
Ni 6.30032562089696 6.379465054174948 8.886394773825288 -1.1813393701993913 0.5111455928762809 -0.6114204159386438
P 4.461540619644298 7.307120187803118 8.16471306773241 0.6194366013749009 -1.1844830580346957 0.4840466797769599
Ni 6.489546009335044 8.269438074512186 12.132956219079029 -0.21892634885970041 -0.6292803269382001 -0.9068453113767155
P 4.703739342428846 8.285129109844101 4.592315182153419 -0.3098259013547503 0.32881092709768533 0.16022112170900793
P 1.7992293446811687 8.097530315857881 11.090375031029668 -2.1037493687835833 -0.02458000333220928 0.576094229833524
P 2.1586421635383495 5.623670812309409 2.012395902750341 -0.5394069017148194 0.33149104503300975 -0.08684260881685689
Ni -0.005837740026712191 1.0192236665776764 4.321243642085182 -1.40569306072225 -0.6098263319786464 -0.47314468815247546
