# total energy = -340867.2756869507 ev
CRYSTAL
PRIMVEC
9.26870278416645 0.00000000000000 0.00000000000000
0.00000000000000 9.26870278416645 0.00000000000000
0.00000000000000 0.00000000000000 13.56568341946036
PRIMCOORD
 96 1
Ni 3.199454267828677 4.881297474635917 3.110122509767635 -1.242470690293073 0.30036655571406334 0.5419250401509828
Ni 6.061592632864712 7.015953890440265 1.5735374871435062 0.07066111396098798 0.988869929979639 1.2930877411189923
Ni 2.632395027511753 3.721393462675466 5.22832327053343 -1.0856650220235173 0.4707342789387699 0.08412212456190028
Ni 2.9800826087927015 8.031562736443641 7.288611322156559 1.065004151240056 -0.019776411295978843 -0.7112229273502784
Ni 3.399584099749615 1.4247108523634342 6.581717015693618 -1.1364880182126558 2.1450970784924346 0.08788699092097121
Ni 5.360925040975895 4.988026587944995 3.488212363264398 2.6270953603807983 -0.22567369488586295 -0.35460063446727963
Ni 6.184569782268519 3.6781920386951263 9.162981243937502 0.40398047045198815 1.0348165719130824 0.1451788826639048
Ni 0.7662047359952715 4.755011398314928 3.700324774228843 0.07797410268263347 0.5243795750680518 1.297435733675043
Ni 1.440476915910003 5.178285251331485 1.5205371905109428 -0.9470272829122399 0.11484320779484092 -1.6689251734778612
Ni 7.9524080141110725 6.141368358288179 3.5132675208064823 -1.3994388522824222 2.180968852688379 1.1453457257136017
Ni 2.090416897104892 7.159090468541184 9.227119740784005 -0.03324050722068469 0.8843898105866769 1.2347694649940735
Ni 8.120106654762496 3.51151295535712 13.476896000527057 -0.4550088977837131 -0.7232083818469287 0.6672552635200767
Ni 2.392252205390616 6.95077637200436 5.075654758422345 1.627751527453029 -0.335394493852474 -1.6167173811260542
Ni 2.3780710900312685 1.8535644644952374 11.89676568504688 2.7176539845966614 2.1291135585799847 0.507366585449823
Ni 8.325649409147394 9.423490186829287 11.035765290660938 -1.4466293939252957 -0.30323359284921325 2.3640439961774256
Ni 3.364946957201979 3.724099923907446 0.9946374789366701 -0.33588994543165385 -1.3014931915738683 0.19341534907278946
Ni 8.416723683344093 2.125489668686442 2.117956067010574 1.220944643295839 1.666799642494426 -2.5960678016510323
Ni 1.2777648373914745 7.6203938093482 0.365746721912421 -1.3672977487735032 0.3174091130186469 2.5802038380355823
Ni 4.784504410781232 4.225425523617511 7.217093084101485 -0.66805796192703 -0.6230101776587722 0.2776277193556509
Ni 4.564224418866031 8.606074013851359 9.147041855647652 -0.43218752901382335 -0.9734996181711556 0.33981139197324706
Ni 0.08600800121930137 6.543231507722976 5.404744687436279 -0.23217550056012273 0.46692827492911837 1.4109563660037183
Ni 3.5861538194021048 6.693829391617538 1.0633296894930084 -0.6114605251479598 1.605188297440532 1.847776508693547
Ni 6.066736762946044 6.244519752297448 13.02883485548076 -0.852734645575241 0.4703640400835448 -0.9302611191974947
Ni 0.15106688025873496 4.91276472080911 10.987837755097766 -0.4124607400088574 -0.4192908755568134 1.697235076166148
P 1.8010016506371587 2.9961823456418433 2.969419893034928 1.2765830585957498 1.3746745008535488 -1.2761958504596602
P 1.5250074858951348 4.483549629266187 12.877320296874407 -0.4176250578186162 0.0389925792131135 -0.9780293877207092
P 1.4423399251827018 9.105490260774477 10.420873055549906 -0.5942924980091056 -0.11834247919735101 0.5485823975665004
P 8.66919388025473 3.2601271966798464 9.516598014431114 0.46199381374197857 0.33017001222874104 -0.0043629049543860345
P 9.532860880450402 1.3740295851837523 5.5646974731165875 -1.8429960565857681 0.7937046880952783 2.077446983443629
P 6.085663454164206 5.798324397134704 8.399640537122647 -0.28592441214680436 0.06285498765300788 -0.4478936268951706
P 6.718947576338998 8.058812722820427 3.4062343940439495 0.28235752073115244 0.07101206954250351 1.299217251055498
P 6.009613747286135 2.293401489503398 6.877353415513767 0.44179754129976173 -0.41517993871223335 -0.11901302290181441
Ni 4.46849725583901 2.2118925166471213 2.576733686291171 -1.4833809996230323 -0.8091768155889484 1.0626693324592924
Ni 2.6449355824667844 4.4400979503089175 10.741131764489078 1.1223124980432218 -0.8625346623847985 1.5907767500008927
Ni 4.922014886252658 5.3745500341642884 10.491522816148006 0.16503499815788353 -0.5726168128078847 0.3285067655937052
Ni 8.39990098767271 5.959247616003328 0.4093022103416019 0.6083037246865329 1.0117514625635027 0.10256001955211369
Ni 7.951054783495082 0.7517566819938656 3.7020886083810547 -0.16015015926175646 -2.258162625561563 2.7037556293480143
Ni 0.956622821070769 0.4487034661537503 12.53975135849398 -2.1669673962029647 -2.345710745085876 -0.0205719106140807
Ni -0.01093428875125653 2.4718332880542495 11.557921373154398 -0.40395450231005914 0.5281698953484194 -0.07460441487945216
Ni 5.026185837575344 7.035668421400612 6.799961600463124 0.09541620941848084 -1.4722625211123677 0.23720560678486244
Ni 6.743509638889502 2.2989349051043986 11.116901661662673 0.06664813614685296 -0.5055974093645422 1.5084569687550538
Ni 7.980519989852837 8.390715703149107 13.292565599482945 0.17113005531202788 -1.945278654106779 -0.4294004531869895
Ni 5.5489962904899635 8.506036903999437 12.794814011591551 1.079141876193019 0.28375080153425325 1.2912689427426987
Ni 0.3502133028073682 8.190344884954088 3.8828783649367544 0.5101567466004504 -0.23027494110330018 1.0494242945239283
Ni 4.799640202534052 3.1317741996234756 5.17618959761727 1.9840035814808026 -1.2294922757555342 -1.476011703742155
Ni 8.371214352354292 5.616407566312535 7.842647108100007 -0.16631669308378452 0.4882339783854301 0.22604316241013972
Ni 9.031785535717267 0.29814080333001436 9.02257707943654 2.4317835656162443 -0.8785467215423385 -2.924863559240066
Ni 1.2144225221197213 2.658171290135509 0.3488424616559646 -1.8616992894222262 1.488270723615166 0.33216313139936987
Ni 7.910912031454995 3.7853475123352696 3.8445689623202473 -1.0529873292848382 -0.6908927004333585 2.0001894472120454
Ni 6.129467343829747 3.4415620549538537 1.6484341673871303 1.6050911097410356 0.240050018212193 -0.60156769151428
Ni 5.295543611077307 0.1466141954099568 6.380958765719501 0.4429247129256695 -0.17995202447903202 0.29152273217018826
Ni 1.7109562024567253 2.0665592559709305 9.787287700532513 -2.2326919920942836 4.169220667922574 1.0997850063646673
Ni 7.200521570277317 7.498714278343288 5.776892375536391 -0.2344810087648478 0.5174789912934764 -0.7859705526758141
Ni 4.658403708517229 1.6279456997388702 -0.13184359054939698 -0.5450070215104162 -1.4828107289418593 0.8480588373661265
Ni 2.4341282048635136 0.6568358961147284 8.5677738799377 1.2262159189971076 -3.4557500821887004 -1.8176246677005148
Ni 7.668711557301324 0.587430922309283 6.457943684715061 0.9307894808971389 0.48403716669526314 -0.3120064539458368
P 9.149868810016672 4.5854960919050525 6.00586733759447 0.41283869217356645 -1.2795616816080995 -0.6284169504966403
P 8.18910287877229 4.764066920998642 2.0559475180788276 0.40728073846981466 -2.3785411613523357 -1.850136524285291
P 7.806833767160801 1.118556328549961 13.15224207269677 0.06108606867804318 3.036705518314738 -0.29309470464299847
P 1.5964506474571294 7.1047387950332 2.532143810624014 0.6019479576718343 -1.5360955564079286 -0.1703417550827776
P 3.0662908139935467 3.233831886696533 8.16188811346633 0.34541279732042446 0.6783739991410576 0.8174853354546439
P 6.454344647398698 2.2427943719465104 3.576348458657886 -1.7606143117537418 0.0910479051474561 -0.14690614976765667
P 3.477765608283012 9.285015766261541 5.123161494876159 -0.455488408523293 -2.309133460182475 -1.6128884942982675
P 4.363288209797208 8.972651211539072 1.141560322151507 0.15114846998377843 0.15011900027799951 -0.4588704376216484
Ni 7.3139890305577975 1.6283627913670864 8.868050192404182 -0.9589173494816066 0.41807962885753164 -1.0264340042763418
Ni 7.062760839828962 4.849913646788367 11.69840802911072 0.789823350763001 -1.6448791882722509 -1.9308190270380234
Ni 6.6236653110487405 7.040858894996191 10.064136439677238 0.1341493643226206 0.37522011048984405 1.6392741833806477
Ni 3.462388830256111 5.54557613913859 8.484629907898816 0.7268662903144901 0.26367845626441033 0.5937484525801775
Ni 1.235286372233376 8.72604810353201 6.000440512076236 -1.095969746383635 1.110421660142907 0.9608240795860161
Ni 3.1548532697181004 8.246003445563817 12.8118109588765 -0.22588606800698516 -0.6384064576091845 0.09885634544828137
Ni 1.295801733136109 4.72041133057869 9.094379866669085 -1.4240571650517346 -0.6684906785890745 -2.567113323400211
Ni 8.176024739052002 2.982816876133229 7.13648595603244 -0.27643498459913035 0.6251760749618394 -0.44607277163634784
Ni 1.5476787330643924 1.1573921934883054 4.016975177148803 1.2358526707559232 -0.04870646406676773 -0.5412454975854549
Ni 1.329567617615915 2.8285393172075155 7.223970461615627 -1.5456803718828864 -0.5463146845782462 -1.2605398890899582
Ni 4.166439498684904 0.38941620837854274 11.477314245085353 0.8561644971923965 1.6453473861579213 -3.1356449103951287
Ni 3.0130421161246237 8.81120894531089 2.898891552444154 -0.24152814541961629 0.1625867937277071 -0.14555966304209125
Ni 2.322820352346908 0.8940377588217994 0.7394506252209204 1.9324876729896976 -2.127810266387529 1.7749453836644336
Ni 4.695237533640136 1.7462699603123557 8.621873444728184 0.15371134561494817 -0.09140631692813936 0.1976746385697757
Ni 5.312505337291428 3.5985368064086987 12.828877421432818 0.6068955314850968 1.4222697341340085 -1.0078140751823095
Ni 1.700167432340202 5.843351755576345 7.060517813739443 -0.8322470671448505 -0.1883947559297465 -0.4005467621800908
Ni 4.595710202444923 7.31506420008831 3.7590104931891344 0.6660897824570657 -0.04544373415509593 0.6738241749868459
Ni 1.2962095560614757 6.945141000672018 11.822479812321022 1.0139903791963505 -0.46161380469474056 -1.1456892250959494
Ni 6.818067084608844 8.360323626506426 8.128028615087747 0.23361711810265573 -0.06906445889782943 -0.29721258346611396
Ni 6.507259671965049 4.9848937663819495 6.019745366370647 1.8006145062957633 0.6127028821954932 -0.7615730976680561
Ni 6.3240915662582315 0.8401133725151662 1.598769676910011 0.30684882100429733 -0.7553811099247313 -0.422253300619247
Ni 3.518798155796628 5.2691741514712 12.806738197807107 -0.09094300413847563 1.395439501315042 -1.6010501069024425
Ni 9.094933208229186 7.201884069596157 9.927421218910277 -0.5790419996079383 -0.12489056472851394 -0.6624964086788526
Ni 8.441804793254155 8.051481178866672 1.9501211764272666 -1.9510075861707559 -1.5273221810906727 -0.7186778409664268
P 6.315073118385914 0.25300963541646154 10.120542984606898 -1.2134560482282777 -1.2832684410357253 0.4707677032798666
P 8.197787653342035 6.626529340229157 11.973764507096714 0.18290776467324626 0.9146740633925151 -2.0900536164640457
P 4.20906626308859 5.510206769065865 5.233193047010424 -0.24747305014914153 -0.40144176319053443 0.24159525121212588
P 4.999352942826774 5.135843860984783 0.935998103490625 0.5081206900070281 -0.7939533137709746 0.9394222168714724
P 8.958479364882573 7.895989419867707 7.552965849860499 -0.2463664473485241 -0.8076660353713767 -0.5391757595406198
P 3.590315466981417 7.007028129596439 10.937617142449692 -0.10625572323614603 0.23669627124861173 0.009157241019235842
P 4.621625495611417 2.78085184104814 10.58744647567543 -0.4319962389386238 0.886565220971441 1.5984214110303439
P 0.5323479481464938 0.2356243294821292 2.164662914408499 1.9494669811565135 2.8972036314309526 -1.3225353569561482
