# total energy = -381171.89212611463 ev
CRYSTAL
PRIMVEC
9.26286198225113 0.00000000000000 0.00000000000000
0.00000000000000 9.26286198225113 0.00000000000000
0.00000000000000 0.00000000000000 13.55713481546229
PRIMCOORD
 96 1
Ni 5.309527955898658 0.7676791229572069 12.344855817280699 0.21267085486829182 -1.6879695917038222 0.6194749108120041
Ni 3.113359002370893 1.8890958222869967 4.1749737396903805 -0.5147801043050747 0.7159437298647153 1.120493185446296
Ni 4.960503323605448 0.2579466174448493 5.3430697047308495 -1.0410250147166393 0.7123171888557216 -1.3377331477425092
Ni 2.1891662300136026 7.506011846727326 2.9612303917427734 -0.7863981271315359 -2.0437277368143123 -0.12855824338808827
Ni 5.380166539918511 8.104633552846778 1.0950147643662722 -1.2639448010064491 0.16564280694521152 -0.7961040415653902
Ni 7.915560017964373 4.3178367096687404 7.0490054031029565 -0.19204932196319827 -0.41790505095288033 0.15915488522802268
Ni 7.391133834792602 1.6611553193286286 10.940946843045502 1.4109080292642864 0.1700933865173974 3.454590771773276
Ni 8.486161567165382 3.877081957057069 10.310594277574044 0.8976243069990799 -0.16398675939902724 1.6136436272967372
Ni 2.970516410688473 4.259638149034498 13.341522146578681 -2.7643434182334006 -2.2693474385337886 -0.5056758280109614
Ni 4.882445187290829 2.9720540457458156 12.902840422435883 0.9843854118457239 0.7634232635029174 -0.09902089605060367
Ni 7.767456120784541 8.884075583992656 1.819666041730899 -0.8410111864907257 -0.4951515314408699 -0.622102064022206
Ni 0.46530874664784044 4.9705998429578795 8.548600665927646 -0.7797410268263345 0.9563758140066754 -0.05374994002794614
Ni 3.463745275347412 1.908381100536319 6.7101310147605675 -0.08545164200660121 0.5194420285571183 -0.7462308108840309
Ni 2.0119491582239615 -0.23301284607524048 11.852284615808935 -0.17942700521349744 0.6579563547166539 -0.8700592528966178
Ni 3.4066767838516987 2.936040039101548 2.1170279886697525 -0.7549622772197578 0.2877162139399045 -0.9273897111869706
Ni 1.546351410288235 6.930704763736378 7.248566350105381 -0.2441203316268247 -0.7784673023202334 0.6234842890817134
Ni 4.157478046339121 9.114396642431368 7.797019470477402 2.2489986996741074 0.7745437988961111 -0.9626374786456711
Ni 8.634432195857457 5.910687686148905 4.046140300181003 0.6439312440821556 0.4123501825729221 -1.6864212733800956
Ni 0.7255117972250312 8.118879834281676 13.65908454251183 -2.4052916899733026 0.0766677251663841 0.6907931987410167
Ni 3.9148003302709213 4.471961467012868 11.055002312853166 -0.9175745248687617 -0.9074006696595535 0.2402431080596056
Ni 0.3845356655422137 9.041710965955657 3.11828962370236 1.6342103957044951 -0.5800969232350139 -0.9315142748783055
Ni 7.447350143003523 2.1882769952816457 1.7835631116134358 -0.6919476240604341 0.13264989695895862 0.12337875606967784
Ni 5.51443172158226 4.058152379351858 1.6338650759193334 0.3462455776343649 0.020094199646713776 -0.10068748511974918
Ni 5.450656918149702 4.0280758671157635 7.103612752220743 1.2378141653576684 -0.43467507132236755 -0.11075772487155763
P 6.318475913645622 6.15233722455828 7.085378808784723 0.08579308450641998 -0.22487845267807724 0.46868228150574764
Ni 0.7727125620545563 2.176281589262014 3.426349249723894 0.567600590540216 1.1113045769684926 -1.016818849784081
P 5.957844915528012 8.823626147943148 3.152629831220953 0.2705337886233469 0.8779491971676558 0.13070022943175555
Ni 8.698975816818686 3.724291051810878 4.68987399579606 -1.3258392245184005 -1.7039438556448911 -0.25465028462387107
P 5.959641910715509 4.187369301339392 11.459601337035163 1.2929476159967022 -0.09522286246075214 -0.45492276582781005
P 5.112071531095199 1.8388818485167873 8.085867921143944 0.8496822319021625 0.4019873512813593 -0.8686659720935168
P 8.872756366883785 2.2053577124246573 6.385992913241831 -0.8440764556796109 1.590348147103906 -1.2389603631469694
Ni 0.5142435192046823 1.9037589325024993 12.126667255216127 0.2814262671661347 0.934047068602488 -0.22978874549550102
Ni 1.7716334719125222 5.597260231719358 1.2756887361763973 0.22501266426309635 1.0485683742815362 0.1717286081279752
Ni 1.9430705179444416 9.113905710756434 7.352617002892346 -0.10976193661719161 -0.04634362026154599 -0.9128287826536603
Ni 2.734582058004281 5.969710641482566 5.131836625585307 -0.6221254610609737 2.4900874435634597 -2.2625494417753487
Ni 6.674808943892104 8.356333296299628 11.01957742421882 -0.5217603922776498 0.8035419859006742 -2.2158391822030032
Ni 6.6016879129122055 5.717807115070309 0.15458975300604652 0.5067731748401981 -1.3865527403483735 1.0665612113145309
Ni 9.24017704269436 5.867004029941507 13.103553669445137 -0.6004351205717336 -0.3295663172064711 1.0932577467691107
Ni 4.689119998846254 7.246725819467466 5.944898213602421 0.008657675674997992 -0.404778026652619 1.7576963667759988
Ni 4.37131121078946 5.804859490184205 -0.23317865130130336 1.682669519647147 2.1797393511566523 0.33004762771826385
Ni 4.597769655861232 4.36182604031525 3.9609340134220976 -0.5173928593375734 0.1373295618228151 -0.059791775346651865
Ni 0.09731933112328495 1.3358250874973627 0.8658756470921204 0.1757834949236392 -1.4119773510690652 -0.5864287789903126
Ni 2.4158840352155293 5.67009411398373 9.690748576232366 0.3088213713496359 -0.7308805536802058 -0.11931744151611064
Ni 2.6537450631522947 1.1508550003884692 9.057942278672412 0.6210229720254143 0.1432076178701469 -0.2104216538227989
Ni 7.113822278487026 7.7640937019543275 13.03153769787693 1.7426888376235727 1.4791739035202203 1.7914109854196243
Ni 3.1673614866137116 1.8863447523350039 11.220928882405488 1.1837379523385547 -0.33859885972238457 0.4521128071828407
Ni 0.6149039645760607 5.212703261595024 5.963186807923009 1.3197904472211592 -0.8262831362519318 0.05770995311695867
Ni 7.139591559990204 5.514700344574205 9.30065519361542 -0.5562383714498614 0.032765881577111314 -1.6270485878487333
Ni 5.968747303856279 7.7128978648342486 8.756472252529154 0.04487860568024529 -0.5960483043579476 -0.2458350003250863
Ni 7.5228146780166005 0.43223291976374834 9.108103454130413 -0.9824046339702693 -0.07531995288923803 -1.2654779498215238
Ni 6.7988386632765545 2.865762706691554 9.14400260128847 -1.1912507157758325 1.114560622011945 -1.6709005520366773
Ni 8.165064463172705 1.0823005602716422 3.997836328512143 -2.758589803579075 0.7738884247002994 1.263900835142391
Ni 1.4949981045177054 7.876304009693179 9.672472949918287 1.5209057360413678 0.2711086872902105 -0.6714957839639855
Ni 0.5952852233022543 7.607671754885977 4.954074897522341 1.62605794180069 0.6930282587191227 0.8097206039075603
Ni 3.532438658391107 5.132468352759468 6.934244103226803 -0.12973966529069914 0.1166954305122313 2.5792502158730612
Ni 1.6905463797921731 4.5347914585427205 3.4872877648759792 -0.16014244595227262 -0.6768665613575955 0.25366298100993734
P 1.885307311814387 1.1226125347870362 1.9471433982740416 2.239362205025608 -0.2986629427593953 0.1372179759456153
Ni 1.0146909320575197 3.3708017201342995 1.1021499468040499 0.4211577535622231 0.49001112489051096 -0.11568498696984592
P -0.3675781444610253 8.390967136537004 11.310811988082781 0.9974347888305145 -0.21040365610066988 0.29941807575786494
Ni 8.196196941652998 4.609941056254897 1.839282930432347 -0.09293740886068509 0.06320748589642018 0.37430891152948437
P 7.4559553416075675 1.0336242215587756 -0.16386095137287968 -1.0819058120914014 0.017513069183098872 -0.4444858867652023
P 2.884362533168326 3.819179808000146 5.454496374362164 -0.776646961282043 -1.5883334306667225 -1.1005676501669626
P 1.0094111008365236 4.2265604695780485 12.027943674245295 -0.04631996611246216 -0.714611384206537 -0.06601307366601535
Ni 2.256979641187132 6.742770560854293 12.561403926522043 0.5133839952884964 -0.9956689551793434 -0.7766392479725592
Ni 9.087228668797717 2.3350748289489167 8.515629509381794 -0.39427918400382417 1.056777906675522 -0.016910659712409584
Ni 5.033429834487732 6.520693449409768 11.013368527960164 -0.06661085515101432 0.38044459211357706 -0.8439124192979208
Ni 8.390587359203565 6.8427538910287335 6.577677648863181 -1.2776739776670833 0.22493964493331584 1.0984847994960047
Ni 2.845680822328186 8.79989469603404 0.5556077548195589 1.1088414601399808 -0.4598567127943178 0.9098509309722589
Ni 8.946924101246092 9.594564871964684 7.254070342581725 -0.614917887568941 -1.9592284314186514 0.02688628286788273
Ni 6.670853701907253 8.860260766327428 6.6611897582004715 0.4397337167921975 -0.11377902819638469 1.1225747505656731
Ni 3.6922693385986265 -0.14989070321936004 3.030656467154155 0.7405512440007505 2.031606013850114 -0.6875474381102094
Ni 5.33403748819823 1.9746383509289231 3.433506663029971 0.5127170511284589 -1.1941164673594014 -0.6103760338345294
Ni 4.672845150679079 7.096352521148783 3.6925027627157654 -0.5928508804665725 -1.241986551567803 -0.9802989004811763
Ni 3.9722115476529094 8.677745337593208 10.161343638104459 -0.2904444115043449 -0.854713880788799 1.3436227737540665
Ni 5.054595473680672 1.2731340388943786 1.0705895241090015 0.23050762593939658 0.24723830843051614 0.7855936289523696
Ni 5.290288991958293 1.3019971162358233 10.119601477728498 -0.6673213408713217 0.03553495968181622 -0.7772156893013196
Ni 8.079484883083614 3.5582264656178664 13.103363780778418 -0.32513733490084007 -0.2555200888233341 -0.4530638582422003
Ni 1.8547028164561927 3.0720003244730907 9.926072506324516 -2.1870160873237237 2.270974689724566 0.9467640019485242
Ni 0.583213861815935 0.801210682641427 9.971068710047732 -0.6482776939763093 -0.7548949143169322 1.026800129366509
Ni 8.474879401503676 7.585070372115397 9.31802213318778 -0.62672876416094 -0.3078420381555021 -0.8771621824899861
Ni 0.34773431564569246 6.039617459420911 10.721904245123783 -0.09043084038874748 -0.17253593452061897 0.9463037744826542
Ni 1.1836362682676007 1.0337631644856438 5.431652304612655 0.39016464761481834 -0.5849262263028572 0.046326650980681505
Ni 6.435113869320676 5.773347234370471 4.745349275063683 -0.3195989215811141 -1.1282738578329794 1.39432389965336
Ni 1.7059875703981386 3.380110896234477 7.547934632908213 0.6421163023606038 -0.24926510905255778 -1.4675260348686467
Ni 7.446970365670083 7.918607499493685 4.600220609091189 -0.5263832357616418 1.0665426993717697 -0.6612527660797386
Ni 6.469340143639238 2.259665871106586 5.529060559209135 0.8461595634608847 0.2589062316867477 0.6495380487459717
Ni 3.6413235987469106 7.034791541684328 8.366799403837529 0.28042456537449767 -0.4427161964592891 0.4918065262280369
Ni 2.932742460303873 1.7896219495110735 13.462763744563974 -1.2158289193358287 0.011464806106489932 0.9717019028407844
P -0.07324700590025966 6.594342463511767 1.8973342115641085 -0.4239013777456313 1.0239914562731203 0.08015619793561679
Ni 7.26730789836756 5.871589146528161 11.591784227368247 0.9226665946796883 -0.16507253626403828 -0.8888704720658499
P 3.90037805446199 5.628791013256675 1.9303868812937226 0.0997955694330991 -0.12545235076925493 0.8665725798995979
Ni 3.85592558072592 3.494979645307409 8.813005350613334 0.06371450743982576 -0.06813937598039879 0.3869620815171207
P 6.836603350799362 3.513079277247455 3.422810836519648 0.13708530702249297 1.0846057275210674 0.854983589510418
P 2.745892012251362 8.435299193069786 5.0525270766426935 0.2252327506937024 -0.007337157091361558 0.12127559368374598
P 4.1976881293748125 7.9700719596057095 12.4183760776038 -0.3314987583424936 0.48362887551325096 0.10150766702819938
Ni 6.548685817742839 6.584977710240842 2.3557421261774896 1.6359132373282148 -0.7926096552588865 0.7032316816146857
