# total energy = -340854.6240508986 ev
CRYSTAL
PRIMVEC
9.31730527517810 0.00000000000000 0.00000000000000

0.00000000000000 9.31730527517810 0.00000000000000

0.00000000000000 0.00000000000000 13.63681807787473

PRIMCOORD
 96 1
Ni 5.427143892092167 6.675392577656443 10.906072434366072 -2.3033011697714136 3.3472592989744485 -2.0334785482824786
Ni 6.912611166264922 1.9718306019560456 6.286778029721951 0.24695008776613597 0.8749793159060544 0.6476354324066201
Ni 7.115635245046491 5.96342934076172 13.562156607760377 1.1174029765567466 -0.35025469879375803 1.0946507704618953
Ni 0.32041653303583706 1.9939126151140225 10.85040712659771 0.9832955212156548 -0.2103686890976764 -1.476526438595044
Ni 0.17562840650798264 1.872098167845081 7.152497299332104 -1.6353907891658415 -0.7453543218163485 0.38271821863910216
Ni 3.257395094565764 7.697165527427072 9.253848691630072 -1.6441191701777749 -0.5173409230537156 0.5798300427268723
Ni 3.653231485706479 1.0405100503869535 5.380092432916442 -1.6833809438918752 0.5651516147790913 -2.940025868802801
Ni 0.5636019238495343 0.1298394421773657 1.2175295305508376 -0.5734547353281478 -5.452457998610049 4.622292496584575
Ni 0.6340789515829748 3.761265638688227 9.019322804204148 -0.5121267258426276 -0.6030417049566453 -1.5539636949376012
Ni 1.2134299162936601 0.2866413019397752 9.126249129605945 -0.4881249636113916 1.041782204597638 1.367512950108103
Ni 4.977332352333662 6.861869122527225 7.880198396321824 0.44691506503198514 -0.44140082008197534 1.4745490031536992
Ni 2.3104028357680995 5.728577347656248 3.0205137924029897 -0.4201557946602699 -0.36099059715402343 -2.020677282752752
Ni 7.542665973762271 2.7642394513427413 9.1751239853956 0.5507650070401159 -0.6278448800432542 -0.5940361590239253
Ni 8.223826199897387 9.02208631690569 3.4759427354243395 1.4196544079983486 0.653683695483229 -3.3272211493766504
Ni 5.210078634479766 2.739846746512537 7.6677917912743965 1.7385262216054511 -0.30999328017054995 -0.8061783950822566
Ni 2.0877751469931196 1.99614876834521 3.16588238704044 -0.11532863207169171 1.921756916835755 0.030542134452915145
Ni 3.314864232607284 3.242356964086028 5.194223376340133 -0.12290155932294317 0.910363094721987 -1.7532866677440773
Ni 4.611339289524171 0.628442913709869 12.879729228127589 2.6124572987526493 2.0703399400852023 0.9301945276256174
Ni 2.2207983123333888 3.896096361223706 1.0104160865477343 -0.4026311555129453 -1.5518620752135661 0.33633937426424654
Ni 0.285782246406794 5.229738148303957 0.9336349701633709 -0.998637550889364 0.5705352476885078 1.0380240231067865
Ni 1.2093955231723927 5.627335510114232 7.4334979047462095 3.200583520050043 0.5421939775416534 1.4940927296135817
Ni 8.082436094550426 8.069550261555706 9.943626493279876 0.03505493472160414 1.0866842073166512 -0.8804894470910062
Ni 2.3473366333032137 0.3348024521564769 7.170225335802857 0.17518777032116925 0.38396160412790004 -0.3134714685271376
Ni 5.905242770225194 8.620361388922849 4.004560973702458 -0.5235077139860598 1.0344105947239153 -0.34336877030720214
P 8.885764825549419 4.423437196968508 7.073962666122285 -0.19742421312186645 -3.3840121902237654 1.024768443648461
P 3.518056022881192 2.0617705483754345 8.48218295865418 -3.251900939377096 -0.4740265765367965 0.41002744797701646
P 1.2638458543518094 1.831716967411886 0.9874321582531783 2.43202293532056 6.583339983489837 -1.211862478488913
P 8.237997821000038 0.7561691910837626 8.644378606356316 0.06549088261395818 1.5601826792641194 0.9370740283542701
P 5.69774638498125 8.91432236577271 0.9649932923087242 -0.3065629143327624 1.0639715962104839 0.7609259510023605
P 3.690426167785232 5.625332289511293 10.15602005410012 -0.29825388024643473 1.6505505276254153 1.5732940198350969
P 1.772300512598207 3.6414544120222243 10.68785555783961 1.5042778976766995 -0.42532782577951267 1.6677568642013727
P 7.73682929536526 4.0322128718671175 1.8539117199619353 -0.05823214416901584 1.2144616066746567 -0.9068010884023415
Ni 3.415146387720915 8.305511013971643 1.1351617580105573 0.43000157710609815 -0.024207193373822825 -0.44863281905404023
Ni 8.71688867006911 6.313787965563158 6.443082345390421 -0.9476826571080517 1.577510886129922 -2.2010396552963254
Ni 4.542950269870353 0.32791975885698427 9.015682533089876 -0.28218242860586884 -0.00559754869243552 -1.0131735397220099
Ni 7.001302593796898 6.140020224889626 8.267511316729662 -1.2483369192658629 -0.3748876668510898 -1.4245770421109465
Ni 8.566060134625511 7.9625875986639025 12.371989207184658 0.3689625596159065 -0.89016219429408 -1.5272797578885116
Ni 4.323518416754945 4.613240019770681 1.0710018631552218 1.3320630939409253 2.147253205603489 -0.9359957076884269
Ni 5.502567477119096 6.9947245763751535 1.9246869014595342 -1.2267635639704615 -0.23512918387180798 -0.3062960338246209
Ni 7.488159738752076 3.4762679093733744 13.356758479631697 0.5068580212445206 1.5164333020923109 0.008766176228404258
Ni 7.808852064019759 8.543689285008504 0.8164325889337539 0.016470486851197442 -0.8855797171297201 1.6225201038507604
Ni 6.6737247800381825 8.747766219269758 7.922404856829976 -0.4249159350530746 0.5014805589826912 1.2996489392762778
Ni 6.2719532655296915 4.587319276899166 9.900588929154132 -0.7223488620601108 0.3281918054564477 -0.6358716070024727
Ni 7.749007013170102 0.9044606243404775 11.083227947184854 -2.246958529315627 -1.1065704047176168 -0.38090661935166015
Ni 1.6689529640968228 9.119452155513649 3.5524322201581358 -1.6268192454467467 -1.7451946347645622 -1.2054393485713886
Ni 5.502558159813967 4.9674839608113075 12.146299851943976 -0.3205800545474608 -2.4488083823090148 1.831443061640846
Ni 7.138947142481621 1.3074694769702266 13.396345845667819 -1.222789666924378 -1.8126374988985687 -0.7927832047222734
Ni 3.467025142684466 7.686478578443022 3.4113998993281633 0.8020443183092252 -0.14438029802200938 0.263137753269592
Ni 6.685529805637827 7.238157807505308 6.15201811870546 -0.5992477851318518 1.194335525348743 1.584833130822948
Ni 0.24493611244761454 6.443503487582295 4.106905048441347 0.5031736304143979 -0.8208835625029153 -0.689134065871039
Ni 8.548804485524848 4.418368582977816 11.050704030167743 1.4256435357022479 -3.4161473801954134 0.7672428943593238
Ni 3.6604523971821887 5.285204065742538 6.740365873249623 1.9403249096459294 0.37205019740229467 0.9234703215279064
Ni 9.010113579813707 2.2281589833860473 2.416239968200206 -1.0144809456795236 0.11833810832197685 -0.6383136407850619
Ni 0.8300526255727121 3.183657941767355 12.711900337743884 0.16049211598220747 1.0260059155999879 1.3092712928573902
Ni 3.4317311908522226 3.576512795266486 12.249448941846094 0.37469971920999984 1.7418799685690323 0.8789107897499768
Ni 5.0222231284497525 2.6167092419151428 10.301006639227243 -1.019961766288437 -0.5578442824844005 -0.022412563367245272
P 3.551989648164463 7.84123901665146 6.891665864332798 -2.2866450492719714 0.4168876654319594 -1.288448442574768
P 0.32559322776603616 7.572919263519213 2.1867044294018827 0.2198815136841181 -1.4647263606363226 -0.48896982811019013
P 6.796526861650898 1.4234512912278203 4.127496292778532 -0.46252808897889375 0.8893450977094232 -0.6487104106383538
P 6.8522629809382485 2.9251399936318148 11.367173752750535 -0.008888817849197594 -0.13509527317565767 0.094998662265088
P 4.2920911465516305 2.5237318540233913 0.5149245949286335 0.2803266063440527 0.19097948593778724 0.21887646945837144
P 1.3774238038858768 9.214218465990351 11.34335033526377 -0.02515438777844055 -0.29422701847522875 0.6978004832967853
P 7.641345552393552 7.257453946429431 4.396346200572671 -0.26255282730039947 -0.6146129547340125 0.5144471464456882
P 3.5368676619385573 0.42094186981336007 2.6899581679247433 1.4322260740157722 1.3044412184585987 1.163623440976867
Ni 9.285514484844713 0.7076837986485387 12.97702798213861 0.1705235320762805 1.757668598861857 -3.088130152643617
Ni 1.3624695291523101 7.4150282107871135 13.302102236008908 0.43525819751934713 -0.14025084923466816 1.9537064731591576
Ni 7.975520018184271 4.122628000848134 3.9222351290352626 0.5914892242323555 0.24087637076823032 0.13575887490158556
Ni 4.699518265274 6.944783820878633 5.09393749430445 -2.6219202439377622 0.14207119027285853 1.165964687515534
Ni 2.399383099759104 0.5067719529399289 13.31961224753962 -1.598212123233015 1.1744135896138357 1.4882105598011919
Ni 8.928223785026594 8.453823877030157 7.4892452047997145 1.1449052957420733 -0.6130960038688538 -0.9449763139204821
Ni 1.3792965822169962 7.727213836471154 5.615246306708125 1.293962944635094 0.047830232109401495 1.454923772723604
Ni 7.671030486537567 6.479785073758313 2.4638597829888575 0.7192797362164838 -1.4383422142158389 -1.1761789090443744
Ni 6.43016110663621 2.2499055735593463 1.7370717819018733 0.09861980395744306 0.0901935275669608 0.8875116440451102
Ni -0.011719306392448716 2.3913422654319585 4.713988971871323 0.3244703907408025 -0.536404881663702 1.0630326293359822
Ni 2.8791031889847414 1.6240808225909926 11.470131837897487 -0.6674208425636635 -0.8054219765322065 -2.7638222556226077
Ni 3.5888768591739275 4.253415012957215 8.6869531004171 -0.712919855436727 -1.6874543426303001 0.0893535481641687
Ni 6.263437248640918 7.94139072949327 12.840972965709055 -1.207820190098739 0.6252740339922844 -2.046839542970417
Ni 1.997220258435154 3.0643405322732393 6.839927800676709 0.3771530658464988 0.9777643069847806 2.08433651147461
Ni 3.4113635618381566 8.318890664138248 12.061846866515614 0.5965059607206565 -2.3915483722452815 -1.961720601712886
Ni 4.43036927198519 3.0802731240454504 2.852726829892371 -0.8240992412267356 -2.5243299096860974 -0.9560739664955406
Ni 8.147582692019023 0.30075515575062056 5.552257597107624 0.21074329882827578 -1.2808953128178586 1.6145373427556
Ni 6.2538404243570715 5.458133248954375 4.641890733045272 0.48957995089036327 0.14944357147752974 -0.7184179024368208
Ni 8.778708989606317 5.870927135431594 9.25142153364372 3.355350303512699 -0.3054069463514482 0.09597465302511213
Ni 2.2035426632327244 5.339039454783378 5.333754679313671 -2.548311103092044 1.1458586607942782 -1.9365402457925167
Ni 5.074884537044219 9.284666610077888 6.399717743854617 2.011177827902749 -1.0305889069849798 0.8547884427804763
Ni 5.523484827135831 3.3804953299426383 4.9910893533580305 1.1997312424430178 -1.3865645674229155 0.3212945641159821
Ni 7.5304137175163905 6.2226274521717455 11.09090540661193 -0.51291091230682 1.7029982039021703 1.9702049850348131
Ni 1.7530136909792144 6.805974609052665 11.133506920857593 -0.3353901229770998 -0.5351028750228268 -1.7189608978790138
P 5.923178582600344 8.827671428064194 10.316211549468804 0.9860507153632888 -0.9442492059464705 1.3045124380161661
P 0.9852025271355818 0.5224501822820926 5.32296803516473 0.004696634144720944 1.0974717848504583 2.145178325352331
P 4.186507444819058 4.899383777616517 3.7386562660598948 0.6806432547912085 1.9252507889216262 0.6408569760322059
P 5.70492070993131 4.690983613774968 7.071903541688567 0.7900789184172328 0.9952071850515765 -0.19655286626050666
P 0.4339348518170727 5.537367611779453 12.50569812618249 -0.46161997534232757 0.20796959273788054 -0.33910948081021597
P 0.8030352358874016 7.554480316667046 8.994722323469546 1.491536024629999 -2.0297041688417106 0.4844675693644625
P 3.64041087384767 6.661649552589769 13.493290542083903 0.46009453983673665 -1.9529590534701722 -0.055350708856162736
P 1.308270765211402 3.988980576064159 4.024552183589274 -0.7787066720245492 -0.6477444471806587 -0.5937877904585451
