# total energy = -340866.9765781947 ev
CRYSTAL
PRIMVEC
9.26765808334343 0.00000000000000 0.00000000000000

0.00000000000000 9.26765808334343 0.00000000000000

0.00000000000000 0.00000000000000 13.56415439421064

PRIMCOORD
 96 1
Ni 5.953645606249086 4.219870635512492 1.6142156919064727 -0.7691696790683914 0.6715788305960949 -0.723376789103993
Ni 6.998898442363044 8.528794199182265 6.089925594100061 -0.8900871180817703 0.23552950463402017 0.24962634904671843
Ni 5.01159741244541 4.408856722616591 4.70674798862266 -0.448294461878015 0.2721985779202796 -1.0673258573946973
Ni 0.5401283906685953 3.4041406237031695 13.256587186166831 1.3169303520645448 0.725354481655654 -0.6783565156395607
Ni 7.078915403723223 7.454709678241863 2.4585438435542524 0.06750328505829664 0.8556032253722877 0.8030493625349718
Ni 0.9774969866230748 0.5332490079470686 4.818136899936552 -0.16662136880839692 0.04610399344691415 1.2337978451094234
Ni 2.5734155408397856 5.4395222646396375 8.374102154679187 -0.7982136317092253 0.13221306653185616 0.5467810826917036
Ni 4.328330040052472 6.110537792821532 10.008908729693147 3.318028170023472 -0.2808547109333809 -1.9288248794261298
Ni 6.248042038327784 7.88317205461479 10.93310185310575 1.9963060529972394 0.6362894112661817 -0.8937331994747897
Ni 0.8240792451298439 9.37469970626478 -0.14317234529405573 -0.34489986223974795 -0.9446837223807278 2.3261302518507874
Ni 0.8982807509359918 5.701250201374967 0.15694130516118793 -0.2309601400957829 1.2965718430128508 -1.2482744414590439
Ni 7.433273584701662 4.076592638914347 3.451385291947544 1.0297142176895107 1.099608371577487 1.2638524984029587
Ni 2.4659663110494305 2.745988605177047 6.040429811665927 -1.9245105683214923 1.8551663733997146 -1.6591020167398522
Ni 2.394707286738749 3.053832409381483 3.544856112794239 1.3159867572043529 -1.2826004684344234 1.002084371787384
Ni 5.8416830268893065 6.009511050200808 6.3461800518709115 0.5591717430465726 0.8676269893060413 -0.5920016450923997
Ni 2.642190832738546 5.796929505183456 4.275964063857248 0.8091868428912773 -2.2085174517306094 -0.39824202530631414
Ni 5.037472714289008 4.701603511526177 12.290914804709317 -1.4309839740785548 0.38755934878148735 -0.2783486566820755
Ni 1.3847734962286427 7.815759108479285 11.927097124951594 0.5743769900321011 -1.496240886304836 -0.36733145177038673
Ni 4.4536380472972015 2.4533252251917412 7.050728747911219 0.8171264094533283 -1.607222811372058 -0.8488566506770735
Ni 1.287333337352 5.091086117285145 6.14407374097742 3.2430792273204085 0.6523266672347025 -1.1503732608351802
Ni 7.4341818152105 9.105919081598582 0.6014849221354789 -1.0312018579786306 0.07201145734129534 0.6273041770484358
Ni 9.099209297023094 0.04952451217471972 2.4755129258162962 -0.05087596091426077 -1.7712627926065239 -1.0625451481766022
Ni 1.2630335374114865 4.061986809506929 10.017277425096001 -1.962740558336968 0.3346239342350366 -0.9263823529683788
Ni 4.475055605520896 7.193343180178418 12.30278296786867 -0.4878503697937662 -0.6915514170632798 0.17691837985903078
P 2.6127474824673746 4.615247471920646 13.109090551531722 -0.11509569012527922 -1.5783732341302172 -1.567621909150984
P 5.18468019798661 8.521926864416468 1.445518362250799 0.9485020676855535 -0.563013999610798 -0.16612154635384294
P 1.8060905080881682 8.232340346971304 6.666225654931822 0.02891822569624697 0.3095309958221508 -0.5884740915551154
P 0.9542815026982138 6.458037906692427 9.878692570637398 -0.6382969286145136 -0.33934242275662846 0.2858585919058754
P 0.6373859766776453 3.987938220061963 4.382171427441643 -0.645203683036676 0.626630805130495 -0.011831188306973172
P 6.140648414486949 1.0908867853538835 6.872265159988072 -0.296890681350321 0.06828849996375336 1.0936490686702585
P 7.293322677416502 5.048603171851386 7.749635293606833 0.9598167213674244 -0.6465949069572478 -1.1204993560938832
P 8.046255036900531 8.69013486171636 4.207071999464494 0.14724142161988835 0.30575455949885405 0.4241942263957017
Ni 4.404222893489872 1.4313620142686734 1.6516523974212338 0.7029840843802538 -1.6930506057711554 0.7784130520435303
Ni 9.112323033451709 7.4931519246771225 5.846937789119006 0.6060807488932852 0.03021920389585763 -1.7701520760408482
Ni 2.706267421902813 1.8111969877858123 13.347805966057942 0.21091479140913355 -1.2663552102201545 -2.4859633940927575
Ni 0.2905429397769187 6.320329772704598 7.7796532386897175 0.5038721991433193 -0.07930336301701826 1.3666197488698721
Ni 6.967221586452793 3.4713218783823385 12.217559436101707 1.7668309820874153 0.14759597674582967 -0.31843524029031606
Ni 1.737463498721463 8.58620734206231 9.7188254657656 -0.21813264931381143 -0.2566220636382613 -1.652446716206864
Ni 4.621327055734901 8.472669260799448 5.330346470116667 0.01135219178802561 -0.06476480308121103 -0.8794031560053629
Ni 9.367748962574701 2.0373371168279424 3.338572868325924 -1.0203083509945783 2.7102839173848357 1.222188028784637
Ni 6.43254257883722 3.2999814125927847 6.291814115024596 0.48338693470577393 0.9938558132300045 0.8802786166317808
Ni 2.9208600487611602 3.1569536427674825 11.073409565233668 1.5577416739227947 -0.06832500962864362 1.1290598440693844
Ni 1.0693858182059084 0.9290642045906101 11.317320428976764 0.8801436337158133 1.4097250646997788 0.46426486916434245
Ni 8.144733173501558 5.463747923314123 1.517584599595355 -0.3888117331313497 -0.6589104910998073 -1.3548806060560732
Ni 1.5965487549779447 4.202873750275687 1.876600705611972 -0.8020515173980768 1.2953929922134013 -0.8278949608237419
Ni 8.480695052846924 1.6683638387838324 13.078340461446816 -1.654059312109622 -0.4947296134121028 -0.7306712658828771
Ni 8.68245197302426 8.106068503268217 10.65077747266798 -0.20347504730163665 0.04089853798657472 -1.1879897856363733
Ni 8.111703239486307 2.1333407886753024 5.288080387886039 1.236243992657071 -0.8400632207551597 0.383629674709778
Ni 8.365748287529538 7.3663054861623225 12.931427689281673 -0.2714444733630744 -0.668557527271268 -1.2763951109546599
Ni 5.0827915631483185 0.16755462739302462 12.734231383730853 1.6460696090359264 0.443887591059571 1.3128914061084807
Ni 1.9932694018328467 6.650258406526976 2.13412946639267 -0.30017449430791526 0.2952114938756851 -0.9127279954097377
Ni 7.012660914869398 2.0890413822238707 2.1516407066625405 0.41097721348479543 -1.0408028714035042 -1.7238516503124115
Ni 5.709554023170047 0.3496446499907408 3.3935884680158055 0.5239324602283041 -1.0119149847245605 0.29435068853728663
Ni 8.786286816095775 5.072421053562721 11.364388084948498 -0.22813861148658773 0.9176822540912196 0.23027931197867435
Ni 3.731807948911708 6.057777014384711 0.5459206770769939 0.3471961144730924 -0.11899219696620797 2.0451377297879616
Ni 6.884072156602952 0.24286176482880772 9.054616105805028 0.08103525810646044 -0.45242108245187884 -0.3201473378854164
P 6.259895373233931 2.425837350812046 4.145585720782063 -0.10689849902646752 -0.11814039048887394 0.09625284638716325
P 8.794090184345169 3.2680543299096922 1.6020491101513599 -0.19989530037017833 0.3327262029916915 -0.6172750749472079
P 2.8241613025447925 1.208845539603637 9.785696253893278 -0.23313657892181142 0.06863842710400438 -0.08721104789986915
P 7.278994877756687 1.094223142325121 11.123298296377747 -0.7071325593309886 -1.5453160465649323 0.2721916359417441
P 6.753963502382942 6.099592688424222 11.893525959694342 0.7381583182885416 -1.0739060817153763 0.6568271262082171
P 6.807280340314968 6.171880422801034 4.178736134354609 0.005434283641693867 -1.204450502295558 0.8027961088735851
P 8.531398411151482 2.920813710469893 10.63068889663783 1.288294433495407 2.0629487898274537 0.8843558720249479
P 5.3131670120122685 7.550741153063984 8.522561699006829 -0.12871250957776542 -0.06074925416391474 0.5692679509403099
Ni 4.942321667000964 1.424133240830992 9.180626601545368 -0.6972448679036314 0.6704963961651936 -0.23131700921456935
Ni 1.351891844745446 1.7510684210375094 1.557083359071506 1.0031490656064723 -0.1802145341117993 -0.15145314570839077
Ni 2.6233867541423215 5.834157688387516 11.098923428405381 -2.547354395605729 -1.0291480607733952 2.3925942970112923
Ni 4.32166659376825 7.206299366416723 3.0547424934219705 0.5509478124748833 -0.28323143869567347 -0.22816740784199413
Ni 9.079181887537416 1.1876226022032652 9.432486335772438 0.3811058798466598 -0.22949743950732732 0.15182981232151915
Ni 2.9519345068849367 3.049856583990758 8.53430845584306 -1.0164853777040623 0.5251547626711793 1.6062427068469756
Ni 3.7621966003247307 3.359350031364306 0.9525549379655983 0.11288299874467655 3.0214596478992606 -0.12662168848700775
Ni 7.48839761599311 7.281052297888951 8.279410783240513 -1.2480206735770247 -0.7504085964108044 -0.074995993890916
Ni 3.391063957907569 6.685512578523053 6.43893170243714 0.15378076540030292 1.9403431644783744 0.2670412020890562
Ni 8.402809652885034 5.084478276950443 5.808564123354823 -2.960373579221218 -0.03372927393164513 -0.8832999199566078
Ni 1.9993767886218623 7.896971597754158 4.076340558609854 0.7551286275942931 1.7055901329990626 0.44272313843782457
Ni 7.650322140997171 2.8253382951429797 8.632146197258775 -1.739001361469657 0.8762676957001748 -0.840351955640172
Ni 6.766641658873644 5.367021374122995 9.751975879338145 -0.6738496289081427 -0.8391453369265807 1.2292331085568764
Ni 4.896456026304701 4.553256105863402 8.11904137129138 1.026284366072355 1.0893941500486464 -1.152006425563229
Ni 4.095480126434852 9.088773913829723 7.473103199577461 1.1685851558575164 -1.1797702259400584 0.6202848083078091
Ni 5.132670099868319 2.1118861598185945 11.43919384207277 0.31531006439777304 -0.05963108139907149 0.443055839186895
Ni 2.272383465451626 1.0767536065173913 7.3826842185936234 -2.5981920470828865 -1.5936216756488555 1.4633197100967832
Ni 0.3187147673357182 3.750621295166187 7.608243265463263 0.05471950303006705 -0.2972210681065462 1.2261698962505205
Ni 6.207866739799133 6.619387836884775 0.37222622609106676 -0.6565461046326887 0.07546162067342488 0.2571098019079572
Ni 9.035503414188964 8.870261067530173 7.758886270075415 1.3850938964146597 0.17967048868287122 0.07313065854740308
Ni -0.012553043104281196 6.121760926966444 3.3986347079348023 0.2082102479937769 -0.1653353030071217 1.8859586761902232
Ni 2.943473134899548 8.807954601092312 1.2339025072234562 -0.0443103918816011 -0.5012833553702206 0.4591422032257963
Ni 4.172587043103453 8.403680812760857 10.380633575472704 -1.7987509707244635 2.5120228101839706 -1.1630750246725645
Ni 4.2822327078998725 1.9674219029640097 4.68695783118827 -0.16273977436580359 -0.85330054538104 -0.0031102634942075467
P 3.098863960834936 8.951742318894395 12.5978716940189 -1.9010857616396482 -0.07309749131662249 -0.3873014671344104
P 3.87982171887736 4.715208433842224 2.7068763070500643 -0.13183202904335362 0.7057377358659911 -0.21345709821501302
P 5.691797189956461 2.4024272460638625 0.059261113935781234 -0.19182769287069545 0.34734086758107274 0.6904409576079206
P 3.487401265452053 4.622374301117539 6.406404075499225 0.29496878173725977 -1.1656394429656312 -0.09254634406985351
P 4.994480047651312 3.7102235728394524 9.978592366014501 -0.6121758060474296 -0.1404655363486355 1.7513431708644613
P -0.12214310195118053 1.694999088604212 7.257189004652174 0.5818175054705463 0.13993100400140418 -0.8799166053066717
P 2.982610455703815 0.7702471253989264 3.371465640999025 -0.973128350874666 -0.551384900012302 0.2686633110735115
P 0.05900347303633567 7.474051281016788 1.2195533919496588 0.5226654205904224 0.06525254135090697 1.2003542207389972
