# total energy = -340890.5808785672 ev
CRYSTAL
PRIMVEC
9.04843631219386 0.00000000000000 0.00000000000000

0.00000000000000 9.04843631219386 0.00000000000000

0.00000000000000 0.00000000000000 13.24330117285277

PRIMCOORD
 96 1
Ni 6.323526651828069 2.0946134038274544 11.497158148776723 0.09768263685515435 -0.09835035234614029 0.2060564348755677
Ni 4.281439419046403 0.5598176875851586 6.048930144817744 1.6702575191360394 0.05102199957382181 -0.33484350644501043
Ni 2.5975435742093627 1.607092719972846 4.926401984654603 -0.6125097923480806 -0.5084567331902082 -0.07467074934101334
Ni 3.5219408455631487 4.269214981995092 5.07875321630822 -0.528380982917961 0.9756804278725584 -0.6474461992139495
Ni 5.189250907191416 4.49484678237369 2.948700707998779 -0.21558905695635128 -0.5106606828200625 -1.8785598126229903
Ni 7.513341696702285 6.042572713676181 2.457492786469552 -1.2518786138705342 -0.7659550287858357 -0.21098883918017858
Ni 4.789002388666114 4.569804026291573 11.309844665218916 0.15646499710068537 -0.5696723854675801 0.5559920597670102
Ni 5.835806902381211 8.162612222695481 12.389571008517649 -1.1756294642988074 -0.8545768409903025 -0.45186520994840884
Ni 1.9558194438496181 6.488561076238771 0.24751363318480507 0.13118436815702567 0.4661026937040295 -0.044596812773768355
Ni 2.535435109427573 1.3152535132993242 0.3606724690989338 1.5834107965541246 1.6234549569602041 0.790739177709051
Ni 0.21565408998890173 8.99708613696864 4.892406105716424 1.8496487860155955 -1.3662839627970083 0.4685403566112447
Ni 8.820270648871183 2.2482467988638764 1.4983341384910285 -0.8505906026490448 0.10944337693550828 0.607307936432167
Ni 6.597377567711062 0.6815291052171993 4.769283132066616 0.6503420327045057 0.6610941290146872 0.5317193032625745
Ni 0.9355449445197481 7.276218382589294 2.2990501476931064 -0.2814627768310249 0.3276421036005648 0.23613937030387722
Ni 7.826191371794121 3.942340231085689 3.913077589025038 -0.5731909401438 0.17261563871861882 -0.9893939208039091
Ni 7.604604222312589 4.03005576977955 12.483055830012336 0.3710266412337868 -0.34981478304286207 0.43447503949641947
Ni 7.837827660504696 8.76255067555489 7.079749691475222 1.2136630220327613 1.0140438581421052 0.44101206928398884
Ni 7.1517661936894195 0.4390111135542512 0.4110206815967938 0.06412665527657987 0.826153809762919 0.7123518987483991
Ni 1.8127998642544894 6.482227171030838 9.246299971279974 -0.030173181149270617 -0.4869052322716776 -1.1465389746907544
Ni 0.35465435430779624 4.894434765070166 1.2387716079135327 -1.0439380745983764 0.0029179449777433615 0.2986521441261179
Ni 6.115412623567412 1.9646326205246565 6.924656783710171 1.5228469189281386 0.8246283742573283 0.047920992050994884
Ni 3.2590113919458354 3.972634394851632 0.06927844547716963 -0.5500129593654399 0.5400861871700311 0.5206363059755357
Ni 6.045857295948295 5.584803287426835 4.780089679194951 0.13816542746054916 0.27766062947611536 0.8427613364126131
Ni 5.004780442228371 2.9656339511503873 9.398161682545378 2.191599078708716 -0.729553093118034 -0.08412469566506157
P 9.143897011252518 5.654639116562303 12.145484018050334 0.2827580986036808 0.21671674280289127 0.7762702946689147
P 3.926424032141754 6.070505235643166 12.630851174134246 0.25091138640672916 0.39106196261810716 0.4798637520438639
P 2.508724126322118 8.440553031655595 1.4371097059075464 0.7329700892193828 -0.0347541156517337 -0.6968041808217871
P 6.385580825993791 7.861109286361856 5.923450053586984 -1.030157475874516 -0.39335127287291616 -1.297701842852236
P 4.960063071460363 1.1421931261465703 13.031023685797052 -0.6281881223152859 0.3127140215358228 -0.5802738151325103
P 4.005244958236476 6.068858420289103 8.45174232762721 -0.8918084716482513 0.31469788473507093 -2.0481626326572147
P 4.650190331816255 1.073814095208927 3.754303777490578 0.5266740275291832 -0.19848993538221943 1.0051375567914107
P 0.2454469703998166 5.7800504396793775 3.561560327482371 1.6763595182687194 -1.9017491062552605 0.5906266191217442
Ni 1.58953875411086 0.9581750829840919 2.7040970518352188 -0.925145138127168 0.03536475265253909 0.13432908443359448
Ni 2.0298808926023786 6.659784630881225 4.908590138366294 -0.5795971007804598 -0.5377457119623126 -0.5312989278957044
Ni 6.072414455641557 5.770603872483547 9.053623479698253 0.016917087470312803 0.030969194688004728 0.9595416133291668
Ni 8.396206646764053 2.153790175341572 10.155201795964352 1.2275660052670987 1.177917746112352 0.1664604177505004
Ni 2.3198018308414974 5.187432171553138 6.977723146385835 0.39739844635909627 0.6871982823009068 0.8875900626915294
Ni 0.6041432610738753 0.024352960680901516 9.086254854485922 0.06231299910660882 0.8436851337784631 0.44553901062006496
Ni 1.33660782228607 1.0196139635010428 11.53472996962658 -0.24180428189913838 0.9928348281646578 -0.7831114859604642
Ni 4.024653853480785 6.778463917605867 1.7486057349720878 0.426346239741698 -0.21757420570718014 -0.5649006751105498
Ni 5.639211533162981 8.055234432548993 7.9486293788378735 -0.050109515061881445 -0.3619704445687895 0.7775918416938157
Ni 5.326624262715472 2.9691085505787393 4.827606636064865 0.924671283814543 -0.8948477726952073 0.06166790932344218
Ni 1.020518807102176 7.668223775908271 7.188264870028334 -0.8410723787459644 -0.9579480435898018 -0.461828748919024
Ni 5.1815868818898165 4.90484951491921 7.030020392000536 -1.2424097551481506 -1.303390408596581 -0.5294014537626753
Ni 8.194227458119078 7.198790915640317 9.20235895632174 0.5193893209423119 -0.3482556660858583 -0.35577717127388403
Ni 4.596831704657424 0.1921082498002111 10.214028393004831 1.1063318063442493 0.16066489411464588 0.07507724075081264
Ni 8.005974746903297 7.045573748660416 4.6806455577431985 -0.4170393605184753 0.7331719208175438 0.5024784041195862
Ni 7.170025937560291 6.108942991819308 6.983708686807333 1.3316514603248033 0.29452449511098955 -0.4438240848114873
Ni 2.449719275092216 5.058292892799393 2.52664998290417 -0.07128254959507078 0.06777016556643813 0.7786696481390267
Ni 2.2099719145359384 5.248708180221884 11.374565413477177 -0.6966733116708775 -1.070799931986227 0.015637706537256938
Ni 0.9935997099684605 3.1278000213454966 3.868871454891671 0.11852425619085394 0.5518353572861593 -1.478349607846712
Ni 3.4063832692624154 2.6548473194691344 3.0283857597325823 0.8909852044160075 1.085250303083602 -1.2634282663813468
Ni 1.022473269280624 3.4179109767408535 8.086133936684094 0.30569850944993804 -0.1893103257654804 -0.005045789954023569
Ni 3.6476236217605633 2.80368504341955 7.1395960472541775 -0.17793139450457743 0.6970463787395801 -0.028359267868983417
Ni 4.348253070554086 7.186141202096474 5.780197929186364 -0.4962910443619518 -0.6501612841522674 0.6792710570340301
Ni 1.1484274985583787 7.464154398544679 11.297277292442777 -0.40293480279629307 0.7430035621959848 0.5631883204051333
P 0.06705072053117946 5.586821088657363 7.91635541727265 1.3784720202227678 0.7534381272657475 0.47421169596440915
P 8.525635475470159 1.7364220158828279 7.846840807615585 -0.2046922075381894 -0.8919650518307736 0.6477254210172652
P 1.5888601214100102 3.2574550609518864 10.326278765943423 -0.5801660859100525 -0.11906315941345945 1.4575298428878833
P 4.031720682005636 6.112833819304181 3.9089451682986627 -0.44848060974689213 -0.0039913805475802235 -0.5417764303882604
P 6.711062117757448 4.129172337847692 10.359016007432425 0.548223728675501 -1.3828439240382187 -0.10044040210594961
P 6.496152714052279 7.969645276317794 10.249983258339466 -0.9493371619923393 0.05995452617676125 -0.17504121744097595
P 2.301198246402197 8.656168213369648 5.785706617030063 0.02732362751561746 -0.5063162898084377 -0.513680957703625
P 7.157276691220322 3.8859051356830054 1.7082931428543973 -0.5701812067831986 0.6417476061672754 -0.5343670252980668
Ni 5.293859875918436 3.1633784717420577 0.735330200896984 0.15720084682544538 -1.179513629844562 -0.5396465285294513
Ni 1.754654614445664 1.1670672767417245 7.31520175945692 -0.9486311370642501 0.39215031058627947 -1.4457133098689294
Ni 6.712283656618978 0.9269760756170158 9.118039295662932 0.2366160528299796 -0.42401836293946976 0.02972015277225204
Ni 2.6882903389670205 1.6944372727902433 9.472217702236533 0.30163462379320954 -0.7335789264479753 -0.8491438429001891
Ni 6.382694374906176 1.891295046652803 2.4968254329672157 0.8574009407026589 0.1648478218477419 0.6144694871776127
Ni 4.093078126598485 6.814901969423506 10.433085599777595 0.3521963959011612 0.37762769149007225 1.032832451603518
Ni 8.13165752310071 7.099520524159984 0.28949475690298543 0.03154435046518439 -0.09629372692742771 -0.3622121282659504
Ni 7.7050690073464185 3.884204029712875 8.152072604429481 -1.6380680788876887 -0.7285074254623389 -0.5144288916132431
Ni 3.2724392709866534 8.7013199090662 12.10910478106677 0.04660690122526167 -0.8805017883861805 0.6024724627167366
Ni -0.08978401116605238 4.65511268100642 10.012054633421464 -0.002868322686730544 0.9972188161649665 1.4053673019517152
Ni 8.677341553636166 2.0619304529545195 5.560225925532853 -0.45316078883138083 1.6317506213100927 1.7251837388602738
Ni 3.7820109934008803 2.2953348598668533 11.537735860069546 -0.33664302154759446 -0.12255086085174378 0.5752431946871384
Ni 0.937635133238366 3.257690320288181 12.86162882007249 0.6533414816524619 0.1816147568934356 -1.839127574769297
Ni 3.30452502508284 8.38117719454923 7.824963499027384 -0.35376091217480365 -1.1265301356689954 0.8816040203114236
Ni 5.73926009014029 7.85380719850071 3.6106137087870094 -0.4917463624140628 -0.9208074299837625 0.15682443732263315
Ni 3.1702462346746594 8.332071332315724 3.591782103760223 0.5200210409890399 0.25351411413689884 0.5141812943788112
Ni 3.2471669892070008 4.2291213620288755 9.362908071001623 -1.1210637132377854 1.164171600170853 -0.7727275716229789
Ni 6.904599115603849 6.076042878482102 11.357798661548177 0.7288318986812932 0.6457431004799138 0.16302259571354505
Ni 0.6463931233415923 -0.0037496718830963764 0.470351276523104 -1.1664737659414683 -0.7206442206641782 -0.619738705996352
Ni 4.762173775892512 0.14914627561840224 1.7836476131131769 -0.6398971832220979 0.5088897069625687 -1.3540979622537777
Ni 5.903217750665642 5.457718003647664 0.4547698697115886 -0.2545502687108971 1.2259441533929596 0.016626552813087496
Ni 8.296818625615572 8.919378168503313 11.079172885982004 -1.260955636471138 -0.08717968044130148 1.160336542695479
Ni 0.22179526350979337 5.222105778348565 5.723489571016137 -0.34090873880248385 -1.1798864398029485 -0.07258069958120403
Ni 7.975734873753422 8.575980973437217 2.649772956553979 -0.49164840338361776 -0.6370244896599931 -0.7361783117440354
P 8.420981264563082 1.3331513197297409 3.5378814752843137 -0.06834686400551454 1.8178321557256305 -0.5488526205087516
P 1.7770585420097245 3.1028806285702855 1.6708543340139062 0.7945834911558057 0.09679946291925265 -0.49910126011723727
P 4.623189798758437 1.1667596299173393 8.279936958549227 0.1817281425428483 -0.26437085434574475 -1.087235966055063
P 8.38763777786132 1.817812697804768 12.529287908968639 0.08652996267244452 -0.9884181871542009 -0.7973158024853043
P 6.167766874328984 7.5314566655969735 1.4478239589885655 1.1730331643265413 -0.3205116632033706 -0.6515933886131036
P 1.68620319601993 3.3051222218595884 5.851737578822764 0.4267087652874393 0.5677196326165836 1.7625040725772871
P 7.129579428589632 3.942285940469621 5.931687749731701 -1.2997468983067229 -0.012769898071158654 0.7606328452419739
P 2.5881151038855537 8.51627034419843 9.858577776328039 -1.512754310578827 -0.062072600961028575 1.9125639374825771
