# total energy = -381163.1441902931 ev
CRYSTAL
PRIMVEC
9.28114683718155 0.00000000000000 0.00000000000000

0.00000000000000 9.28114683718155 0.00000000000000

0.00000000000000 0.00000000000000 13.58389654891885

PRIMCOORD
 96 1
Ni 1.8538534224686989 8.772131755481144 10.372432595475454 -1.4759494830456514 -0.47374864028506153 0.10282150074361647
Ni 5.9830542763775485 2.816057773375847 4.603052597341273 -0.18361970313860634 -0.2634905086233204 -1.3319484227399319
Ni 1.3593817547897455 2.2694631842545263 7.953426002383268 1.1914162948194191 -1.5381843206161574 -0.0005856973001409268
Ni 2.749428419202992 6.813614838513589 0.6080181479528255 1.4124504340507416 -2.204615545573042 -0.725330313285938
Ni 8.890948999125229 4.024453829087168 12.358982288782844 -0.8946166305210077 1.7708282761722667 -0.5362403310613796
Ni 7.769795725030407 5.04434050847799 8.916714391257736 0.39984382257579526 0.08419977187737113 0.5897830401745262
Ni 0.8202083707940153 4.649576202810318 0.7521998381798611 1.2583117710903877 0.0682249937156696 1.4586603569479009
Ni 3.605604947005154 3.9018405963280665 4.56812856936843 0.3834903209184364 -2.5418244669264354 -2.6698949720448275
Ni 5.117958566327147 5.11513709764508 9.395940846906555 -0.11312391111088903 -0.28226136147292036 1.4711214655293892
Ni 5.99319857002721 4.515871999409544 2.754624005282664 0.9332343428932057 2.834726338832337 0.6731970829258083
Ni 8.986646905640944 6.298641117154758 2.159078790756903 -0.04186038767921178 -0.6099929394634979 0.7140038325295252
Ni 8.194946505912165 5.376809755612691 4.40531219223399 -0.4368265704477316 1.0226526828570388 0.4670987390687117
Ni 5.134126324367139 1.7621000034196883 10.272305725620654 0.9899711334636178 0.4726803469215472 -0.45757588717994097
Ni 2.458622240863659 0.5171909873724667 3.6070138251167903 -0.9322956331290202 -1.1157896093230397 -0.263723707680049
Ni 4.955965426929874 6.331867623344871 13.118702640360986 0.45165643637171254 -1.3167688867860161 -0.1344671526733555
Ni 5.633090067184645 3.4501086104942167 0.23955568471313074 -1.7207179897794365 -0.0853678240435433 1.7825735896336528
Ni 5.48812783249655 7.137731053365859 10.862526346123714 -0.10825012795835552 -0.026354835844444934 0.3804911290807963
Ni 6.570142509774696 6.861199279082502 6.3954341990141685 -0.18176748042121602 0.806390768203379 -1.4251817655744812
Ni 6.129288028201968 1.2322393223041703 0.708827182110689 -1.3629692966014784 -1.1632385468336224 -1.6635723938063802
Ni 1.2968732298762227 0.5053918652161844 13.118417709148687 1.495823339151443 2.967966561077127 -1.6372908344020318
Ni 1.481994987548847 7.031369108969575 6.715946544493919 1.775116362024659 0.07041583071940131 -0.38643680514126993
Ni 7.512689391377191 4.550982578436694 6.534153006128495 -0.9867623967183329 -0.2247321569082001 0.008971864481307129
Ni 2.6157520592431602 6.541305986106349 11.140439155077765 0.8799896246364521 2.3808191587532352 0.427759832259773
Ni 3.8931255993133975 3.179479645690444 8.592942506958442 -1.5270478443833637 0.7292659008949182 0.9491330164013331
P 1.8910615407134372 7.973117811931749 12.55762018080314 0.8138976181033855 -1.760654163852742 -1.1248203520667401
Ni 8.918597535980075 7.230347619084053 9.818739785143462 0.06733976289723886 -0.26365094546058465 -2.20244733427713
P 8.94722059326787 0.9251586527345683 11.574308645432987 -0.6507456959008276 -1.1037622458448602 -1.8508847153052252
Ni 0.6175768012280204 5.174007412942256 10.304091797799398 -0.9346098830844937 -0.6679872565900947 -0.04678842110844845
P 6.695744271861512 6.939764188272253 4.10687412673261 1.2339541681816297 -1.1394234466918958 -0.8545493301864766
P 0.0763699179288674 0.39044021928946787 3.0084123288903584 0.08673770780787642 -2.2356032522038083 -0.13515440854836724
P 1.5701658838633927 5.161394334195786 3.092238720303342 -1.4444480700032607 -0.6168251318939828 -0.2443000517377986
Ni 5.2011640490071365 8.217295507841158 4.7486589436298114 -1.429882770594576 -0.24253576074852426 1.3233827925581079
Ni 7.288540410651654 0.2435772056997721 9.150276311250874 -0.4897190475713889 -0.07084829027112961 -0.472112133122903
Ni 4.256120538866893 1.8288221690623483 12.558095375528541 0.3855945117456327 -1.4038007287955436 0.19891648139667675
Ni 6.260903973532133 6.856957794912423 8.697497412037626 0.9443767326632704 2.0265951908990836 -0.5880701712484775
Ni 4.404173395499485 5.894502853036802 7.053682842540042 0.21389752818654129 0.3695739679476603 0.8648656245108203
Ni 3.672930387201545 7.297283251107265 9.068052773921417 -1.335347678229468 -0.9959885433022911 -0.046109392763552845
Ni 7.617306480141145 8.367863555305462 2.6613976682078513 -0.00951488146897071 -0.37417444283414913 -0.4313886872616119
Ni 2.324481823554803 2.632124002516724 6.088411072555846 0.7208208554513585 0.16184374491409548 -1.5726910961437752
Ni 2.296211449852265 2.9202200859377574 13.244449188340697 -0.01861401555676149 -1.2198573237689312 1.3948111237024237
Ni 5.475551878338002 0.4504836715649755 3.245383214169426 -0.6774856829988332 2.195750381872928 -2.8902811932795065
Ni 7.129368739936448 5.417656083473777 0.609325861562375 -1.1317746718973862 3.2396352346358652 -1.5769447292138068
Ni 6.244309282731037 0.24578797491052204 11.772320988146799 -0.30181640078671246 -1.2927784374086897 0.4493290737901165
Ni 4.0590446638834115 1.4463182585558876 4.936578039002352 0.42122383091346816 0.19646107787764877 0.7809720710199581
Ni 1.770026102941017 2.781643280372233 3.6532125904415182 0.01638666888813952 0.35094735398540855 0.46031899714271685
Ni 2.4826232869551763 5.598907602855542 5.110900254048492 -0.36992055265380164 2.1090373566554 -0.04465671947742632
Ni 2.6063966630868376 0.2382340493831106 6.444418236547738 -0.7489494953667747 -0.5780516106702109 0.15159249949973247
Ni 9.060645490516299 7.977155110868257 5.309687572535173 -2.7284490183296364 1.4204725330242696 1.5698993923312512
Ni 3.5349661373367316 8.081818605367113 2.324367665446943 -0.1107988625221382 0.5118166508013766 1.108186600164801
Ni 3.8766422822760678 8.608310230128717 11.513195076910629 -0.06547905553941626 0.9357560808737949 0.4890672729200029
Ni 8.133096942434257 3.7327845040786505 1.1717958525938041 0.1388053750373932 -2.8580894390383103 1.0191528972338963
Ni 0.13902786930877584 0.9872912911953816 9.19883805659683 0.5472752487193027 -1.5300601488471262 2.7197815724626255
Ni 1.9279726622548001 4.888639986733483 12.330633025330973 -1.1371567621449061 0.5469204364830452 -0.032169128533376855
Ni 4.709448881981385 8.502700058637853 0.16326651276299353 0.4974976630755433 1.2600413521869847 0.6580139474274668
Ni 8.888016156679399 2.0163477438029167 13.335297695559111 -1.0205073543792618 1.306205509447873 0.8222130799476163
Ni 1.1051711389944392 7.2863222165233195 3.9133037409636557 2.594585303568235 -0.4527113599987881 -2.3040884415594
P 5.681834651126118 2.6341101679705465 2.3980878159128842 -0.9150877538911659 -3.466504235381411 -0.4693317421642884
Ni 3.737926259505836 5.469584100829555 2.8129123926641633 -0.9405779277424705 1.418191450299577 -1.3375526563005868
P 3.4902866957727086 4.828284687919432 0.4152283066449299 0.2010219577754538 -0.7024631788797773 -0.671816657638514
Ni 8.92742390675851 3.540015081294112 3.311740630735753 0.22907912102298608 0.1134895219804239 0.06515946741646844
P 6.837235357578907 7.681290707424563 0.5539814540030836 -0.17271436908001223 0.06442747434645033 -0.6804686768865571
P 1.0379292291208724 8.229982835763472 8.385516296862331 -0.3285551023331374 1.0205850016947327 0.31274127522933237
P 6.049683630550403 3.7310303672993403 8.155567527388694 0.488737657494726 -0.6449416876245408 -1.1112428704926216
Ni 8.619939507295257 6.650804958182035 7.291754471850994 0.3848195812528211 -0.11388290076410065 0.911962577998623
Ni 4.8839530075083415 5.736695510927727 4.806988168058026 1.8044053407967633 0.8533460539069948 -0.0442330016764464
Ni 0.14056018667525286 6.845393485774747 13.522497502040666 -1.3430540457347901 -2.0970796700728918 -2.5275288762393697
Ni 5.543694059468676 6.867649676233935 2.082520465544332 0.7624470156325772 0.31047998999898135 0.5867727925932927
Ni 9.050046420664591 0.6785223809900305 6.920968009407387 -0.5838386496656333 -0.920300408440357 0.6819552887344126
Ni 4.152088162362708 4.213919163546656 11.800520825132283 0.5379177187638027 0.12845411371005622 -0.5071022760448428
Ni 0.2234343324080396 1.2934206431994848 4.808902868680098 4.4890129364614175 -1.9157482487478297 -0.569723807530806
Ni 3.2704905729810165 3.3750612560100675 1.9747858395096356 0.8083077827204337 -0.3219046868961553 -0.014593324433142608
Ni 7.345786525227246 5.783221900740864 11.190713272041622 1.301556440711636 0.7547468187748421 -0.8482480705587973
Ni 0.8506997229689814 1.6682026394181875 1.6277851005475994 0.38052326787031243 1.2284437798863617 -0.03590776964020268
Ni 8.095285549635788 2.821264496831896 8.161775686603935 -0.3887520835380079 -1.8816644196902435 -0.5126139498916913
Ni 7.181668003171445 0.31403503300207464 4.7656388020305975 0.5283190193317739 -0.08281574704565091 0.7178995680395056
Ni 8.018465496078367 2.465982190419178 5.312947111354718 -1.8941471255382862 3.586077501662069 2.0775606262033577
Ni 1.181452886026992 2.5289454915347447 11.226208090553765 -0.7376533536276652 0.1354408294405345 -0.5577895179870652
Ni 5.091321674493172 8.958534311437074 9.382614976071983 0.7014532495580242 0.33038264246017934 0.532024236097503
Ni 1.2748769115324887 8.238762800807006 1.0902071457178137 -0.5742880298627205 2.4848621906087787 4.630825473756251
Ni 4.738248281061809 3.5105474396310927 6.314284490390355 0.47626472183869584 1.0604923794126317 2.132416397700973
Ni 8.265344005759095 8.098998008427978 11.661463256153171 -0.5480689482651917 0.6317619557094732 0.5813287387595859
Ni 2.8104241171586968 5.067070037433182 9.621704747206694 -0.02985359302632278 -1.6819768644554967 -0.6656267267777182
Ni 3.082695844978014 0.8646669210599036 8.975872422111307 0.053325965116650095 0.09460245526793384 -0.4695857671566235
Ni 7.171171025936523 2.2805077491612957 11.49957035314329 0.01195922924440521 1.281378423101864 0.08098846402892504
Ni 8.466336524768337 9.057322839897287 0.16265117271818777 -1.8224501141136162 -0.013043977668151728 1.3864452682362316
Ni 4.71208472772384 8.3694135068512 7.174729417688839 0.1271212538312456 0.26718724074861727 -0.5208977871670383
Ni 7.6286944474861915 1.5639382342394916 2.219241969828459 1.7212967451010417 0.16373659106143415 1.558425844474013
Ni 0.6356258477609569 4.549943089974881 5.991503832588576 -1.900188960856992 -0.5682500511987568 -0.1421624644350842
P 6.8705453940918435 9.257832739263545 6.895158995884073 -0.5974719241783516 -0.3782684103978647 0.8332269145596166
Ni 2.4362639577876863 4.7263776940737765 7.33527748250125 0.1613799179037995 -0.24481427237005582 0.757659621546263
P 6.343339121012742 4.398873860573632 12.23568132303249 0.9609222957267772 -0.032523169438685925 -1.2183995082764822
Ni 5.114960755852451 1.6688987254417231 7.620090824235288 1.838299679551363 -2.6872928558063007 -0.6608213349692749
P 0.5790739629795052 4.005214011396636 8.379756417046247 -0.8760188129141622 3.7860347656184343 0.8066715326685914
P 3.1206650172751518 7.800896848561989 5.050370469671207 -1.0777079719599698 0.3012682415927263 0.13908793927481852
P 3.184454340471981 2.383992537993631 10.678966605487904 0.1303641862485755 0.40812071787260684 -0.3283193321732475
Ni 3.0680130704548976 1.2453721452815474 1.256785171723442 1.3492246933218763 -1.8560901707655648 -0.28560096736911456
