# total energy = -340862.8477081165 ev
CRYSTAL
PRIMVEC
9.27208949688176 0.00000000000000 0.00000000000000
0.00000000000000 9.27208949688176 0.00000000000000
0.00000000000000 0.00000000000000 13.57064021585829
PRIMCOORD
 96 1
Ni 2.77406084991406 2.340275410845195 7.4564290011627925 0.9668767135379994 -0.21179153758713204 -0.6777417648736973
Ni 3.4835889611030733 5.737875013151998 5.554666867865029 -1.3919790535702672 0.6511599006201109 3.0353824286279405
Ni 5.363097152191766 8.404592881959266 5.121002893169705 0.7856352808235824 -0.0026955445542921324 0.8042724363087955
Ni 1.7740381720777416 3.7532769587252734 1.4801769097027104 -2.4074287909209633 0.21730192588239994 -1.8735255926331928
Ni 0.20418624796936824 4.610268382648367 3.485876385603293 1.5539197290735434 -0.07514923163932863 -1.6721529363865395
Ni 7.839959714689736 1.8001391042549573 6.607748151133283 -0.5593974859041334 0.40936436047172076 0.19063572944512328
Ni 7.890436970381659 7.130273977977806 0.8365742826604902 1.097629136363929 -2.239661224323265 0.5506984154682386
Ni 3.924606630046975 2.41435013452682 0.21161226451669754 0.12479054881553993 0.6125095352377644 -0.2146385201176239
Ni 4.235156726463132 7.515686925690177 12.25571356601316 0.23603318374331608 -2.7741537194556027 -0.5649415556508142
Ni 2.9539022994733046 8.590841345420625 6.042653233802501 1.6313518432097776 -0.1278167372363734 0.0879443265214679
Ni 3.1907856441495057 5.011026638621231 12.480782414142217 -1.169396081794586 1.4139375601192294 1.2893244174218184
Ni 4.074499230251901 4.603926273373334 1.4306305718049594 0.7400982156237318 -0.7714669597430004 -0.7328569606802863
Ni 6.569859611468716 1.0729291182304381 4.321014421587317 -2.4396310866851207 0.7905283472498257 1.9201103823712673
Ni 4.287655297684232 3.6425589370101283 6.057241939552993 0.7390222089507337 -0.7451663741752586 -1.6414333958154956
Ni 3.373343815956681 6.701198760417299 1.037914926336719 -1.913202085287208 1.636683025614704 -0.1247812928441593
Ni 5.411404738921178 1.4212907959676204 6.478677882505754 -0.027789768518758588 -0.8363659744092307 0.4531744156781357
Ni 1.5647022055537638 2.0052933583768304 9.629075231639012 1.0072430331701878 -0.29966798698514197 1.7013077035736246
Ni 6.631222300331526 8.537499014047437 2.211702126219335 -2.7353570583033795 -2.282977113502081 -0.830290457639112
Ni 9.008604613689409 7.335771299414263 9.250494886740634 -1.5437774984332187 0.07488517934466458 -0.6227450969228437
Ni 6.107451231855956 1.255570738843864 0.13152459074024994 0.8219695964782425 0.30155286271268067 1.8733507576182256
Ni 1.4102755535425646 5.702974867960155 8.956323936573519 -1.579196501362461 -2.9228776391582887 -1.1225829780957892
Ni 0.9281732556547043 8.661884095808485 2.2616286197900046 -0.36986244572235655 0.4153277771440073 -0.36443304717666913
Ni 2.129177747300375 3.051954646817552 4.701222945416537 -0.11319230245497926 0.04336936812457047 1.3726163327729395
Ni 2.2487042541197306 0.3149228138636795 4.071938279108972 0.4416131932030975 0.5537590566714333 -0.40334669352273117
P 3.9081486710364746 1.525648164228566 5.028343193127152 -0.8898176664704674 -0.1755117293194913 -0.7035379000011948
P 8.0201813199219 6.274395204804718 7.444608941361899 1.0045577730285409 0.20501153855082113 -0.16028797039120135
P 8.589979041089371 0.0668962719261724 8.250691030218485 0.2737504957884318 1.4143700196709577 -0.31874480111093495
P 3.807036534129712 2.2428072051447008 11.03863034382095 -0.49360038490366603 1.0604458424454124 1.9508859729912276
P 6.006635801815861 2.5222865293669505 8.225626717656692 2.2574722843627573 1.0116488755473674 -0.15003543942525774
P 6.979129645679123 2.109752719623193 12.018484372395497 0.41540182491505234 0.420935610249088 -1.2471765804091748
P 5.058499737288138 6.016862916626329 13.506450764557206 1.8098532512852121 -1.2227729547538295 -0.36847507845652666
P 2.5652348483171687 4.8890430280622805 7.389864670043704 -0.4194076036403358 -0.46084427351856766 -1.2039877037265265
Ni 2.647626636355086 4.124104909522986 10.36902785037797 1.58529258695787 0.5443719590295786 -1.2648166620884411
Ni 0.57283340329707 1.880491032584531 3.058035283166333 0.389767926397032 0.9987218830730542 0.3981551220194626
Ni 1.0672545994054092 6.239689773494126 1.5521691220639087 -0.06306170434717526 -0.5499024019295045 -0.7975562006308845
Ni 5.317348662187367 6.5922609799021625 2.1619249132909575 1.2437991792965095 -0.14997141895654173 -0.210795749332766
Ni 7.725412319976655 8.93172044686402 5.938118768630514 -2.385162266213279 -0.7744101015317243 1.658843620872143
Ni 3.930086434990753 7.117209603754823 3.965992601902393 -1.3237445467729008 1.8419159361477115 -1.7494510960480711
Ni 8.318742604506747 2.3867285796579307 8.854449633903004 -0.23826644394920904 -1.8092287303273356 0.03446795186988257
Ni 8.751916085663108 0.8466743698436663 10.687598304283753 -0.4588187584481066 -0.4001119886355174 -0.20233836259403218
Ni 6.376082211265651 4.276881129588344 0.45089429876811865 0.24112319667171375 -0.6485702855160637 0.7026958637158737
Ni 6.338113004421707 8.11357907829529 13.18189610403431 -0.5304422363223639 1.5903939127401772 -0.36081884746284953
Ni 2.0410465358103447 6.790210820417749 10.677963675997661 1.7195933892566904 -0.19302197028911272 2.296717345906309
Ni 6.5195677975684605 0.7348576055128913 10.051474544699488 -0.5565592451243899 0.88382442500151 -0.8240429340675035
Ni 1.3780921305986515 8.769495967513198 9.904328337429158 -0.0881016780349386 0.6523855454970958 1.3751902641477027
Ni 1.049155480538651 5.2220872138077175 5.645522219274656 0.17927068214129124 -3.5138737258043093 3.4993431362883025
Ni 1.8698188574740604 8.20184937112907 13.497358553511743 -0.05979023268475509 -1.0997919483432028 0.13564471792122446
Ni 2.0103095588414392 2.9425810780919974 12.205854758696447 1.6518875012692842 -0.863823556399551 1.4464432460564187
Ni 6.907289495587093 6.210241616977309 11.999201207688943 -0.47935313095603255 -0.35886840860469804 -0.14921320063427848
Ni 5.8412217236483555 5.885718481558998 7.5057314831045 -0.5913200456443428 0.43262590210282265 -2.2392223370136337
Ni 1.1083763167077012 0.680760526047617 12.232466583009707 1.0061086624554285 0.5067171247912822 0.23334766649135297
Ni 8.75579181910896 7.110125727313121 3.0366612622587246 -1.9815643759116903 -0.38634707364094106 1.1503439502591415
Ni 0.4064717175741435 7.568222585269609 6.359961756315985 -0.784794787200158 -0.4771810630053781 1.402235955411585
Ni 0.6390073794446971 3.3111929994792826 7.438909387894995 1.2646765369661508 0.9688191819763506 -0.14930781723061382
Ni 1.244898563733393 6.82781841576794 4.4455923628116985 2.31312381228879 2.638708262029378 -3.439924685120669
Ni 4.099339158245777 -0.05275633531151739 0.3620750982310018 -0.0920282667828544 -0.860634360038292 0.2146341492422497
P 2.4926343868793004 5.112110959259243 3.046730751546275 -1.0088206620699531 0.6759795307669519 0.24122912612195874
P 2.9288120250606777 8.833751548326024 11.506247783361651 -1.8858992837071973 1.4611355579612706 -0.28692765660033814
P 8.528625624316144 3.829224644502742 1.5541774566676687 0.7370841113877564 -0.14540282574925278 -0.0019830918682998107
P 2.003754191505989 0.5054225303990201 8.296058437341006 1.7144848643855313 -0.8082702446142789 -3.1353913996234257
P 5.302114619001873 2.7100092550720687 2.3069005243898175 1.818826658428416 2.0599637390572005 -1.4023958780282169
P 4.6552936496652615 7.824243522845906 7.5545175096564146 -0.08899847881759511 -0.38933340996277466 -3.075433016791923
P 3.2128624894475344 8.540289913012035 2.3078499863631556 -1.5316799438387363 -1.2446592133039596 -0.4002747394656268
P 0.49011987375060917 3.7085669427542136 9.913773815087747 -1.0811247109510027 0.8929258730821461 -0.009570674407570612
Ni 6.697814447719364 5.97226416573027 9.609044736512036 0.2220633518267853 0.23601287202834195 0.8942368785840856
Ni 7.886199625442054 0.6952463116037322 2.8006272409883617 4.4565722994342085 2.538094824680674 -1.4146952642208603
Ni 2.1862938191339976 1.0769068446617083 1.2549801067374025 0.7956150177441136 0.6380979252298301 -0.025208380944827552
Ni 9.032155721231195 5.487176254996561 10.723044575552057 -0.3258785839422388 0.5511771548768701 1.273524217164768
Ni 7.749111780951775 3.2326213123497176 4.154488619878765 -0.2622864610128902 -1.5167685739445427 0.5351136736561042
Ni 9.130078259321275 2.8746908381624867 12.105132976761144 -2.5373106382164816 0.8425011407726909 -2.0478273608049826
Ni 4.458660445870515 1.5699780245267074 9.195588353854731 -1.6267323421598952 -0.770432347830899 -0.8991471714015095
Ni 0.25127640933648193 2.0375231417686606 0.5112491114932163 -1.1905668023349303 -0.5761435950142206 1.7281340797378497
Ni 4.519355544283322 4.839372444164111 3.823948825529798 0.7113445405298072 -1.357013850348992 -1.4280138357066374
Ni 8.010872141980187 5.588557282501242 5.116294526079265 0.3871114626107914 1.400631844149259 1.2290155932294318
Ni 6.995012735135454 5.001522746798267 2.7251199794661036 0.3130431227404673 -0.20842596354900875 7.893286705147696e-05
Ni 4.287386407086314 8.220820066416666 9.497684158988763 -0.1558276206270026 0.015604025085844095 2.1298869464109
Ni 7.372961650733203 3.635113449074674 10.441997340981258 -0.9276730467553442 0.7656472677374299 0.9526875665218109
Ni 2.335991705457673 7.374306103722793 7.872993388248445 0.7635129950032463 1.0455074759680252 0.32095466427806013
Ni 9.019629128204048 7.776241915072746 12.293589124752309 -0.9282219772802789 0.5218164423265658 -0.695524542778415
Ni 5.228642581143167 4.163353664729435 11.932976235048606 0.406499637329416 -0.8201839653327293 -1.3213364515520405
Ni 1.0435365942511223 0.6589720427356316 6.32975421566229 -1.3034672845811035 0.7189514063427875 -0.08928824214387204
Ni 3.2743828038332627 2.865669094997858 2.7481907927674705 0.3322124965800666 -2.0536550232303536 1.3628659382543948
Ni 4.665836015521565 0.764738768613251 2.468526953962512 0.9682339988968421 -0.24086197259052708 1.4247742457234174
Ni 6.86471206022021 8.014840596321873 8.054826482650201 -0.9516329000050513 0.7564218924844198 0.6164538645974932
Ni 4.950674607523009 0.37123035948563154 11.804339900213579 -0.3331800026996585 1.5541999793181234 -1.3339176306511606
Ni 4.437955869830827 4.272495431215405 8.213942030363715 0.07808080346382681 -1.789498084667628 1.5499579162123178
Ni 7.743854506157999 4.171225668785725 7.441948778860428 -1.5689640250011754 0.410054701670526 -0.2430016446413492
Ni 8.535412793891178 4.999232540671172 13.251499826118831 1.386310028209948 0.11402174033481009 0.0026202112316664554
P 7.382558263452001 8.22294337493126 10.739600818712141 0.09420264872635388 -1.7965045978924479 0.5995216076185288
P 4.463083232601788 5.569781301094896 9.9010580714331 0.3354032356032224 0.7399318652491965 1.3105655861887817
P 6.731537037534118 6.913854135012126 3.838211153726954 -1.1870076242287622 1.5045180387119639 0.22354430724768595
P 1.1117420852264681 6.10398347035177 12.523488731554307 0.5580707966729098 -0.865464948657716 1.5387494490910079
P -0.29861506270443017 8.962271982041257 4.442403691203974 3.196627106505456 -0.20047302725051927 -2.811743247673603
P 6.228479817187819 4.561274661289785 5.023131351572335 -0.8125030517487039 -1.3740828900161368 0.9806251734723435
P 0.13889219312320394 2.6052160986007045 5.477300552381303 0.3858287392436258 1.004357741202593 -1.5541385299525685
P 8.364630175854895 -0.09464114558652136 0.5294520777633085 0.2308292709448734 0.6530028673661206 -0.13128412695968358
