# total energy = -381178.25731942133 ev
CRYSTAL
PRIMVEC
9.11506452668655 0.00000000000000 0.00000000000000

0.00000000000000 9.11506452668655 0.00000000000000

0.00000000000000 0.00000000000000 13.34081829965726

PRIMCOORD
 96 1
Ni 5.384879435681042 7.426407824788406 7.54087116143637 -0.2406035767228179 -2.3307638939680566 -1.0105998654575628
Ni 6.040252588591525 6.637653929923277 1.656076001535921 0.6101957995029234 -0.6999645808276398 -0.1588214131480039
Ni 7.455220544348212 6.444177566311623 13.211492380279912 0.7934732888107625 -0.8183898495467841 0.5890374202577532
Ni 2.840664342681325 1.1682413840879677 9.894338029693225 -0.8099985401592954 -0.24928619209848032 0.9343067500217781
Ni 4.660359401852911 6.600008712655956 3.4142626040198865 -1.7550823261919195 0.006970774890878318 1.1482024784361065
Ni 8.456045534840813 9.373659099562625 7.836196523638787 -0.25940091193497905 -0.6925384635668976 -0.7061969348905967
Ni 7.073417828688108 4.1346936198174795 0.9447126521154536 0.4928416523607706 1.3672681810871485 0.3635658140803674
Ni 4.037253578028703 8.331488175528968 10.759089688114772 -0.005366406518235919 1.0019401329000357 -1.124271935762438
Ni 1.575420439910835 8.76249401051328 8.401861032650599 0.3806073429436865 -0.21142001318032622 0.4895881784204794
Ni 6.698378491045525 2.0673604825058103 2.1400403625064643 -1.9048675972795839 0.7196265780329413 -0.4958465006253654
Ni 2.0101999116865943 2.095197890141257 13.52252026446451 0.39283011026212344 0.21345324156027112 -1.7430354223297144
Ni 2.6526296727037124 8.928543144401601 13.010899885646323 -0.40813537316062615 -0.7092269799661721 -1.1087278173802517
Ni 5.363222041921441 8.34791352214294 5.003980934440532 -0.4923320597142037 -1.0782162790549559 -1.0852431039947505
Ni 4.567422202032671 6.020600509068923 9.384145070009192 0.04191618061781168 0.5840173413353426 0.23523228510857552
Ni 7.14515338798443 2.22145065148984 6.52508743824222 1.7584196180952685 1.6254611887569557 1.0508756822584742
Ni 1.7808648834914935 3.9095970967142204 1.453655936427247 -2.4721629978745554 0.3363954243131626 3.9358413768623377
Ni 5.259319419250695 5.056445423919282 12.980696207211215 0.5614697950521298 0.6908932146539908 1.49973193017723
Ni 6.322154194990168 5.963212061631866 5.045324133462175 2.4975973787872596 -0.20915230019207207 -0.6244939612931503
Ni 0.7758560782953329 4.306266482922265 4.491893864309005 -1.1641713430605372 -0.10289811961782278 -0.8413433730191637
Ni 2.6357121125952023 1.6169669048755912 7.542644953029645 -0.06929842928550646 0.6018929360641827 -1.18809160132156
Ni 0.7368053180491703 3.1033513926636225 6.838157096922673 -0.243505066640329 -0.9822408546988954 -0.8443050267506491
Ni 7.9646432810639425 9.007652791051255 5.414371227562014 0.23570099721487794 -0.4204229322787276 0.5583572175650771
Ni 2.5549435241676677 6.514828432907022 8.027197235674217 1.1332900801006482 0.3653815271328675 0.3041859294601535
Ni 7.516756346229974 1.5032200123141184 10.994048711238188 -0.7884161860028293 -0.4253617643412416 -0.8152204506798669
P 1.768513970804516 8.119736107166473 11.180606740732191 -0.11014220277474579 -0.7903044041644777 -0.8025515969629468
Ni 0.7055452036137531 1.174886266264209 11.44859693536488 1.2955873676123946 0.9989645952114796 1.1556921019449322
P 4.11968110823412 0.11797901710801455 8.232672670474901 0.2557700000506111 0.04240160489466246 0.7704781134671699
Ni 0.909867582728163 7.388033402343995 6.489053764416272 -0.46692236139184745 0.5234807174028662 -0.8488522798016993
P 9.259720790642165 5.315185650880576 0.9734396900669513 -1.8602278470830218 0.3142605400873362 0.7978698752165614
P 2.387745892125429 6.629577982586994 4.66206938799319 -0.08850534123126047 0.7628288244520282 0.06546028648633888
P 0.9913544382551329 0.8630125040741847 6.230308979922621 0.07823018455749753 -0.53925212130451 0.5445203116819848
Ni 5.225958282398785 3.450936155388733 5.389130701863483 -0.027300487587165887 1.113527038541108 -0.6488153116473342
Ni 0.6330138991679314 2.2041867189222115 9.162660847051947 0.036000329354008966 -1.051445695829331 -0.6013692023502288
Ni 3.1037251103168817 4.55807014563648 3.9901451005756856 1.032780772429976 0.29851561854825365 -0.9236832088696609
Ni 0.27746348138957405 8.310304765134475 12.850596888553477 -0.663543104775812 0.5989729342039103 -0.16680417424316432
Ni 5.752462650387871 3.874877815219978 9.510522707744352 0.6974387290819923 0.12500754992235244 -1.0785458944802329
Ni 7.31187703666156 9.20238703359339 0.5346158640777513 0.8151106645748802 -0.24492071604093305 0.266223077063135
Ni 7.921857167298131 2.3799433967305554 13.099122773996669 0.6657779076436018 -0.42690108380390346 0.4562836507310787
Ni 3.6666897371605143 6.705251249839607 12.217775317251004 -0.4868736077027938 -1.2427581396265048 0.6170228497270858
Ni 0.2235469621019413 6.755721363159014 8.82878058412379 -0.11938017643324603 -0.39227706597213086 -0.40972765734841055
Ni 4.169941575065113 1.3698666155536126 5.42893983549382 0.9664691936869355 -1.2606234499427 0.027175531973527393
Ni 8.714740186478537 5.318503534436339 6.529703307013206 -0.6859430697375671 -0.03282810227361443 -0.5626581589332762
Ni 5.17025612193375 1.5329989287335695 9.909733373994557 0.338983496755313 -0.9692411000051179 -1.6670495537217032
Ni 1.401249783362664 4.575680450663225 8.537723806726769 -0.7750688181616457 0.045675647660243915 -0.23920412527212997
Ni 1.713130837604459 6.664862398093482 0.21485027885866045 0.0517935876325237 -1.1495533360370462 0.14758414967128775
Ni 5.5173669012937525 -0.21527595238078728 2.4098052602389006 0.1883860141789981 0.7850015038943254 0.05726746626290137
Ni 3.226322730715296 8.337376507333977 6.29881416028443 -0.31721448050933754 0.3218026141006522 -0.10783155236369817
Ni 1.6645201974866342 8.59140424583832 1.8935161452743876 -0.04275230336586186 -0.03458339440182431 -0.13935790510675355
Ni 2.1227436157058674 5.013048600817657 6.170462199532296 -0.011011263508839101 -0.33778407713057307 1.0809606745693123
Ni 4.02864895693903 4.531499731996228 11.166572275592603 -0.11270867795034138 -0.29550279986385886 0.015045838589528926
Ni 5.311421129153843 8.12359177954034 13.051949579584186 0.15842417770958522 0.5362817258222765 -0.24339193810123244
Ni 1.1678220911111405 8.944448932326898 4.253426452777313 -0.1003396148620272 0.036515321317214536 0.8057621334804446
Ni 7.924190623864822 0.3427382828168695 2.79183311799743 1.4595031645641703 -0.1394584352403598 2.108923971005987
Ni 8.035294147659341 3.886481292600437 8.299790537987295 0.3784887539387869 -1.0851037502034087 0.38881996066146585
Ni 6.070669559540931 8.476071332016673 9.367709696824033 1.0980502830617476 0.2018889337614394 1.0720608009765216
Ni 4.918270157925263 2.9144507915382145 0.6814358574461838 0.08109310792758938 0.7282534004700039 0.5505454348301422
P 1.9576789088066193 3.0294008726418875 11.291442281624127 0.7185148330260012 0.012829290554184357 -0.6046494157633974
Ni 2.4309057235444986 2.4947476367988104 4.897628182374762 -1.3705270543440784 0.3417816283257404 0.13377398326107284
P 5.849109681546561 1.146027971380835 12.842325878832323 0.7731512894239588 0.7257653439408275 -0.09254300163574385
Ni 8.935926346819647 2.700693408938719 2.3237307926415576 -0.4280462531519402 0.44782266444791907 -0.6178474025109102
P 7.508926505640959 3.7534104628460545 4.844251274918175 -0.012933420232216436 0.24323252970523268 0.08646697064499302
P 9.570909099965725 1.017897506701243 0.9699659389045843 -2.294695944600906 -0.7947135889757668 0.21660412848442695
P 6.745749482362295 7.638770602486714 3.5565022773697166 1.697370830413064 -1.0512883443158605 -0.20822053240642205
Ni 3.625626370625581 5.332549849160054 1.6327696925696233 1.827462222616227 0.3556856400013423 0.698431689122881
Ni 6.457859278446791 1.4598961097302028 4.527459935315145 -0.5567693042526669 0.342306647591275 -1.805961372429974
Ni 4.967017524013792 2.525401599430771 7.590071546241168 -0.5999756644368118 0.17529755642615616 0.5585027420040058
Ni 6.201926491417299 4.794943332349758 7.156014899097199 -0.08233237965132917 0.5236732930296465 0.37284158295533854
Ni 5.595100173171646 2.9037314754349777 11.517408381901067 1.5423978444768727 1.0599830438763809 2.3049842139007914
Ni 8.824886628478124 8.741328830248216 10.169279372676536 0.6075015405002119 -0.8354614603170901 -0.8158753106550464
Ni 3.255755274675629 3.4706611554290427 9.367655917942225 -0.2733833422570002 -0.6545259888788663 -1.0048025420494953
Ni 5.539060755312208 4.287398298965036 3.1146805065962013 -0.06772002905479305 -0.6473739512151173 -0.6009591113960037
Ni 0.03901338848083666 4.0259053224602255 10.392271227337417 -0.30386865533005086 0.2956218419402264 -0.9500336738387315
Ni 3.9226042940605796 1.6303842801340644 12.213159448480019 -1.5397958880776514 -0.7474076048009515 -1.0473998078947317
Ni 7.2559196543845434 8.065856959644165 11.68526321010916 -1.227948328307182 0.581250834333799 -1.3407565079498651
Ni 3.3500870793970554 8.863443352216807 3.581649829408169 0.7304609496442839 0.035623148520248324 0.2225174086450684
Ni 1.5252784689211194 5.987740700776262 2.582101859481948 -0.17067394161121574 1.0267024274463803 1.4547458523848429
Ni 3.857103439028386 0.9341756373064896 1.2989532350944615 0.25413092178529134 0.029245527128678665 0.4962455358359969
Ni 7.204073166293378 5.830223267459906 9.342668791042732 -0.587375459174298 1.1960303965526626 0.7947033045631217
Ni 8.085308507743065 5.019657022735045 3.077580370198757 -0.6215685601162392 0.2416996380004741 -0.6609226364338295
Ni 8.772356510533434 7.100124968299064 4.231947714286099 -0.08724010136559168 -0.883044352302376 -0.062405301710098976
Ni 7.233788277259833 4.515557483812078 11.738119647370597 0.40456051132517423 0.20028559383006153 -0.7363395199122479
Ni 1.9990886478006713 1.8705024298853974 2.567307197945244 0.566667022982353 -0.554307987196368 1.298865009922402
Ni 0.5511022816253062 4.207358915714592 12.495931543558815 -0.23488544329211808 0.1912404529086577 1.945542706401443
Ni 9.14669398819307 1.9767385091228338 4.569136745705306 -1.087423913696153 0.1487714851111696 0.20169764368623974
Ni 3.7513231130266314 7.630557929179728 1.2750024910529094 -0.36040978494988896 -0.7581967249966555 1.2740325242597543
Ni 8.965814644015662 6.2570999781289425 11.302648342183073 0.25920447965345683 0.8174177154415019 -0.37751019207560144
Ni 8.667660877232603 7.5841804799167445 1.7720342087969223 -0.10156937350407022 -2.1427105805381292 -0.3341238546701665
Ni 4.271729502722295 5.983338124519576 5.9488713303179015 -0.8540631345786774 0.4452919276062654 -0.516510199622304
P 5.822776259588865 6.319611091935063 11.25807658723986 0.41673262791133386 0.6170611591641889 -0.34795793233978134
Ni 2.902892889481323 4.358295272307703 13.184530930363445 1.6989489735334613 0.05421505258982275 -4.4620551769256505
P 4.365477943302049 2.028101898784177 3.2471953174030523 0.3645855135941334 0.34081977863310337 0.24036009325344412
Ni 5.8693177800166945 0.3418805552273163 6.748519550528769 0.5349156987126852 1.4344768177231617 1.8500385652548461
P 7.572403816306725 7.178897357554313 6.927100075385398 0.25419854179843315 0.19207708987734018 0.3360845779409631
P 7.382108610280132 1.8361295208502733 8.80922238976774 -0.7422152619667347 0.4787628056702013 0.3384260815899462
P 4.049668296168676 4.658882761369302 7.616873482525145 -0.4290736659751901 -0.40205857083892693 0.5943660315595183
Ni 2.1277113259747993 5.7690794133608305 10.608818731245755 -0.6312652185787129 0.8918591223805284 -0.6829387356936044
