# total energy = -381171.18709167594 ev
CRYSTAL
PRIMVEC
9.26106067944610 0.00000000000000 0.00000000000000

0.00000000000000 9.26106067944610 0.00000000000000

0.00000000000000 0.00000000000000 13.55449842672570

PRIMCOORD
 96 1
Ni 8.752174460127687 9.004121610268552 2.5841785309265313 -0.8312193972112846 0.7249335920681516 0.2901621043772358
Ni 5.876392918119171 1.8272442753682427 11.8800568858809 2.2913378267619504 -1.2968610921184955 -0.702348507678784
Ni 2.8972116359407325 3.900054830212139 2.90664032160728 0.47968094660909644 0.1938868893925693 0.038541350608307816
Ni 6.639448734649455 -0.20837756504427488 3.581112242510752 -0.025561136298555977 0.8402640239120561 0.2887780795455156
Ni 0.767265894620856 4.320099488980344 10.07881303778781 -0.2392306076346912 0.5760662048090659 1.2209500426124777
Ni 2.7905797856660803 8.670362251918005 6.568048736728446 -0.8915189654322905 -0.47550161842042626 -0.1981942585186716
Ni 4.273099607084925 4.626640590603671 0.8574806629967869 2.107929468303202 0.12043047207463131 1.8266638950846474
Ni 6.69105136359946 9.044592444531208 5.875115817880082 -0.18387475657220592 -0.15196428101685444 0.11125214800947292
Ni 6.183341506403266 6.761509511670464 4.438190049377007 -0.6275741428803707 0.37012804067891736 -0.2945232095594089
Ni 4.855694399257742 1.9204290658375451 0.8250539858601128 -1.3420443735233532 0.9729936250690145 -0.14361590905215912
Ni 8.988442634889449 3.9084360899393022 6.0504434364179165 -0.841459586882054 -1.4813768247088102 1.3836815894481653
Ni 0.13063837123018035 1.327091443517204 0.8205132879106893 1.0792555189527477 -0.5876425967927557 0.2802978099886463
Ni 5.562581884025321 4.466285328530924 3.0755018677235615 -1.3419636408840887 0.2541378637638268 0.7355332219608688
Ni 1.7425333552308235 1.7184823811850298 6.355080464008199 0.40495131900568965 -0.4823430668222919 -0.4810420886226812
Ni 7.821928718896319 8.792265590910992 7.996272812812026 0.01077446490768467 -0.17540708542082695 1.567417763559978
Ni 6.998592659753762 1.3553469390172879 1.1250151040180807 0.8610678480312848 -1.5196559227946664 -0.9028583017045095
Ni 8.42677783938336 3.136184040360319 13.340716900161627 0.18406476109582492 0.8890095687468753 0.1671636144651121
Ni 7.624279166302814 4.734476378739684 4.196268923303133 0.7013532336450501 -0.790375109501413 0.39287844700155566
Ni 5.379981554698822 5.144093083416412 7.895237421380607 0.8677552873537894 -0.09522774755675857 -0.6655303104091699
Ni 6.95846448472857 2.4098761117829475 5.224092902091723 -1.277087509035994 0.933430775174728 -1.2873472390907894
Ni 4.344048591360946 3.3519204440556485 6.301744164537834 0.0006630875052956322 0.18511248563404892 -0.5639074579593449
Ni 6.111336761233437 4.093009025146339 12.29998855971135 -0.10506067448678034 1.001499188707875 0.38860835887129197
Ni 4.3843805097165225 6.8527216962592306 11.583470498158931 0.2849777319628189 -0.11733743497160438 -1.006931158356724
Ni 1.6785857326716374 8.727623388816404 10.055106575191575 -1.2841120199829432 -0.5471947731903545 1.0202731268812686
P 6.026153527011945 4.793580466672012 5.724958835599106 0.5634698562012941 -0.3567598469021275 0.05091169924820264
Ni 1.6143139729959306 8.922272357816981 3.52887337870632 0.39456329090314624 -0.6476302902002975 1.5781863149303919
P 1.9957307485354083 7.467841332809725 8.306887854936988 -0.007592724745593375 -0.5271100866253374 -0.21808071302995344
Ni 1.0841089999132398 2.716315341741082 4.165799108244195 -1.5186218251031975 -0.32052734693265444 2.0429512636596043
P 7.665666845552198 0.6791339387450789 12.453438775096169 0.15624568200102767 -0.21550343922108048 0.8527446728775702
P 3.809361265009805 0.5751257469021455 10.985297676166157 -0.6720465142611329 0.4725386791373603 1.0731031261981068
P 4.585382566200893 4.725141229783904 10.628394001590026 0.8896510589856162 0.25135850124647674 0.10703348194243503
Ni 0.6637531695131749 0.6658813612096414 8.226509258888372 1.0438845956526217 -0.43335326718715045 -0.3628597891522783
Ni 8.339510866555669 1.5314552649529127 6.667280999685968 1.2760202441137443 -0.367819961371031 0.5251028263873215
Ni 2.387066119840402 6.206364502736667 3.0611750071733717 -0.38901767849456875 1.7357833687529916 0.9815384293152322
Ni 2.817927697239908 0.7527223252556212 13.444869564547925 -0.6910084000756164 1.4021176846661658 0.8348816765542201
Ni 0.0006130822032466532 8.390530048695936 6.3013366778770665 1.949549770678307 0.2580246004127427 -1.4215140869149065
Ni 7.17586787930886 5.971930017948363 2.154419945829241 -0.7917455074863784 1.702314290461268 1.4606763589366651
Ni 1.459885789625267 2.7598701091409157 11.877969442850512 -1.1264470890368858 0.6580957085079956 0.5493735260092281
Ni 8.48926221438797 3.5610351895134946 8.555043526920613 -0.053597730720798015 -0.5045070045138408 -1.1324956092238108
Ni 8.109799522608085 5.702303503366443 0.19684661865058292 0.10083738043405213 -0.8825938950285187 -1.6925569539641885
Ni 6.365867747245989 2.920021627883278 7.569482397596014 0.37871989611298645 -0.07699296971628676 -1.2287507696038193
Ni 2.588762755860173 3.0035656544012244 0.44910401431725905 -0.8380207364038342 0.14135796625591782 0.8630658522979201
Ni 3.5802704121138467 7.086619039540159 0.24793988927462798 0.2869217430630671 0.009960196536505428 1.0658125060739645
Ni 2.994045284236005 1.5655544896108307 3.6056188607317683 -0.5247271882154575 0.03503873677168805 -1.5197055450856796
Ni 7.810852490571802 6.61298988488094 6.192860024356392 -1.1572213941052651 -1.6050471438769778 1.4738419497843456
Ni 0.6820132024458249 0.5053343951851247 12.244252719472689 -0.10177840419108278 0.5110628033544876 0.9585129149543363
Ni 6.525102421001623 7.283861105472896 12.222293818987518 2.329635179680252 0.625359137506923 -0.2699864007603092
Ni 4.217005363805997 6.911334947986543 8.882099729701523 -0.8046280198760013 0.5078877480606157 0.6140007750713102
Ni 4.351235174287221 2.9422481730160874 8.827123296421567 1.003952021123742 0.45397737119540527 -0.1567287922850333
Ni 2.8585281863491727 4.823438125633753 9.392291551104213 1.392948873682704 -0.3934656869635933 -1.1155942054827819
Ni 5.668083884922389 8.793052781051111 10.586280255199638 0.34151114827317314 0.6178044650881167 -1.1468832454040507
Ni 3.4032915464938536 4.819502174933151 12.46773877857099 -2.196627385161243 1.686516404197063 -1.0456337171332444
Ni 3.0670594849972823 5.388001633067577 7.04682055826777 -0.42018767633946996 0.42453464045425593 -0.4409274799899826
Ni 3.8198725686455295 7.901277485020448 4.403449959334426 -0.0035334670745552047 0.40425532137992953 -0.3504575588331835
Ni 4.57233373199584 6.601237599141966 2.486992962333323 0.5296554787550103 -0.20782843917432597 -0.05011799970231369
Ni 6.494494616141651 6.566073352529768 9.874262142930567 -0.6708854040734963 0.3143104194886651 -0.9040690341831592
P 0.05386788434145745 1.757777060767742 9.86406941977508 0.6897670714693476 0.8676570712130283 0.793805989559833
Ni 8.136823297065392 3.072662426582845 11.075949566596366 0.023261798741418004 -1.0751821202143226 0.3468289609416607
P 1.7898944184846513 7.132164934941474 5.0609787701043665 0.05618554605263227 0.7174717364734676 0.18006592434907698
Ni 8.298030576701564 8.035127592022318 0.49904798733672856 -0.9441838999261739 1.2586737824154968 -0.6783338899317414
P 0.22290816892484888 6.888960225886182 2.0054150394709827 -0.9597110490274955 -1.6358268482619958 0.6246271444369049
P 0.6180498360838361 5.134989460972434 12.677820378742114 0.7648769652303085 -0.9079295455798299 -1.1997502686064112
P 2.31468167119122 3.6941166284961895 5.599078797239442 0.3810380027232018 0.9254063622083547 0.6304164974251724
Ni 8.652571754751285 9.054223947422091 10.56064841813127 -2.4789491675584534 -0.2933070777641207 -1.1771088770578115
Ni 7.021032209277428 1.595514020237763 9.341719678184742 0.022689214067399634 -0.9195751002385582 0.21531986245536464
Ni 0.08581298633358744 7.272210691399115 12.017662352904171 0.5438438544402505 -0.2544574518867747 -0.1339148797143113
Ni 2.4543199409880936 2.4021709094702404 9.811708309972417 -1.040246741789718 -1.579422758440654 0.45687680423038735
Ni 6.530251570624057 4.045092298264191 9.730598090146515 -1.2459023416824415 0.4289186284545646 0.4788126850715302
Ni 0.6376416095123602 5.7631208874860915 7.401270977924867 0.4657507096812495 -0.07069788073619437 -0.7593105268861245
Ni 0.11841747583132411 4.443104894169499 2.0174108911003694 -1.7612671148463923 0.5391125104028521 1.0582043547094033
Ni 8.325776713875687 2.407042227278514 2.919760465977968 -0.2433407731483228 -1.262759008228464 0.9846579487808205
Ni 4.797173758135149 7.281156875815071 6.551728895964682 0.7501620276176371 -0.0069934005986976334 0.013841533868782615
Ni 5.794201006430137 2.1524001085402973 3.051822262202695 -0.10179948723700533 -0.22333347678846052 -0.38459512394684087
Ni 6.989016723225711 3.6773263258604465 1.608376707127329 -0.3182588626134519 0.34208656116066893 -1.6255018121869036
Ni 4.698849079103884 1.1340631600992284 4.727564849309427 1.4038261827168403 -1.097289493636323 1.9868567346588812
Ni 3.458802342963044 -0.010584466013453172 8.914617165230823 1.7874967379668827 0.7204112787177658 -0.8345988552064788
Ni 5.863084774220902 8.373202604552818 1.6111152027089006 0.6067726327539873 -0.21063634093676628 -1.0796730661061407
Ni 1.5424944490355412 3.5195734217803336 7.966981930751174 0.04270113841295227 -0.36441787766801753 -1.3911331606302042
Ni 1.8825142842651617 5.426416511905449 1.0696867504401881 0.501372315539601 0.304396759919379 -2.7562318448698595
Ni 8.545717639025305 7.086989481959039 4.101740352959344 1.1643148106169368 0.5355975552710582 -1.136467192277049
Ni 3.692486681853117 9.072866462152234 2.0746516536657302 -0.21992805065133736 -0.009232574341861519 -0.2190137663671841
Ni 4.471573394060439 1.1758490649489095 7.161816998360735 0.595689378356632 -0.1585411629034237 -0.4826600838420784
Ni 9.036174140562155 6.97662542431417 9.118219727495733 0.570687714105972 1.0802129977700106 1.863631216337616
Ni 2.3633578050320723 8.236953882888699 12.19572754091753 0.8846854874502248 -0.6441464454167551 -0.06241584323306025
Ni 4.219913336794207 5.385112182200312 4.751705655641799 -1.5912544609682595 0.2507607197614778 0.10213578753050151
Ni 1.399086927626562 8.364923216490848 1.2270386506018638 1.6672295309429932 0.7700153148981383 -1.6777574270575106
Ni 2.2308320296776976 6.335019154813745 10.858508201668142 -1.593228811085811 0.47733481497442315 0.41147986415282684
Ni 8.017902019544392 5.478287711609142 11.154688028835391 0.7329459208496668 -0.2721486985189507 0.7477007105613381
P 9.01067844108273 0.6288361932155789 4.650927721691501 -0.39020269994160534 0.7608598736511154 -0.010985295366910112
Ni 4.865085114576353 9.182137714661408 13.038776693380795 0.6410204981932637 -1.0954763516869843 -0.6361405443931432
P 1.1972421146392385 2.6419212429694756 2.1471815009643227 1.0055836431898937 -0.6787151845305601 -1.933158216694161
Ni 3.89784143675933 2.757758587353299 11.926439981148887 -0.8313327828606972 -1.464433769096568 -0.6519456297461997
P 7.708063980393031 5.625723794323443 8.204253078362052 -0.6371944395789543 -0.65985202907747 0.24237018170493738
P 5.78714407835047 8.875466958191474 7.8957115876767725 -2.080613296986752 -0.2969662717832628 0.9495513348856742
P 5.754461795944769 6.443253168550053 0.34973005713451644 -0.7316166605152818 -0.8536615282648846 1.65497796726915
Ni 0.8466711532138641 5.177645905506483 4.652798455906846 0.9141454445825546 1.0419225868302442 -0.3527432695435667
