# total energy = -381172.4790167519 ev
CRYSTAL
PRIMVEC
9.22475006136579 0.00000000000000 0.00000000000000

0.00000000000000 9.22475006136579 0.00000000000000

0.00000000000000 0.00000000000000 13.50135416683756

PRIMCOORD
 96 1
Ni 8.264803993375406 1.6974462326868693 13.467263143600023 0.016449918025907156 0.3924092206746209 0.017450334265963496
Ni 1.9493280292387685 8.293631336873837 4.852764562851303 0.7447084607022336 -0.3529399589354051 -0.15329919777819404
Ni 2.837376254489024 0.9972231405475172 11.177055698011014 0.25851490978559993 -0.4789396975676978 -0.1426373471889737
Ni 6.428027137904435 4.315162742092801 10.087401485745115 -0.05039516462310031 -0.8480153857227007 0.2983153296119894
Ni 0.8209769135355678 7.577680046121741 7.3400514106704575 -0.28635018683031327 1.2603573407655067 -0.7099638581321968
Ni 1.241586765915025 4.309747813890056 7.1081928562938215 0.0038342861444256547 2.1232511862619368 -1.0381839457234183
Ni 4.788521559461933 6.5137435141564115 5.950870490993445 -0.4182958586333958 -0.3694148166619767 1.3597860137774902
Ni 2.475738383394935 3.9070321314044416 0.8662289242656664 -0.8065920855809076 -0.3369965482322712 0.32128222282080804
Ni 9.330557801074875 7.776491856386766 3.040045855170384 0.6672331520328896 -1.1029040116096231 -0.8378088775033442
Ni 3.2190041586586657 4.252932579135866 5.271968563343028 0.645441767189411 1.0435524091241835 0.9807555284026207
Ni 1.5690377138074538 2.5769984632612672 5.566324798424265 -0.758717373386816 0.5401329812475666 0.8703916965353719
Ni 1.7275004679245944 9.787275169589233 9.093513092293497 -0.483761030215741 -1.051993340802685 -0.03658165577877571
Ni 6.422990424448388 1.2218734753370575 6.746261638152292 -0.49356850322446616 -0.04317062185020307 0.18222333701171198
Ni 6.4428789852748265 0.8538843639233938 4.201148522987771 1.9634134160342764 0.8618247808019673 -0.9819158672593089
Ni 2.172281010043121 3.1642368183866045 3.3663732285226176 0.3611430635714877 0.5367882331450498 0.0033452623231490777
Ni 7.402963282646444 7.320558591615566 7.407031397360942 -0.11351754700488191 0.14479784517540223 1.0365278981772343
Ni 6.962998059985895 4.266133196270668 2.7327823500017856 0.150627821593618 -1.0579451875107457 0.041919008831289094
Ni 2.5901990803960686 1.4870665860227925 1.647610443721772 0.29648598971273454 1.1151617459310534 -0.7845549032752102
Ni 4.330558849708444 3.488127012810107 10.912618094343683 -0.9002128936618626 -1.6594473158944132 -2.5895762803894176
Ni 0.09648903920796759 5.004528303576904 2.9978813682383416 0.11464703262363482 -0.4922590403844232 -0.7786045992290461
Ni 6.639873519805711 8.003808143903042 2.951625704717001 -0.069785396224254 -0.3077703043773022 -0.3234684318388494
Ni 9.759231929833957 5.593897575933646 11.114247143234124 -0.5672241810374038 1.1602491251879954 1.1472210883594436
Ni 7.736271946737754 6.2597308003731085 9.656789237027946 -0.41914046602187816 0.5127643594266266 0.38250970217272184
Ni 1.0252940545525502 2.2745558124005982 10.715821891936068 -1.5911161356181822 -0.09807421586661819 -1.5844322958401036
P 4.995119058659015 4.305375282428214 7.1339806446937795 0.662896986551381 0.17556263716208476 -0.5966131757224822
Ni 0.8375482542909545 -0.029252604469720837 0.5453736725656789 1.1401749801459395 0.8488749055095187 0.9838827611776926
P 2.2706445184347306 6.506040847973631 5.980100956063359 2.020059703773411 -1.2985842454571894 0.40996214195671976
Ni 3.306427113645751 6.37330592138197 12.325548132688445 -1.6528583498229859 -0.2525944305361069 1.6733896370071182
P 8.635039331394466 5.561878468963068 7.4590386924570895 0.5816925498569079 0.5353563857945297 0.363904942587341
P 8.04779175151921 8.778262798644596 0.4337163770650804 -1.4594928801515252 -1.6818148849563357 -0.680228535851293
P 5.353924931527819 8.606903844139998 7.37097000497564 1.0052733110383267 -1.67536527267625 -0.7091287638254109
Ni 0.2489391013275792 6.3716177921467025 5.255348331413068 -1.1059098883154823 -0.47827789561398276 -0.1411111403524344
Ni 4.9444382826012925 0.6994002444465329 2.12126537556332 -0.6593792032061095 -0.22136169777407036 0.7977377205140712
Ni 6.02163078020094 2.566223955355293 12.155052614776311 0.34494845608949626 0.31491977093788986 -0.9152813579592107
Ni 2.8941638149934548 8.516980981924728 13.16869396523055 0.5309849961997113 0.7455553820835611 0.03010658957739331
Ni 3.154154166724593 5.545393840856924 7.9724689010015295 -0.1538121328588706 -1.393943890606122 -1.2913820712817952
Ni 8.360925887536576 0.630453541073211 2.309865387667461 -1.2877645291338662 0.12318900865637494 0.3301592135954637
Ni 4.303890097691174 4.14383146183796 12.937482988298264 -0.09321020290609754 0.5121364960346405 1.7240470541526696
Ni 6.485156014155887 3.046741178661956 5.21545128801124 0.500972508998021 0.32377567866662305 0.11921845404440111
Ni 8.922842304132892 3.9029455671901037 4.934461715563355 -0.1258920094098348 1.0637617941925228 1.8682466036224403
Ni 4.6745866732062105 2.305200431633171 3.9957659233550866 -1.6804838248497382 -6.710579250956184e-05 0.1756297429545943
Ni -0.02847034567654739 7.349468957863273 12.5860292411153 0.1160058606443744 -0.8905098074414857 0.9675212891005337
Ni 5.507729186935613 2.3574401904272895 8.833436027913114 1.60121697149761 1.4640977259133883 0.20316188693659207
Ni 6.03615976132415 2.5129510245701905 0.8778133652145722 -0.23321242646506932 2.619760260171966 2.360681764573412
Ni 7.566960886715283 1.235323160719686 11.190043223422673 0.5990148431854394 0.268072471567048 -1.1665560412426297
Ni 7.960516392530836 6.450498628708332 1.4699196208724292 0.036973749010871804 0.12771620710276713 -0.6458480014888942
Ni 4.201642969583457 0.5684014157897224 8.684125148191109 -0.2490519646004872 -2.284126910835808 0.8641323458892214
Ni 3.3226442240042284 7.786629856548295 7.779345071536867 -0.13262058638292 0.3331800026996585 -0.367130134392858
Ni 8.75336519861187 4.060670341313684 9.59202319031814 0.1267445872181172 0.3564366592347538 0.6455798354291721
Ni 1.0409576799158582 5.989519425731166 8.990564883191896 -0.2949484700222856 1.0270004183027732 -0.5643571439022538
Ni 8.822975161504404 3.5480971120367655 12.053157872115518 -1.8887984596318634 -0.35597797443078044 -1.2672823500201142
Ni 4.639182083015176 -0.1679873084090225 5.262274273652628 -1.4780739855878222 1.331390750464249 0.8757146514101821
Ni 2.50468564864232 8.621451274763045 2.3471158503173872 1.0293905158015046 -2.6027801806742015 -0.6636336076070893
Ni 4.029232393588034 7.335724080483221 3.9233719309368484 0.6620829752905177 -0.6272910644223133 -1.6646252605509266
Ni 4.292515981040434 3.711338286612206 2.150455251733588 0.9190336259127914 -0.024110519894958476 0.24733369635779986
Ni 3.9073642224015432 1.630769740268736 13.158041224023515 0.2548965963067223 0.8891640920468686 0.5057964127492257
P 4.713819534613837 7.745044683911196 1.7917914400135455 -0.1133429691002306 0.020145364599623367 -0.2908071941604024
Ni 3.4406933487240474 5.573104989615097 10.394962027861121 1.2400438260191353 -0.15240548231933107 -2.0228174690242064
P 7.9043192160212525 2.065061741728793 9.176343966770654 -1.242234920133183 -0.6360757525934787 -0.010457190777581992
Ni 4.961079731456067 0.262731024932221 11.500656235287043 1.2076481832972492 0.6013026107783515 -0.30083089694499154
P 3.1476507180313473 2.25263780659187 9.09301311084786 -0.6364117957766589 1.7399518983083841 0.7453558644782453
P 1.799721035044346 7.633987919630358 10.774998662669649 -1.1448677576359187 0.05854633297532497 0.46849741918845117
P 1.1798178404540651 6.2942959383214685 1.6404548052092172 0.5490086864706416 0.46439445276367114 -0.88111679626236
Ni 2.250377742861593 5.8037329623524725 3.4930973080667327 0.5545026197056773 -0.0546030320568608 0.6423682704704099
Ni 0.3650178194645932 4.6065356930500725 0.2770745885820488 -0.14581883024074888 1.979598253324255 1.0082226234746376
Ni 0.49740036060932846 2.536916924861047 8.118579714976462 0.799472700927307 -2.6143072074771947 -0.127502034209432
Ni 2.0383653154617654 4.119607268549358 11.774652524820954 1.354496483243777 0.2541247511377042 2.371105788120213
Ni 7.0400800703132225 8.289443300410385 11.80330183064594 0.6407932126738061 -0.9191536964304234 -0.2973203126885718
Ni 0.49666238061576856 0.1339322991312109 11.650277989081335 0.5181891299866238 0.6192018596562755 -0.4910387948240769
Ni 6.687242610642334 8.155555280078786 5.416270403858747 0.2853891084686246 -1.3001865569473028 -0.11908064291495621
Ni 5.230294833106703 4.984778113999258 4.094744722566327 -0.2930183428791083 0.34651040125997745 -0.02241487736009043
Ni 5.133425734202053 7.446531776516234 12.97724535035127 0.8402365131082303 0.18536728195733237 0.5434597316279545
Ni 1.175334611993189 0.79108226647145 3.5213425698452445 -0.39063490238301757 1.8731769510445222 0.3650154020427004
Ni 4.048724290167934 2.248505118627935 6.821667511419247 -0.21643777810989176 0.8227018466585767 -0.27935087269434467
Ni 9.137142469512755 8.205027613897055 9.538490121585308 -0.1979687727714268 -0.1576011675876576 0.5878066331744458
Ni 6.5959637101889 -0.19083424653464376 9.219696601492329 -0.32913617164758796 0.06375873041419988 0.4585287380115136
Ni 2.0637702767400636 4.059710967322056 9.579170346255303 -0.22233048944524292 -1.8706654974765784 -2.345000606392729
Ni 7.031482603388249 5.251437959922194 5.87187342258283 -0.6465951640675638 1.7178918331845512 -0.7194771969392706
Ni 8.740967134720064 1.6765798483689642 5.933845292542019 -0.8967791853899651 0.7798197025830699 -0.6403579249086004
Ni 0.4389671047192588 2.7011728219276328 1.8003787597136063 -0.33849832958877835 -0.031128088863372195 -0.5238473567136656
Ni 2.256715146056288 0.5337098987674654 6.795812382344877 -0.47363319775311974 -0.06487098964177214 0.589788696601481
Ni 6.082809321667052 0.5379791130302092 0.12497045458441837 0.4885304265799264 -2.758818117539797 -1.0909494103509083
Ni 3.8667660980058316 7.831010128411001 10.28678984288011 0.39495512702492624 0.6835938527791001 -0.33367236895504465
Ni 7.292616824109405 5.672095781001233 12.647419951829562 0.2811935823300383 0.6801598873968867 -2.0960751400677773
Ni 3.508495260632359 5.9523529083055084 1.2776536931502795 -1.7033936395683762 1.4738108394360938 0.5281015040043292
Ni 7.566933212465525 3.749999213524823 7.5279900082053715 -1.0701101050080537 -1.9556162885873611 0.292451928852677
Ni 8.349127432389539 0.3116600209802316 7.673791793058001 1.3967697900906912 0.16441844761980715 0.6251115402724912
Ni 8.860741287674829 8.819866420781533 4.983916522356777 -0.6106889370892579 0.17079709745264132 1.1925833185443269
P 7.587283010787938 6.110704965423615 3.81487503475867 -0.5285948987009799 0.7082677013766964 0.25407101508163343
Ni 1.4947231284559763 2.3347934293749217 12.957856770970468 -0.3860076880236514 -2.1936778156146155 1.2851075511269934
P 2.939770978595454 1.2434040416491663 4.905068894894858 1.2224273984889529 -0.7121158714781929 -1.4103974081764548
Ni 5.301417654986035 6.050891686945588 8.58780584438166 0.9729691995889824 0.39943501717315083 0.43755110731858193
P 5.694318203557304 6.064369046577975 11.051452425582116 -0.31079032215054864 0.9170507911548078 -0.24818601705576615
P 8.652667828490628 2.3613514843931567 3.6557480986473254 -0.8789570696068797 -1.2395638010589234 0.05183421106247202
P 7.4040333536371055 4.189364827440604 0.6044000798755723 0.8827833853315055 -0.9891157274418578 -0.1260701868589119
Ni 5.624007159670889 5.466245486547629 0.8556914924326237 1.2461645942048927 0.16131589743508346 0.7760792617040311
