# total energy = -381171.5672314431 ev
CRYSTAL
PRIMVEC
9.17906812450111 0.00000000000000 0.00000000000000

0.00000000000000 9.17906812450111 0.00000000000000

0.00000000000000 0.00000000000000 13.43449403462652

PRIMCOORD
 96 1
Ni 8.611645710880397 3.118221247286702 7.877436831621337 -1.0935693644722586 0.2953981559651945 0.17500959287209214
Ni 8.532861768796085 5.983779464186268 4.744257374848372 0.3816926055880652 -0.10897826437363166 0.3036583390914577
Ni 3.7441051893769877 4.122539811799455 3.665695753273922 0.25851233868243867 0.7966712269227699 -0.7878204614003593
Ni -0.02403814371786057 3.1702114893891773 3.3833164076003186 2.304110810156903 -0.12310133403857508 -0.3704741111644265
Ni 1.9187465144581428 3.5511336392851205 12.776445952524448 0.7066311942145379 -0.3756831661691917 -0.6113695080960503
Ni 5.773037238121521 0.006190363572370998 9.999871458257266 0.5871651429357049 -0.17695103286917913 0.9511204791450073
Ni 3.376391718574523 6.472775962690005 7.6007530977458595 0.09359612549060654 0.3864442613404377 1.1083408663544783
Ni 7.120423475406168 6.809455004017105 3.1873469738448446 -1.249446607390274 -1.5290355642373539 -0.44826669396387314
Ni 0.06548347230915584 0.3129364636042423 0.18345652802911583 0.3053442114343128 0.10102532807514215 0.6707599342392254
Ni 7.253933021906963 7.588454982214627 8.940064508763285 -0.4718640216678389 -0.4625915952269775 0.3533665049498624
Ni 3.899341590230989 8.359588498992338 8.940440850558165 1.2284813179925167 -1.8334513503201264 0.10841262167814877
Ni 1.6813299162977398 2.786774274815254 10.191031060292808 0.5284835699340963 -1.0928638537648017 0.3922063606351955
Ni 1.7276015989316693 3.8412656259332554 6.877977665796623 0.7838357657209986 0.5698402785040122 -0.9437563254704521
Ni 4.468361205021692 1.96968116372132 9.628085234908742 -1.6865511140897405 0.1814484065189004 1.0955318875152682
Ni 7.871005058556152 2.316778447418884 0.7481665703150326 -1.2947548444087702 -0.5059146834946447 0.3374531761537156
Ni 1.4349820848100576 5.017462241888248 4.0680455199008 2.2699704168297683 -1.6138814543391562 1.5680325143258416
Ni 3.1178173682873185 2.061086324536371 2.027775486155389 0.6500268154569321 -1.0169497189349905 0.9356100422142339
Ni 1.634241296596875 0.8464688829513761 3.8871095639905655 0.3803090949769773 0.501444049317801 -0.27238909666453087
Ni 7.459030121048508 6.227942677450012 0.7729298604181503 -2.0729562946621267 -0.5712993795480419 0.9955599404053048
Ni 4.467984863226812 6.6898425667223735 3.8755421022854915 0.11011777729471357 0.34755478336409174 0.02321294778135357
Ni 8.66511378295789 0.673525141694853 2.4246848190792063 2.5288576223531223 2.9367417987348907 0.6401460660081105
Ni 0.8243170377420004 9.152311184100736 11.635629136915462 0.268318526139583 -0.5641437423398672 -2.6239768693564742
Ni 1.7532295572561947 7.153816925400661 10.054765039621218 0.5112756906962421 0.009825984951486302 -0.22034971156978825
Ni 4.597152710484234 4.686868922756407 8.59242015260292 -0.7778391818179313 -0.25100651722369677 -0.09578284872928021
P 8.874653551092655 4.817441167443503 6.5629786655750735 1.048846310533271 0.8103988609215076 0.38400582710227416
Ni 5.695758663216728 5.751539860472509 12.31722818697072 -0.5921355995671028 -1.2846596649562971 1.0617077398769714
P 2.050411068257208 8.561564714956827 8.012385656010844 -0.48738757122473475 -0.48185147189785404 -0.8478523777822752
Ni 7.6235465598201655 0.44062923460709624 11.839618322529152 1.3891510972031689 -0.3299815503670188 -1.0987653068509013
P 5.6443191652043225 5.255438763206888 4.628465265725083 1.6352879450393905 -1.832901134243611 0.6094764048383955
P 3.740470278382535 2.7212908025060982 7.541010214668852 0.2949677532959952 0.4321175950078365 0.0912538505106751
P 5.1231775699769155 1.3615220022630747 3.0762573013439254 -0.5911963755822851 -0.8193519563497373 0.49845488478249
Ni 5.520998384369797 3.170404249820701 2.0878543231273383 0.520886988533761 -1.9925859238331747 1.255662763503315
Ni 6.41592081445859 7.431648960703931 5.441628817736378 0.01633010461859123 -0.2682794453715315 0.9863867585464688
Ni 8.987271538443514 5.938177853528589 8.875082213576091 0.681716176140413 0.086492938786922 -0.4525632644566979
Ni 3.3871863027398676 1.2885575893971541 5.791879111349584 -0.8319267076909542 2.6868408558705466 0.06625527158380846
Ni 1.9139733990108818 4.889882373423859 9.015566933977606 -0.9195715006941325 0.49712948110284705 -2.2366918572822962
Ni 1.2652978306599236 8.798448927163497 6.023530336793786 1.1761837941403808 -0.09504751322515244 0.581190927630141
Ni 1.2253597050617828 7.2673711777046375 0.04471032313858525 0.568298645048505 -0.7962277116274481 -0.47602715190659317
Ni 7.475524906546062 4.367262948221434 2.477360737573817 -1.936227599648104 0.14877662731749217 1.306610972416408
Ni 4.665619379947927 0.49450393940442283 0.5970478994411113 0.25759522618480796 -0.48654604916004596 1.8966202696691272
Ni 6.733287096360618 1.966257371294727 6.409314639098217 1.8492160693535507 -0.3706381475461165 -0.2949721241713694
Ni 8.844885833024447 3.9163136872732696 10.246556161546705 0.7284565176197454 0.5852033912236437 -0.7765569726713981
Ni 4.110377546477106 4.789674486235879 6.180284037615926 -0.1146362339903574 -0.8457049924219694 -0.32156530127886557
Ni 9.102441306745025 1.6099901984975211 5.354344140621857 -0.4167922775046757 0.24182125118000286 0.23998779751568994
Ni 5.291007652357151 2.804875397242175 4.968922411510053 -1.3600058430977804 0.8285739891686376 -0.8916922577853611
Ni 3.760076767988977 8.387373538336297 11.348936547109805 -0.585653848497501 0.5645029254514987 -0.04454461937959425
Ni 5.167310529727746 3.8358958710550866 10.982282340773907 0.016014887371017583 -0.32335504618943667 0.6412881500323536
Ni 3.633102718023663 8.33585142871038 5.856834787239091 1.4197500530359486 -2.4110581601434347 0.6184647243799349
Ni 8.849787455426057 8.429936877430432 4.448859356792363 -1.0140374303842021 -0.45327057493636774 -1.3848918077061825
Ni 6.901778071648937 4.73522425386443 9.657506902107023 -1.149251231415595 1.212560532997202 0.37526973278085696
Ni 2.9757529302541244 4.549706107124824 10.779260628945103 1.9040124483681404 -0.030580958110650553 2.1688353026496388
Ni 3.6442552858475517 7.584030671357744 0.1329073996289867 1.0099416630482736 0.10267469075310705 1.4308073392913745
Ni 8.837322280854172 7.222898592431599 6.655300815300088 -1.0031549791437433 0.45758411471005717 1.5870975013770927
Ni 5.686698922935101 1.2561004043557782 12.196008494839806 -1.9364962799284586 1.2862272665537333 -0.6159704972031714
Ni 6.972043838473521 5.55036222343862 7.448621057746211 -0.8967560454615138 0.055574394831194605 -0.7299364445993817
Ni 0.24539045467777956 8.749965089101124 9.146781713436447 -0.8660768712101019 0.45388532570223117 -0.13951988460591458
P 5.408251890064587 7.43898303617001 7.6982871223765565 0.5802725295809297 -0.4561846632593692 -0.7548254945315774
Ni 2.0188534318962774 4.096608944225391 1.8342788933643226 -0.5283192764420901 0.25987605179918466 0.4618696294592884
P 8.123677268011456 6.388392789023329 10.804503984313397 -0.19458237279769713 -0.190929092315826 -0.7481557958208858
Ni 1.033847626808597 2.210907075171364 0.8536973991335264 -0.14944562836005876 -0.26411862912562256 1.4886052241364491
P 5.684798855824364 7.53299505234472 1.4309616529525568 -1.0918937765420484 -0.5376832341554934 -0.23509164576565317
P 2.795356703552156 6.445752786003974 11.88889614998804 0.46789295283523297 0.18834796185221112 0.2259583160058173
P 9.02869667308484 1.7107121135028993 9.673883277625215 -0.23172247218310413 -0.4683994601580062 0.2343336845537061
Ni 8.881739791718203 2.514376247867327 12.003182891931807 0.8326209055445014 -0.9500493575680155 0.8249032251852697
Ni 0.13943004546903243 5.71176695810139 2.612041533172825 -0.17329698105635963 1.4907893762719617 -1.6079278078588826
Ni -0.21189970656070836 4.472886485628423 0.8495126619558219 2.419996343173329 -1.4714366827769627 -1.392274730433815
Ni 4.912683178752699 0.6911535421111318 7.611796434658552 0.7240056809372435 0.32510545322164014 -1.1323030335970306
Ni 2.6836933392907487 6.434581860043748 2.396014917563869 -0.9842530000329178 0.23896861222255616 0.05793980973957763
Ni 5.842724723651533 7.95529644154115 12.234619327180882 0.5228592817687834 1.0299391892161232 0.37488432441698016
Ni 5.088728527143124 5.2710982535011714 1.7665961163221595 0.35525086645676884 2.4161669421249097 -0.30692569698881983
Ni 1.782657649802193 8.684316393564949 1.8004375048432408 -0.3677024619565603 0.9421126192194419 0.11050447121017097
Ni 7.371434273523097 3.9856156519402344 5.196932300612084 -0.24327752401055522 -0.06976277051643469 -0.026121893898032433
Ni 7.906408724479395 4.787104347148891 12.348221310639332 -0.7321820461004487 -0.28124886104800595 -1.6293643804661033
Ni 7.370075771434262 1.9802187339779658 3.9053667305763393 -2.237205306583605 -0.5809173622537802 -0.7948172044331666
Ni 7.098173414167397 -0.13321765213305867 0.7732226726927034 -0.9233039711533712 0.5758435472752986 -2.857015746358157
Ni 4.533725349444667 6.2775555408970245 10.28571773797785 0.22183426653511473 0.8627406077480174 0.21125391991610715
Ni 1.1931136385882666 1.7120889737280707 7.283981619461106 1.0657621124520034 -1.8986131317294401 1.4757659062799358
Ni 5.967303036825049 2.906717158564026 8.245904821827196 0.704759945333754 0.8063133779982243 -0.11807688424079019
Ni 3.2140874352313085 5.32835728073197 0.3873337290111583 0.13105298478548397 -0.5996205950902382 -1.624416806652841
Ni 0.8812924317664133 5.388828981821502 11.695210468392716 -0.16989232625018483 0.6341330270448111 -0.3214100066479239
Ni 2.473318275952714 0.49204303122863297 13.139378964625118 0.1470694148183983 0.5834254733876145 0.4912341986643346
Ni 8.245143877076083 7.509010147222233 12.601864665506788 0.5028671549175727 0.11901893643908533 -1.2953197157733047
Ni 8.78627748277298 7.7985179572349566 1.8248749380264013 0.7134962967654873 -1.2376766113385393 0.11859624707936994
Ni 4.387879135326335 2.848044554835385 13.592483470779083 -0.5911498386150658 0.9845972707462141 -1.9490687172768304
Ni 5.621839627261356 0.45389941345729895 5.040097823990068 -0.4618984258146948 -0.679158699825882 -0.3046952649964043
Ni 6.728963755253579 8.986362810694901 2.8950927866363116 -2.466812275085603 0.34797413028969754 2.45336926220682
Ni 2.508005974558867 0.5574181905334087 9.817498060271951 -2.0814738452148345 1.4382532540464583 1.2061973097833356
Ni 6.9394856836823 2.335705685980908 10.427962085747133 0.4358066138236494 -0.5117783413642735 -0.6026107880668138
P 3.305547670455366 1.9323774306873407 11.763928644324208 0.274140789248315 0.7676573561889231 -0.9072011520542376
Ni 1.7470520443792585 6.121722500612115 6.069140208612816 -0.6443991848575096 0.4883481353657912 0.4858698490286277
P 6.4797336963612056 3.8768528732198546 0.2092570528351959 -1.2087496438915442 0.6980714775699849 0.22488230933281916
Ni 7.2972215073863556 0.8243473286669543 8.353125517095382 1.0723456792067918 -0.16730451091835055 0.5343662539671185
P 2.3172190426909385 2.9061480563376216 4.669937213614065 -1.1718669119325817 -0.24814513651550166 -0.24872054940299748
P 7.777194981881134 9.195865862556994 6.2562692818158725 -0.14440035262666745 -0.07831374541023933 0.08043644818019695
P 2.346179002760379 7.409169422760965 4.426652437173981 -0.6279937469162926 0.19317289404468022 -0.9636605205935469
Ni 3.6787869402948528 8.663424834415013 3.0661676696138684 1.18869066835814 1.7716194046149942 -0.013029065269816271
