# total energy = -381173.6991952048 ev
CRYSTAL
PRIMVEC
9.19933965257040 0.00000000000000 0.00000000000000

0.00000000000000 9.19933965257040 0.00000000000000

0.00000000000000 0.00000000000000 13.46416346504826

PRIMCOORD
 96 1
Ni 4.3977533799716 5.869638478093089 4.490810217192818 0.546569995122162 0.19998631742208783 0.13381614935291794
Ni 6.7195378434650594 6.657295113361183 12.37217862501924 -2.4704776397523323 0.048712120493722554 -3.4541290016455095
Ni 1.4777818746506917 2.035703408103226 0.7599252267699972 -0.6837918277225191 -0.34230613337064275 -0.5857957733920041
Ni 2.1765544930308702 4.71708084780573 10.512818273025117 0.035267564953042486 0.4190959859371879 -0.28867009321274156
Ni 5.240265675838189 4.760115357327742 2.2115294613403473 -0.28124911815832204 3.185039144557541 -2.6182898462740263
Ni 4.202644591503805 0.9593807030849809 7.325487287843741 0.3407794123134712 -1.331880545616474 0.3500173859719714
Ni 4.568281533671797 2.7326821553083738 2.66325198136321 -1.43450150031351 -1.8061156386196506 0.658312452504492
Ni 3.1073160513695965 4.906072075599703 6.247304476407081 0.016528850892958632 0.4805921455694562 0.13408277275074326
Ni 1.8373656515203767 4.163823379408275 8.260936829519881 -0.7909150411652831 0.496141406157965 -1.0688484646868106
Ni 3.331807529750453 0.9557285653594061 13.305299813903583 -0.49578839369392036 -0.6346320781684166 -1.5171740369130775
Ni 0.4032171633839761 3.0727449340579844 11.893460643647009 0.2446589777391141 -1.445554415693562 0.8230538306813567
Ni 6.086062135855989 4.076227270030636 4.07741950441158 -0.27541657063694497 -0.0956506940267901 3.966724953815072
Ni 1.8332443474874864 6.578833947967162 2.9227598250806603 0.9023085998486267 0.006167048042660347 -1.0685517593819984
Ni 6.265992014381218 0.07789080635375627 11.085005222021854 -0.013588537317712082 0.27288300558181394 0.8089050499848004
Ni 5.834478603062492 0.8701728694516225 3.7125139097226376 -0.9284965710979042 -0.3485996796888383 0.6168387587407376
Ni 0.5167535698864905 6.050239908391535 0.7555996974033341 0.14944459991879422 -0.6190985013091919 0.8124557434505363
Ni -0.13345757588471102 9.200627266640579 0.562528562603587 1.3973680857963227 -0.24342613377327757 0.859168574126043
Ni 8.470402106991534 4.87955957956669 2.931713542078902 0.760199357248981 -0.3220396698121228 -0.1301790668209629
Ni 6.410752818536492 4.114974887411293 12.5180635884442 -0.8073875848990095 0.7181047420717762 0.46083758865034824
Ni 6.805514869115491 6.99053198230632 7.933461506815368 -2.553078699684016 -1.05968890967473 -0.19832178523547134
Ni 6.49888248959696 4.2422753454629385 8.790294414262316 -0.32521086845125285 -2.1961797561008627 -2.7431909525255014
Ni 1.5311656409517247 1.449990670446759 10.7690686306755 1.7295702979637437 -1.1975494043003505 0.6014653616084609
Ni 2.2686582786944824 2.588776889713499 6.2771544927595855 0.41352440538668134 -0.3900512619654056 1.5556755354223855
Ni 4.005281964893023 3.4247300566170282 0.28791632359238056 1.0646174573245988 -0.7029966827857442 1.1515443983251459
P 1.391749652964105 8.822433226247373 12.265745028435909 0.031746439173661455 0.575956418704079 0.29844748431447954
Ni 7.37280133003562 0.6405371205011401 2.0728347015584836 1.0949631594959917 -0.7415465180344841 0.1038147178948212
P 8.684498331896574 8.033221902627584 7.890928361288428 0.023673689467856 0.9105986077715608 0.09952817470432536
Ni 1.0401141053007084 1.8379912065967976 8.319640573772299 2.1599277157473638 0.31615878555131355 -0.18314070661965878
P 3.29397064696635 5.529943672917843 1.3717962858941513 -0.23567580040389735 0.2775462153854381 -0.488675436798223
P 1.0069504869110435 8.816150077465087 4.924073342857649 -0.8689395374698776 0.6679900848035721 -1.324872489729757
P 2.9415623547967864 0.42351458574596124 9.044161223084748 -0.4526062018794915 -0.17876083238440826 -0.17209961831414877
Ni 4.0747369770544575 0.8853756976765212 10.883419178711296 -0.7061205731267065 0.2698110515247095 0.3664500776066979
Ni 8.93902565328499 3.836124512757335 9.72542105912695 0.3252530345430979 -0.7196543459470831 -0.5210934481176123
Ni 2.8559257047026425 3.380140858743324 4.185227482295163 -0.37105312359634807 1.2190276287787845 -0.2057766988516198
Ni 8.855192073705236 7.390059290673348 12.530975781168674 0.414539476914757 0.48339644778747065 -0.8352107777588648
Ni 7.409534292096628 7.8576341122798645 5.684852268320173 -0.421937312040725 0.29600287942872894 0.6624123336054786
Ni 3.182667840060233 3.134325311728003 11.64487149581491 -0.2371899230555786 -2.2800866793281633 0.9616239497794922
Ni 9.002353905433244 2.443077752943593 2.4800581772333614 -0.4704406589577511 0.23017312541811324 -1.8897988758719195
Ni 0.643351198411098 6.3766048708354 10.419835030518772 -0.4575987699980764 -0.1978265907666077 -0.3088411688439778
Ni 6.767806777082416 8.601005127873107 13.543601340530365 -0.3829434472760308 0.7144771726215179 0.28678933125026096
Ni 4.23463989379486 7.305581757338455 6.909632991982128 0.5773407006461153 0.07457947517878769 0.16064329684809106
Ni 6.614968952969825 3.172806148267245 6.399112894445384 0.2075114221545394 1.1406205523237902 -0.19061644617141366
Ni 4.882448172125456 3.999458783078694 10.54121479375888 1.0677398050036644 0.029127256383259515 0.6240609875207898
Ni 7.382497433720143 5.550835372602428 10.111141998983795 -0.5517795643475594 2.0822359201918395 2.027965331773733
Ni 7.340143675310708 5.624678469638167 0.6454863650763522 0.5319969824039934 -0.606686243687768 2.525109725274916
Ni 3.3088735767281414 2.7199962663321338 9.2833790039117 -0.6916828004348217 -0.6672218391789799 -0.22302957239479654
Ni 2.0720223998930725 -0.06691047489469833 6.624085498274723 0.2895157290424885 0.8019916106944188 2.085108099533312
Ni 8.600407170814764 7.512336909434909 2.4906006201389244 -0.25283560001263555 0.5929316131058369 -1.1652460641819544
Ni 0.8617002779018634 2.0953151271503905 4.528698616277332 3.1003182100693767 -1.629979131231967 0.2824467380108491
Ni 4.2911054387812015 5.3164086077137105 8.73744696944592 -0.678478900150038 1.1453071591661823 -0.9781607710922509
Ni 8.32818951983874 0.7346537216165303 12.080989176482879 0.574690664617778 0.19069486481783288 -0.9426294109548604
Ni 0.7701723708821324 5.517892538357382 6.207773995246961 0.5747135474359134 -1.1483348902489128 1.0751944615094966
Ni 8.252202976732322 0.46806974606403695 4.297518298248452 0.33100047854983644 -0.7427132846490757 0.16998231486082982
Ni 8.802139483621131 5.919213717899441 8.226630653181813 1.399348606561461 -0.8750212248875834 -0.06481339693095933
Ni 5.543135525558836 1.9585485488982002 9.28188411126584 -0.42161361015271903 0.025392471931175626 -0.6119117537527655
Ni 1.8677970661203798 3.933462722516293 1.965606282054525 -0.2945926293447636 1.1837142981894713 0.8905167494200211
P 1.242287986396315 4.976925387343725 4.11505216186191 0.41810482566851215 -1.7179846500086737 0.5392438937743939
Ni 2.9689395887295587 0.7876612349377751 4.282492097339248 -0.06757810416029007 -0.8063439741258436 -0.4329377769162866
P 5.356462531283364 1.6849509970183059 12.75835769197617 0.37927782549898553 0.14494722626907294 -0.5436265962231218
Ni 8.16538881120021 2.802661529813278 4.5448149389005925 -3.977498390281492 1.9903521494066498 1.2784059707371016
P 6.778073239807206 3.0360211713363365 2.530535872230845 1.1024931493244496 -1.945318506205779 -1.498952114588412
P 6.520399744357966 7.332462226945834 2.009202871211379 -0.4626659001083387 0.44540685591757484 -0.2201123987480016
P 5.010328188556727 8.525901721345168 5.280483347648435 0.15246101814761484 0.4852833803975384 -0.7828482049967486
Ni 1.0257171392036695 8.429860618435846 9.482918194214852 0.6330637052400323 0.9667784973972383 -0.7386663682732116
Ni 6.484963889146596 1.019691571923439 5.920381114064115 0.10382988740347279 -1.8288454761169985 0.45357216533718664
Ni 4.900598468681021 8.274768956180269 9.33116313234483 -0.46513107381937957 -0.48542736217457044 -0.1512731684871008
Ni 4.530297461457948 3.309121958890838 7.248149361785469 -0.8508281725811477 1.0476268363038732 1.2476987714612318
Ni 6.8354403200507425 2.456260406245227 11.068148352580184 1.0040108993861352 -0.1265926350212852 0.24311271629791678
Ni 8.737403732550932 1.1618305643613613 9.787665629098697 -3.2314557841488667 -0.18049786968017298 -0.09380849861172877
Ni 4.554832099528749 2.1524430245705894 5.325264811714745 -0.0023019086602992615 0.6662957278202847 -1.1776272114551267
Ni 5.14325864229616 0.8373358276092069 1.4179650103358186 -0.4385432960285222 -0.6016191135775059 -0.8614748536617164
Ni 8.627453228530605 5.0141551137301255 11.896315198650147 -0.18087145096950785 0.876880132473193 1.6841314489046546
Ni 7.683297432084986 7.82785585077436 10.065458079726355 1.216481465318163 0.5152927822754352 -0.2178871089619086
Ni 6.678288005778719 0.1984233104388892 8.30286465851699 0.6253367689094198 -1.6269159189256108 -0.3937870748587541
Ni 4.338748817322138 8.012753372553519 12.280919338708795 0.1110711423469184 0.6987996139852609 -1.741451365672046
Ni 3.0443649721350674 7.142054300890555 10.370381221991959 -0.017995665246472236 -0.27949408314042834 -0.24032384069886997
Ni 4.2106296180675304 8.016718287817305 2.990094389519814 0.5000798219804227 0.3045844504501528 0.5735411243943671
Ni 4.280838976056412 5.4891905995568955 12.538272697148336 0.04237640808368186 -0.4598099187167823 -0.6821743467237542
Ni 7.267763273233071 2.313394665997933 0.3890593801102746 0.1190770433705304 -0.16414231114028505 0.027974887946371173
Ni 8.729289915236178 0.840252938119987 6.874330527191465 0.360885696145043 -0.8587281441545146 -0.8655477381795093
Ni 2.0399903002445807 4.528678377730742 13.027465966248808 -1.1092507797632574 -0.633997015687579 0.6166019601395832
Ni 0.8841567852114364 0.2406915149922852 2.6935601248158005 1.0144207818655497 -0.1430006440656634 0.36256539784031105
Ni 2.5239215472316303 7.7489623164304575 1.0218681356158092 -0.1702507380308681 1.7000620040919818 0.3942755844593984
Ni 7.425366355133691 5.301064109662681 5.712279178685485 1.1504339388697864 -0.5770069714557805 2.1320541292655473
Ni 4.805771678567106 7.100896456597806 0.7130821907533057 1.058711376252809 -0.9176843109737486 2.0505002796514558
Ni 2.261556388709234 6.541769809689225 8.136178148933164 -1.0118170256941155 0.18311525269836207 -0.17316045547849532
Ni 6.870342613579282 6.3061931273806175 3.9081884575610184 -1.1311388380856005 1.8475859899492955 -1.9183234656741739
Ni 2.4677319824260624 7.186422714619641 5.234691796120491 0.250659161186607 -0.15221419224413138 -0.15251912507905993
P 5.114878680373242 6.192314505453943 10.620114767640334 0.542745222059433 1.1694212786055667 0.11727264317193996
Ni 8.855808429442298 3.4860896501424277 7.155300429633767 0.5965324430832178 0.10077798795102645 -0.15245896126508582
P 2.9121796648837246 0.7644577412722406 1.9807805923274104 0.5947632669979369 -0.4034585365102471 0.5771794924779028
Ni 9.325738281924751 6.833085289174805 4.532939511721891 -1.5532065050566022 0.8056145521589867 0.030697429083856816
P 5.492566757101696 5.377050652769097 6.722010625884793 -0.5492182313782863 -0.27466915094795924 -0.020718720604590124
P -0.3036499536983011 3.8463633774640478 0.4616256088429662 1.0678722168164705 0.45433912541019816 0.14655545129645725
P 7.397115183961802 2.1202361374742744 8.16170631565475 1.1009206626310073 1.8625279559711083 0.29856241262578903
Ni 2.1547796567678086 6.692077815478055 12.529359457243276 -0.6755840951007461 1.3872045149997594 -1.4881907623068498
