# total energy = -340869.839291289 ev
CRYSTAL
PRIMVEC
9.22343089959365 0.00000000000000 0.00000000000000

0.00000000000000 9.22343089959365 0.00000000000000

0.00000000000000 0.00000000000000 13.49942344023710

PRIMCOORD
 96 1
Ni 2.3406392272764376 4.7422545547831 12.71464769060345 0.4528340016195814 -0.740514477225544 0.637021661446516
Ni 1.8375379773660043 6.951810385225177 13.30782588688484 -3.306664922491853 0.0357038811595127 -1.442948859749915
Ni 2.295868694752233 3.4271132443115913 1.9627082327909575 0.3480363509862006 -0.540116011966702 -3.131561741464691
Ni 2.6294248418897115 0.0958664938092447 5.646268821406158 -1.8801492685972976 2.676157408014772 -0.5282375153615613
Ni 5.129269706146019 5.732482072664964 11.07229410861666 -0.6975513434004567 -0.49561715822337865 -0.6344711271105202
Ni 8.944237434012475 7.335938602785031 1.3523181925162784 0.4331763752896539 1.780466570592979 -1.3468641635095
Ni 6.361188001585412 5.504211386747879 3.4877785149278764 0.30817422468394023 0.37903357069866334 -0.6185282306280186
Ni 0.45102483794403253 5.1064786089339655 1.5276491533552474 0.08005746757422341 -0.3140733637771946 0.470104615774571
Ni 2.684986788310356 1.1938163032973472 2.7139917107720093 0.31386356175923363 1.427835401147244 -0.13608077701737853
Ni 8.084023395006009 0.4307332904464533 0.6101114926681211 0.7886547843761965 -0.7972641233117623 0.06731610874815504
Ni 4.6265097231707735 2.2693882252678925 7.485794448083857 -0.9176992233720841 -0.8127807308901227 1.6100898485072077
Ni 7.575655566176886 0.8976344196212053 3.277768377072477 0.7622081601488938 -0.3847069669343568 -0.2225078955633716
Ni 7.229915267110179 7.616109533142515 10.029220944649625 -0.0970491170362135 -1.2739669611291415 0.6434190803324273
Ni 0.5184342810740585 2.3175898740053236 9.836449398736487 -0.22479437760470317 2.6184885925483936 1.761510598315766
Ni 3.3951263867108614 8.175667402249623 0.7802017001943062 2.0559749296127814 0.545136605109745 2.524466692374278
Ni 7.590394608404673 3.3074115609372354 3.698518226150121 -0.4118295341827617 0.161524928122096 -0.22498746745211576
Ni 2.330705592433304 8.376830425396077 3.3783388205288873 -0.645679851342146 -2.0035545070295364 0.47473440123709854
Ni 6.061149801541662 0.35179179193632576 9.491836202898963 1.9470105491962209 -0.061118207467559256 -0.4236748635571219
Ni 3.340385325620802 0.40306484309043605 12.389811374831522 -0.7255748251965762 -0.09805956057859887 -0.9741048558553225
Ni 5.418986887258047 6.352942254556851 0.7910004928352907 -1.12056466211418 -0.4116714113383426 0.6682083714619653
Ni 7.198158995276469 0.15211281878639799 11.67358523452481 0.3854597859399813 -0.7434452777190939 0.6229065622013723
Ni 6.193072530567968 5.082479242302738 6.498594982494474 0.4776415475815645 -1.0129118014201912 0.3169532564281509
Ni 6.380824685504661 2.4064576286140396 5.884074689960969 0.5331902313811463 1.1530803753536982 -1.155723726513816
Ni 3.666193790986477 5.174538303926982 2.800751911470181 0.43708753741860207 -0.17677336964073426 -0.9446675244308117
P 9.045363127995865 8.149297613933449 12.541301612046972 -1.2162174130234988 -0.25634952670316496 1.4849809971203005
P 7.087726859736234 2.2336843251028338 1.6611038942176215 0.04036374852902726 0.7739082221946414 -0.6988932021403319
P 5.1996168119478545 1.2753145367921699 11.515412621781183 -1.1213113104722174 -0.03967083622706071 -0.10799815984854948
P 2.313098063263814 5.806795253659507 7.281319290979956 -0.41599215020088354 0.6363331200199235 -0.7883056285668939
P 8.383443625194152 3.461691885933602 6.116129749486352 -1.4009241785786968 0.9557780325216766 0.21458144162744336
P 2.8706821182052478 4.498257919555392 10.610357952177338 -0.5098425577941412 0.07656899480499071 0.10284592622364867
P 4.224866210748235 4.42178645578156 0.6865672766097952 -0.01710092134634474 -0.48644114815106543 0.4226788181924398
P 7.6272422139741405 1.377030530339126 8.340416321068602 -0.803101813039462 -0.03201383390243519 -0.9024278990353104
Ni 8.746496303648566 0.45602947143138994 9.962938604748782 -1.3357346292552417 -2.3505796431424035 -1.4851419481781971
Ni 4.645878927600281 1.2206841568702782 4.276968448320542 -0.2329925971447794 0.37664578719277714 0.021152465707899054
Ni 6.390306372244438 7.992656090682819 2.590336865007898 2.267313438822895 0.08949932971341361 -0.6911870917453258
Ni 0.30014611418271453 2.233785782840322 7.549295923634463 -0.007048422206349151 -0.10354063829782813 -1.5525215631744358
Ni 0.7693872277211646 -0.12351188258856016 7.440517549215282 1.1843179932117411 2.108029484216176 1.88656854186008
Ni 8.570992864655867 0.5038013082990997 5.736769123245361 -1.3270784962421402 0.31355142983545353 -0.8448616705850677
Ni 8.38842427776174 7.66320437019826 3.689730141397533 0.7300755412804072 1.0291380334710662 0.45703878372954837
Ni 3.5210262155026593 8.752749789650093 7.810402022774903 0.3637175091668833 -1.836456198584721 -1.9659433815449818
Ni 6.667470464200008 4.303034785767318 0.30938799172479375 -0.14716943073137234 -0.44838445048866005 0.06742358086029679
Ni 1.2544142428696634 8.620790166901063 11.109525408902446 1.7678445109535943 -0.9096406147336655 -0.6499147153591002
Ni 4.4451401822651375 7.3003730540801826 3.209582321079134 -1.4128924066841666 -0.048551683656458317 0.17066699963268028
Ni 5.865705305417252 8.70594087894545 13.933969546762185 -0.7174799640035837 1.3703133956713756 -0.7818508740804857
Ni 8.639938008994232 5.482480984064108 4.542461211092732 0.34921031668964375 -2.0254798463477184 -0.5464931191376394
Ni 1.4778518511100522 9.37386483512031 0.6978152503249306 -1.2008167621977126 0.5874950154712979 -0.686562962709753
Ni 7.33221233679002 5.179850999999076 11.226497879138376 -0.42046664103246945 -0.23070817198597685 -1.7617268280916303
Ni 0.4355875820137151 2.3735115342225157 4.73904018919087 0.6919753919745759 -0.7802151382492757 0.08125457320611812
Ni 0.43035051807320357 1.307836353372381 12.009937003501616 -1.2027394331417223 0.18061742597717279 0.9146203273364442
Ni 4.2108834898362675 1.6040099359609101 0.6694781042445613 -0.04566613457854715 0.028005998294622737 0.03744863176476131
Ni 4.497003532982815 3.0238095143665245 9.877946535712104 -0.48488383096627463 0.7203811968107787 -0.32401119171619686
Ni 3.673858461882154 5.2551418646457755 8.802500974741884 1.6882688681117957 0.647277277736253 0.10045737138681408
Ni 0.2131313467977547 1.9347898304634927 1.9813100477878292 0.8787287556461575 -0.12468436225497881 1.9554013443630778
Ni 6.67533805057066 2.703092382736605 10.721242035820929 1.7431698910250495 0.3241639152439772 -0.7672783755829495
Ni 4.010624362896522 4.126212396187277 6.530318972320802 -1.2169468349903556 1.4262127779421567 -1.0326576165885506
Ni 0.7541418191490061 7.8238027452109185 5.766372646358192 0.4656141841033852 -2.783580412086142 -2.294291510073636
P 0.5612273100603169 0.30243813670687286 3.7052540975762494 -0.6983828381628165 0.4086398236008704 0.38980932115792866
P 3.86731992041021 6.787817787722014 12.756873478602843 0.7093881881343848 -0.7413444293260071 0.0020733375892609453
P 5.845616673394648 4.388203944673067 8.797898482832206 0.11951207402542 -0.33521605929308074 -0.2851836773260379
P 2.0283523112886943 0.32275458746729 9.136949949969257 -2.4964730353748297 1.278076869532457 0.8806059180642124
P 1.811629360583868 6.776860352073321 1.9574564113613568 0.737633299023007 0.08699738922716631 0.8864479786672863
P 4.641922075838252 0.00954256138227064 2.3115605173693385 -0.4173607484136361 1.9180164759567162 -0.22502731955111568
P 8.830909141238495 3.7172547032349312 11.405568018775307 0.10507481555416742 -0.8342700111121504 -0.3005385625155534
P 8.912923886851438 6.724305244054591 9.08162873508938 -0.40520585821865696 -0.7066414786271831 -0.376257550615423
Ni 6.38428347200993 8.986554533975609 4.818781359141016 -0.3283077622090217 -1.886642075410493 0.4849252257271712
Ni 4.799910219968267 3.5577354696119166 12.23563435225878 -0.13697732068971893 -0.3490498798523795 0.6879994380459634
Ni 5.453676210048226 7.335043930009001 7.143530460040713 0.8384701652364269 -1.4794068454666327 0.9682931342695515
Ni 1.7821512761282938 5.998956208461582 4.152733448766614 0.47123770093774975 -0.047560523387782605 -0.43429043428943914
Ni 6.889616792145096 7.056108939362733 12.571999034038537 1.595236328434143 -0.06273517424569196 0.06011470590370937
Ni 2.629406395028351 3.4447115500504 4.227574209996094 1.7504977921450307 -0.379762735555204 1.403875805007853
Ni 1.3287550941562487 4.369120666594662 6.059432398748912 -0.865471119305303 0.38098529510839546 0.417302641482191
Ni 1.1337533227045131 4.744634199898725 8.97491640914268 -0.8586312135653341 0.592525893026986 -1.6091938190554997
Ni 5.751177966654779 0.41637517590577994 6.895100121684783 0.9161182520382094 -0.1703821214024098 1.310697998001588
Ni 2.9346650568373867 6.916567656594154 10.800456547879204 1.6854632803422003 -0.040469420868956114 -0.16592948494769488
Ni 6.64938331663512 1.889714924726825 13.021894924067249 -1.0022568928095064 1.3886661871469503 1.1288071046286303
Ni 8.871270873897316 5.420434965874919 12.887642356450993 0.18798029410014722 0.6500494411647514 0.3309858232618171
Ni 7.855374548431016 8.264479816274253 7.63215553549776 -0.9010608434844546 -0.7370740840854274 0.4645057815305549
Ni 8.891405623073323 3.0456505982184643 13.590814575315285 -1.7360983288902487 1.1421830117149039 -0.7719415853865738
Ni 4.968865023177656 8.142905776471713 11.524754112374612 0.9675631980820627 1.0739487620278538 -1.12113647545725
Ni 7.91659968128962 3.772087998631798 8.502598359129141 -0.6449972234528246 -0.7597684403591495 0.3187651128259091
Ni 2.308560135368901 2.872370006019819 8.643721460259464 2.8581606585958776 -0.9100831015877229 -0.121527561793552
Ni 1.663860777648088 7.468829792032813 8.82175119691561 0.25947341704412735 -2.070593965077537 -0.144475428838977
Ni 2.5677569843584327 2.578797430883252 11.522743404486215 0.6763371712166868 -0.7327988537488412 -1.381283521529634
Ni 4.542456599377392 5.969468900575326 4.961469676457856 -1.0196586332257214 0.4578008587065535 1.788472728726907
Ni 3.96845483782428 0.7619383851034169 9.487907943772045 -0.5601014539496935 2.0992987892113977 2.9741667763505686
Ni 8.436708937375297 5.562143754853468 7.078665761435497 1.6717968385987014 -0.2613294964162596 1.314335080533543
Ni 4.967748988065289 2.951073540018384 2.4243077340104326 0.7274951821477407 0.4764138458220505 0.33856980625666205
Ni 0.9409375043241073 5.910614189401667 10.846975842860473 -1.6319910194556733 0.2716704733309515 1.3633135673147747
P 5.054541470770844 3.9166744979827306 4.410045950868074 0.05665245838672179 -0.5712551565736679 0.9847872752698329
P 5.108258731055344 7.263525448510715 9.410016071673382 -0.5094908308816773 0.6966260033727099 -0.49070635118532263
P 1.6335156907085266 2.4389148811794854 -0.14031881797496415 1.6764891018680481 -0.5905703119625119 2.5097491836584456
P 0.7260426375801994 3.974643759811042 3.325272734450446 -0.6590416173610327 0.23313992135592107 0.4306816338922583
P 2.361318158862607 2.5117338664037527 6.528712250696221 1.1206981023682505 -1.3136385686871506 -0.9800227640016542
P 4.284366562069546 8.239558106574954 5.676237592373947 1.579068717535345 -0.7735876056304289 -1.4307608023241551
P 7.9025155026401634 7.003968885724635 5.733016109301378 -1.8702988581657791 2.88727840189744 -0.018410384186387647
P 7.419226181831912 5.9412913198457336 1.5673504883773293 -0.19854907075492903 -0.38661266859750193 0.36997608848208535
