# total energy = -340884.4730188278 ev
CRYSTAL
PRIMVEC
9.17763130365329 0.00000000000000 0.00000000000000

0.00000000000000 9.17763130365329 0.00000000000000

0.00000000000000 0.00000000000000 13.43239110209072

PRIMCOORD
 96 1
Ni 6.8372069446681465 2.1729143777648434 11.57993063219444 -1.0740932580255178 0.4176983342587129 -0.4594859597184603
Ni 5.137197560345945 0.16450904377152928 5.780213623798228 -1.2061479446026389 0.20733581580862356 0.05670979398721846
Ni 2.732804962106596 1.7530652717444164 4.753441325535576 2.1785039360876546 0.1752646463056917 -0.7299546994318268
Ni 3.78624103302584 4.659731284071814 5.161665125796148 -0.4292803826693574 -0.0719129840902181 -0.670115101566375
Ni 4.150914218758711 3.145587291909222 2.112230043079984 -0.4437114704930229 -0.2889367166105669 0.6176057188137493
Ni 5.579559396317365 4.86036348523719 2.910530712931703 0.03395784500268345 0.2011119463860988 0.5582795702496063
Ni 5.501145713194133 3.2318019617663905 13.38590219596841 0.3307870769874497 -0.733326187007221 0.31361005098753086
Ni 6.047618600353515 8.055812848823441 12.320713250212133 -0.455160592870229 -0.2795964130462475 -0.10527716137296063
Ni 2.3129099679289107 6.552021224938355 0.2420600295383032 -0.6392423232469184 1.120447162699709 0.8184618404353002
Ni 1.0514720577885823 0.1337786626186931 13.364208110742904 -0.7161437616906634 0.07927276688939895 0.549675373520363
Ni 8.852440436461517 9.105559511899106 6.918500568540918 -2.0432281714700746 0.05728623531597876 -0.4623679092519456
Ni 9.020271782818558 2.6573464763108072 1.3990509871795374 0.22728371968546016 -0.8359738811771344 0.7979912312857741
Ni 7.0392708563399875 1.2291601803247374 4.6683068629002715 1.0380070538259218 -1.1798645854260779 -0.8675819950007188
Ni 0.6823495563279323 7.691607722294606 2.517861162455454 1.2133058958036587 0.3667971765334715 -0.5090059208254588
Ni 8.060676993492836 3.7263661654350195 3.559677434193714 -2.9494882997672818 0.9720153203161453 0.048868443565928746
Ni 8.126682518893386 3.764976460952276 12.911160758472283 -1.0348088586035984 1.863722747610158 -0.2311087498585052
Ni 8.697531195188454 7.406036542043844 9.073755347866422 0.05525043583287259 1.7541464446412112 0.17008798720075868
Ni 7.070860263796702 0.7602786605105157 0.163040622739259 0.6787473233200763 0.4676669528673559 -0.2883453628834711
Ni 2.3105329613829233 7.2168488472987224 8.956261474495605 -1.5194715746980025 -0.27991600116919535 1.3541555549645905
Ni 0.48905854256076037 5.320851143325698 1.366597964603219 0.15772303787750255 -1.6328636518686135 0.5023735031106057
Ni 6.457344778882729 1.9763845778583704 6.823601106041017 1.5367987531225404 0.9936539816318436 0.014398691923833268
Ni 3.5116646552542017 4.538201088388544 0.0730805614866561 0.08358862065593346 0.08209378127796185 0.1827064472957176
Ni 6.416495141291261 6.5092901728992905 4.726629793012611 -0.5554593271919918 -0.707637266881549 0.5433784847680577
Ni 5.394363971253728 3.3638956112505536 9.238597539659647 0.5832184995831311 0.6755162179772882 0.9583774178177366
P 0.44410925699982207 5.689690973737635 12.734981438546788 -0.508946014121801 -0.18073569672259196 -1.418891818800711
P 4.582483160142945 6.276527084021548 12.315045145027568 -2.0993322135524943 2.554203300206763 1.627304155502965
P 2.6250595688637643 8.50725136230058 1.188845598646902 0.32858107047506635 0.28130491109692196 1.1702771988479588
P 7.082203816270989 8.380444028532592 5.820510767976305 -0.8169623730716383 -0.48132670974263553 -0.15231575081900217
P 5.083737857139854 1.2586111996532081 12.678014962363006 -0.1894748763678027 -0.6792707999237141 -1.210440658440722
P 4.495295661351897 6.921907305335785 8.168922567649785 0.9655392256734984 -1.5671529399343656 -0.21637735718560155
P 4.621277008289235 1.388694947849451 3.3881328181513197 -0.5831192550011054 -1.4564355813824401 0.4929372973983704
P 0.3302166862106492 5.734165775752522 3.5288231550162803 -0.004428982305631083 -0.4695379446378236 0.064672757588037
Ni 1.0628982089459353 0.0804015580956686 4.6731425569121665 -0.3692050146440158 0.12848368139641098 -0.37617064732857153
Ni 1.876605368715605 6.7887398729717745 4.632657271289331 0.9636561497181726 -0.16361112122716337 -0.19951117755788222
Ni 6.512970403111417 5.90785245097574 9.387119149442334 -0.7646651063298187 1.310064735292963 -0.8694108206793415
Ni 8.796034713559434 2.522811576860495 10.24391804216712 0.8822473103223772 1.5746240515004302 -0.9271634541087775
Ni 2.749664271083349 5.555816863751845 7.306535415134065 -0.2940645247554355 -0.93958111104684 -1.221939660219257
Ni 0.6344258004135015 0.33796719597160074 9.231840967384914 -0.9082455341583521 0.019953046083159186 -0.7443245950002535
Ni 1.5370238273716523 1.5645750769896232 11.339584066448166 0.6031661463496516 -1.3645651803336887 0.4455976317721423
Ni 4.348279183127288 6.683242999434608 1.5186254296004509 0.17034843995099697 0.7598777122435043 0.2246668508879034
Ni 6.678479808711181 8.180977386561578 8.13998916673519 -1.848123350510004 0.2555830808507856 -2.3458053616822117
Ni 5.43767321407425 3.0246536422703136 4.652415794041672 -0.713579600507913 -0.5643039220668153 -0.32090272799420216
Ni 1.2984696530478943 7.695746834079317 6.707035091209966 1.262222933219336 -0.4818175333361251 -0.0026240678864083837
Ni 5.375063412310826 4.798955953193938 7.352206062527107 -0.13301859315228703 0.8525366706318219 -0.9387074501926349
Ni 0.7268647399212056 7.543398151981276 11.62741386179919 -0.8273953954795039 1.414614788691912 -0.7998452537753773
Ni 4.55420687764029 1.19967245047046 10.343102540791815 0.34049710518636195 -1.3090910585257842 0.9770467120924656
Ni 8.688151655844829 7.472271508230685 4.716071845790588 -0.3375261954834961 0.23630083558240594 -0.04730161329944112
Ni 7.50266782359868 6.170185868390825 7.113794141490849 0.289106923639844 0.6301501311376632 -1.0955092618074487
Ni 2.5847147010021385 5.196751210835956 2.8436643257009857 0.10532704077428957 -0.02938128137559456 -0.7142568290805956
Ni 2.352410493696981 6.097388895716026 11.420232502829885 1.7648383771374183 -2.1626430577959983 -1.5362673060991026
Ni 1.0609709063410806 3.466510708511891 3.830635989647096 2.474275159121552 0.12499006642085568 -0.42619737286865955
Ni 1.9905181302939718 1.1267928791125958 2.525356534062048 -0.5964560813193276 0.5049289225426078 -0.9545842693238915
Ni 1.2440462985393774 3.743023566519835 8.035336635291577 -0.5733320937073545 -0.06997077276218272 0.29644279517962496
Ni 3.9738042870040124 2.8217912766621747 6.850868766847131 -0.13866627835636763 -0.289318782540334 0.42752303365861855
Ni 4.036799549288407 6.891712897859728 5.845131599871751 0.4821862295294534 1.9560921997825151 1.1764247065065934
Ni 8.565079618077675 7.432018416683576 0.304837781957293 -0.6091221068227703 0.3688717996743131 0.1714090200050274
P 0.6028143666413032 6.065111165900435 7.851300345080288 -0.2452477603630486 -2.0604260234055998 0.03495209059515271
P 8.635049880265354 1.8190249089877069 7.7192599258585455 0.44879942653889154 1.5802421690181558 1.5576606841732141
P 2.1742084237995316 3.9526498465078688 10.195574868495347 -1.046028895689134 -0.5238283305502721 0.08558919602573002
P 4.2872204010792 6.406702608532308 3.799164055872964 0.2411720476317782 0.09983285042893775 -0.8862602881365124
P 7.293298517291293 4.202648527251883 10.362136030659475 1.02788590623152 -1.3560874818799806 -0.05102637044919599
P 6.948577502334395 8.338639917270148 10.151703954629982 -0.5729243167459747 -1.105614982782883 2.690870031634598
P 2.893541999351481 9.02001480913791 6.002304045060801 0.33618356541267264 -0.2320063219721101 -0.900719658094952
P 6.957397206159468 3.806395111693749 1.6115783164694495 1.0439108209048669 1.5137490703919285 -1.5618585243046457
Ni 3.2296452183752438 1.841822145513703 0.2414258552049915 -1.0701386442531442 -0.1927113810272294 -0.05900733177214354
Ni 1.6608576085492948 1.4361524800861363 6.831378230933178 -0.5463828188120203 0.33109766624933296 1.447190151524772
Ni 7.070483980907182 1.1599883720733557 9.327586607504662 0.027084772031934 0.4973302842597435 -0.7443991569919308
Ni 2.488184373393272 1.8462365862419656 9.200355267163603 0.9420372858968163 1.0502241647174042 -0.6773077626600722
Ni 6.357519681582705 1.9601677030832354 2.2604698995771035 0.33207211434746037 -0.9494883428582228 0.41578569061703236
Ni 4.376564643261394 7.856538937112912 10.356803826786043 0.6240468464534027 -1.0540075430192364 -0.12264316345523393
Ni 7.708999333895557 6.15473073702618 11.6397311609705 -0.36843934012258484 0.2740322886949087 0.6102017130401942
Ni 7.858126667354055 4.012304450943849 7.979874372902729 -0.216860210359291 -1.0366628810932017 0.26903920635569145
Ni 3.27624005325547 8.682654254605266 12.48018285655354 0.6204578435505637 -0.05003289618767512 -0.6565856996213724
Ni 9.090095202903008 5.4108653526038655 9.907556931699563 1.768114219675213 -2.4106056459870486 0.25505343359956073
Ni 8.919703297370948 2.8012242045789395 5.733024996163077 -0.4691512507223662 -0.3780426675403038 0.7073750143590979
Ni 3.6485123178303396 2.968477360154523 11.538303649219012 0.012446967514101143 0.9523224698729083 -0.3586712049922275
Ni 1.3053161661108545 3.5090765631848253 12.50433379371866 0.5475287594910053 1.5045555768181185 0.7785819735212268
Ni 3.6503478441206774 8.892106159595718 8.12879979846929 0.835641180428064 1.9447199533898316 -0.7604700944118644
Ni 5.7391125191049825 8.422468402949876 3.2695651619006565 1.0133614873630998 0.23712795946939164 0.58587573470032
Ni 3.372183012451429 8.379003140394676 3.407515975777287 -0.7732101676863522 0.6243600068184474 -0.14202285353342636
Ni 3.772924289789439 5.209352098819125 9.40100857688132 0.7987414791882372 -0.19387043433233708 1.1555242089085003
Ni 5.534139298262955 4.849038288025807 11.362217941134322 0.011495659344425363 -2.6065180504500787 -0.3200411513248553
Ni 8.031822520208726 0.09360908751779455 2.280121961804606 0.7007978753622124 -0.35349377455634606 0.5888990949076761
Ni 4.886795063818057 0.13293523828828285 1.1810950888859506 -1.7036885451009758 0.41965905752950944 -0.06735313263367755
Ni 6.149728927885009 5.44429946398237 0.38637644858982584 0.5754295996663316 1.6143491380041939 -0.09654055283091115
Ni 8.4236798503015 0.25851919378376265 11.337838480946056 -0.07757943834737607 -1.4631736714372219 -0.42349308656361906
Ni 0.18255685602127614 5.27337525582611 5.691075878323696 0.26479251526419556 -0.8013169532248974 0.6555508305989549
Ni 7.623518874554524 6.257602807968165 2.4584901468313314 -0.23331578481215304 0.496791381037138 -0.10619041721584938
P 8.935507178730756 1.6248354051014149 3.5568030000230446 0.5734866170073478 -0.11102023450432492 -0.03837782844725004
P 2.0212081298684206 3.3445675194132964 1.5465648930288283 0.15835372948296597 0.26607960950673526 -0.2432435854488262
P 5.127524336795864 1.5190264920948897 8.323260042483406 -1.7283102003043975 -1.4568775540158652 -0.5551975888901728
P 8.885690995210988 1.7835717186898317 12.652976548236508 0.4778222961338029 1.097361227414523 0.7370918246972402
P 6.561042836655365 8.019827355901366 1.160740020089249 0.7216829463413377 -2.067878108808271 0.43676794929565427
P 2.057918655675177 3.516235115717143 5.92651883558533 -0.5304790030975703 0.43688544871012497 0.02499215116896341
P 6.918575825118823 4.110156357481759 5.687691167844313 1.1091052553243286 1.1674798386084797 1.1539239543009157
P 2.395499473362662 8.975090303181892 10.27718970946893 1.002040663033642 0.10762457855921465 0.8612923053372651
