# total energy = -381163.9289947676 ev
CRYSTAL
PRIMVEC
9.27954123549594 0.00000000000000 0.00000000000000

0.00000000000000 9.27954123549594 0.00000000000000

0.00000000000000 0.00000000000000 13.58154658854946

PRIMCOORD
 96 1
Ni 2.118509914241831 6.594422244366944 6.718519401100609 -0.6904113899215657 0.33868396323702316 -1.47733762164243
Ni 3.591581359260886 2.768690228878637 1.889587351373048 -0.03626206765582787 -1.0120188572922764 1.993802569849095
Ni 7.284059167028123 3.359592836069607 12.380897131061529 0.7442343492792924 2.0500279680007276 2.4111910861768733
Ni -0.05666551667470178 5.257834287311783 8.315871737763697 -0.15056045869079232 -0.5815110299737212 1.6095020943245377
Ni 0.6401797533790762 4.014589232447864 12.914774175389804 -0.09230028949731846 -2.3003806536905094 0.47934310365370353
Ni 0.2204113679299413 8.83577472140902 5.795014848210302 -1.3649487889253524 -2.3630150406922787 0.43896290006444405
Ni 7.531711555305277 7.069683212517526 9.059692827855523 -2.3818733110493624 -1.6626542528674848 1.4654879213926955
Ni 5.566230550501341 0.25235804348156593 1.5397403068137647 0.3023535042371051 -0.642070793834649 0.9680861604650683
Ni 3.3257596298473913 3.725271705405556 13.534920327860174 -1.0512965718459764 0.0675973874339997 -1.4880488374123468
Ni 3.6376728390485296 0.8956176764945295 11.95287459395725 -0.46005905861311097 -0.9437475837197037 0.34026853411532365
Ni 7.838780844142181 1.4663066596827972 2.950713063944978 0.6961698896718977 0.22383741300807258 -2.3695669828781836
Ni 6.563122352817977 8.28189748251938 3.329841699901465 -1.0317502742829328 -0.35367735132206185 -1.921141394738943
Ni 7.3693845458578755 0.36356127809625904 4.918163187333762 -0.9619882750974464 -0.12548114712466132 0.10850441006100667
Ni 5.903411949648474 3.2436820903423165 5.79088638045159 1.7437023664897517 1.2387526180115376 -0.33362968864256737
Ni 8.26850710496078 0.7184684563233906 12.61288287039053 -1.22025455920735 -0.24576429498815094 1.9467544673213568
Ni 5.19550361090075 2.0144955399837894 13.73026394392816 0.39225444026431155 -0.5107570991886108 0.06942389911977721
Ni 7.311006953882021 2.563918599228159 8.359821499505237 0.11166172474306577 0.14875862959536315 0.5914015496145556
Ni 1.4890136963327596 -0.13292478401813898 10.453457604290499 2.5702289862110574 -0.2767592007077685 -0.7868197880499869
Ni 1.7657760044999555 3.160240458320877 9.044969908219711 -0.9391257686769762 0.5703437005029919 -0.7825581845601555
Ni 8.392388976344922 6.236027814659201 11.073469203417417 -0.9352976531801376 -1.7848608430059325 -0.7024395247306934
Ni 5.829472567536949 0.454383856971552 11.776667247190266 1.2246269772434328 0.4207178378113271 -0.752921078420013
Ni 1.2807807979162678 2.7816815861773483 2.682803437822762 0.45570206719599576 0.49389888998069126 -0.49075443081443865
Ni 2.587163849251925 2.728110796402018 11.152242298398157 1.658115227346551 -0.12615014816722792 0.7528609146060389
Ni 0.40799264801194557 7.503965727931599 9.065790414199082 0.5469528323828774 0.24451628151366278 0.009506396828538467
P 7.865014106344651 2.6021781464728644 4.7098903868912805 0.5065805992134179 -0.15288165062480122 1.4984553774576517
Ni 3.7750007652368383 5.036146054550196 5.526263567725947 0.07911155872118633 -1.1908020582741878 -1.396339644531808
P 6.081078040249283 5.315914933977951 4.731688028530333 -0.004975855948036592 -0.4519348868440798 0.07264806248402972
Ni 8.954135265941213 4.215714002513775 1.6303290412576807 0.365498512326706 -1.7625943182982484 -1.624156611012919
P 5.515128118612766 2.0090391699183305 7.435298980975167 -0.9659256624786396 -1.69032472219956 1.3141705299312205
P 7.705192572947715 8.176147834107867 7.434212346732539 1.724637893659133 1.27675506539724 -2.809652683693161
P 4.570916270142406 7.408275101885661 2.439435413591904 0.8625809422417015 0.7751598352135554 -0.007277250387703596
Ni 0.274509235629962 1.7483768652606093 0.8631810411819248 -0.7246736535385455 0.06775756716094782 -0.4647693196045866
Ni 1.1253577669190387 7.083045751453343 11.306446925671585 0.6658074753299565 -0.34572724323704973 1.4650616324885541
Ni -0.4762223285906862 6.017216239585187 6.210773544024598 2.609248304897048 -1.2848581541203485 1.4780241061864934
Ni 9.092604575663623 3.268254314718737 7.0338419136385655 -0.5195600421922214 2.402354204611534 -0.9870117937249777
Ni 0.6459126537641791 1.6281047352973228 11.40245491201725 -0.6676108470872826 1.792991442532867 0.3605583947126113
Ni 8.485267901489783 1.1869831982195698 6.652988211023629 -1.2473894677509292 0.918039123210006 1.3716588539556764
Ni 4.622807463009831 7.677075563936933 8.59611387377876 -0.024313637044700062 0.27383071420706384 -1.388807340710505
Ni 2.105184493469724 5.0464185063571065 2.614216494918306 -1.4269619974033554 -1.7350732300598442 -1.7802014898570504
Ni 8.546086012729608 7.609483387819921 12.90571455958214 0.4712400149305948 1.0566845756307672 0.3005452473837727
Ni 0.3373818372311696 6.698121114233446 1.5964967629895574 0.23781238713092592 -0.18887889465501664 -1.7088286945410183
Ni 1.479826950814385 4.609463483155869 10.971621601965982 -0.2377298547194486 2.240165931873826 -0.6897963820453863
Ni 7.432541101411469 1.9202061246179258 10.85919346794884 0.8664378540939465 -1.1943504377470786 -2.7625624150735777
Ni 0.265865343255855 1.0963128038154903 8.748118321898243 -0.0740112613801435 -0.017412281939176464 0.47798221875043495
Ni 7.882673072729971 8.973919247198964 1.1464260366411776 0.38580997019054847 -0.4082107064832518 0.8639217725403121
Ni 3.8488566314800146 5.750104653982749 1.1216125442006386 1.5047913469780083 0.9482894374541152 -0.2208477342521293
Ni 4.935750701253939 1.7923340506348928 9.812708087098466 3.0682185013213545 2.9370778419180708 1.0405719863396206
Ni 3.6422569322667893 3.125432900301258 6.962348618515571 0.26090886393907325 -0.33323785252078736 1.3541753524589322
Ni 2.0482452303376566 8.673791054975943 8.00660690954331 0.12173350715677099 0.06325685107711686 -0.6735953468054916
Ni 2.5364511580823117 7.783066480412564 1.7077705221153008 -0.8478174107792819 -1.6570919282883592 -0.03850149850930789
Ni 3.3245254509040136 0.36365128964325727 1.0145414891610285 0.18672739552965262 2.085249767317499 -0.28603625513432024
Ni 6.7822030345788935 0.1622889633295983 9.067909861346957 -0.7533311693742382 0.5193597532559572 -0.3106088022673618
Ni 5.677260257700687 4.171784655762274 1.0400026935583178 1.0174896505988607 -0.7809116500956681 -1.893077032402559
Ni 6.339754523148486 3.765758342472898 10.214544687659007 0.5656025862735808 2.7919596372887723 -1.974347546448277
Ni 4.125414789746801 5.271735039621404 7.826719296844421 0.16971183480826255 0.6922044772662466 -1.9177197706519038
Ni 3.8391316725878357 4.2988772483073845 9.810792789850996 0.6550386668492267 -0.692233273621653 1.2128788355685691
P 5.631159498372116 5.851687788517745 9.058144072474697 1.4630782835099385 -1.1579616147053995 2.0687345432712956
Ni 1.578941727462627 1.950707975647115 7.001924932617911 1.164884824187794 -1.6866490731201857 -0.9404115773679353
P 4.443730882188019 9.108778815500518 10.139371126604106 -0.5041277667975511 -1.1119005586812787 0.9552301304380064
Ni 5.891775405325198 9.052656151970085 6.7805596278806055 -0.8527040494476218 0.7164800619841597 -0.6681878026366751
P 6.054232328345588 5.74836010028835 13.073162019713418 -0.4184568096912922 0.5714060803292353 -0.3612903877826294
P 7.3091603252374195 2.5701822893543236 0.8249883066318983 0.45817881087126255 -0.7727597104124949 1.028985567053602
P 2.164629232652257 1.8154122689219614 13.305609880180617 -0.2970919987278497 1.1305454274759754 0.12078065632519844
Ni 3.23221257775574 7.173818220807627 10.454394837924193 -0.10506710224468357 0.7911544108695988 -0.5806803065423096
Ni 4.028870445935519 2.6155870831133203 4.792452318432778 -3.7113138797657763 -0.7738233757903189 -0.8298456567922097
Ni 3.9427006288813504 5.506089845749234 11.977741907735167 0.44889867112091725 -0.7120055711525738 0.6322445517728466
Ni 1.4098035349743294 9.070955406679412 13.152532717129898 -0.7719066183835803 -0.754492536672191 -0.18691868560485228
Ni 1.867136430052689 5.77088154611976 13.611290021740652 -0.4749565445502337 0.9975096079325079 -0.674827933661012
Ni 2.2984216537471314 -0.1013780566804961 5.393761930774109 0.5435921434407607 0.5395645103386062 -1.4820429975378993
Ni 4.830864050148698 4.559326123523769 3.018118721289343 -1.3234815229195014 0.9804835056881566 2.344724727023523
Ni 4.987846044021772 3.3173894839306497 11.858142544489137 -1.3274569626274815 -0.38499287360589185 0.12122571428241703
Ni 1.702424578586881 4.09432832763917 4.838208806792934 -0.5574200504627883 0.4141072744733449 0.4923564851942359
Ni 3.390196762049001 7.6542571727958375 12.684960776591968 0.03390513738787709 0.705693770001933 1.2270440713253576
Ni 0.7788559968641733 0.1727562854959888 2.8801570024556753 -0.18709403484045198 -0.5689270226611235 -0.7506235406350878
Ni 5.526022299661829 7.245382040441673 11.13325542970609 0.5723964692669626 -0.6028159620990844 -1.243884025700832
Ni 7.151064786453026 4.004084792117762 3.1524530675743923 -0.12042995785399904 0.051083191829060404 0.3598755097129738
Ni 7.5076311465980226 6.985851839777125 4.979225350499984 -1.6296883394644255 1.2849296307882323 -1.248882764467004
Ni 5.117861691959093 6.773229718501854 6.03813789256067 1.1119339830223751 1.2872942743656668 0.22516384512897994
Ni 0.8842994204250734 7.056042287353879 4.437879203679042 0.6919360540962084 0.46951943269506236 0.369697380899402
Ni 1.0547404604596131 1.7757700700790358 4.628102369063149 -1.3326133100174404 0.014353954728826892 1.7104466897604156
Ni 3.2596614598197315 1.1794389314453895 8.71622917950037 -2.083168459308438 -0.10564482912502451 -1.1425609638796128
Ni 6.066397806501738 8.071381817034686 13.195097043410941 0.4842343703077338 -1.0762239312152755 2.1244624329612187
Ni 5.5443679520757945 2.2092638245142595 3.3839507030505986 1.3816751005410977 -1.2393156896038593 -1.5896992006659978
Ni 9.006416199527598 5.39753777597757 3.4016068855736408 -0.3121090409619722 0.3899630731269736 2.3294032661751043
Ni 6.748332710192966 5.073895227043882 7.3504682016768585 0.2649966608552017 -0.14216786375172288 -0.08128182689962776
Ni 6.859436653719733 6.240407757977052 1.5838663798329313 -0.3873773146776683 0.940570985763935 0.5482000745264172
Ni 4.608164347425998 0.0072575289595159685 4.460423848362771 -0.05386409700830724 -0.01590561548666293 -0.005801437173125492
Ni 8.243582258029107 5.445197498181987 13.44348993905412 -0.7294744173612985 0.06867108011415271 -0.9276247100159121
P 2.749017602112016 0.9514406108530006 3.4110460346052474 1.2262449724628302 0.7786436799970977 -0.3140653933573946
Ni 8.503195974562004 9.137406199262323 10.545934725313192 -0.29962273556950336 -2.0361779494915124 0.23978493747626448
P 3.614214159583427 8.206018676353976 6.536892802431878 1.799986385793461 -0.16647353037662296 0.7497727625990185
Ni 2.2066005962680233 5.848328594701936 8.913650484782055 -1.0942908160193152 -0.23589125884881312 0.7328860141460087
P 8.6830056391171 7.75526497579332 3.0590396408720992 -1.7748407397657693 0.8473332720540118 0.8198054989473882
P 1.8396782684477693 4.459543219928737 7.099983697508586 -0.6967738418044839 -0.6087153583026549 -0.12852739015015283
P 8.849582678309366 3.944157516806992 10.151336166676218 -0.5644918697079052 -0.23335229447704325 0.23292163469752789
Ni 3.013391723140798 6.5281570426025874 3.764288463189958 2.003320022421227 1.5839908374273106 1.7670176441769245
