# total energy = -340865.5752916554 ev
CRYSTAL
PRIMVEC
9.25217390099008 0.00000000000000 0.00000000000000
0.00000000000000 9.25217390099008 0.00000000000000
0.00000000000000 0.00000000000000 13.54149172816398
PRIMCOORD
 96 1
Ni 2.7159664252747056 7.940363760849318 2.1517975365463053 1.6381755509998304 0.02369605806535919 0.3850144708724466
Ni 6.067029830372649 9.215526137933335 10.635596064191942 0.08928001461375591 -0.5136786437107799 -0.29890874022161423
Ni 6.288711919392138 6.834331124469655 12.225814395512208 0.7898488046842977 2.4752172113198467 -0.8099010953494826
Ni 6.5647227741346 1.6396055109102958 6.5255768259442215 0.26581092922638094 -0.010185168063117943 -0.05112664347248615
Ni 1.3557580647905585 -0.15823900668995897 6.038597899673279 1.9443525427480837 1.714456582250757 -0.4876395393345408
Ni 7.653102262523897 1.1089285668413966 12.117292871024048 1.0681612088117993 1.4881869056521078 -0.4023534763715264
Ni 5.273692918642053 5.205051039742403 11.23417101237096 -0.924287418112563 -1.7609873788224448 -2.3228598086296315
Ni 0.6701377384101956 6.637222809591892 11.78991302102094 0.7719608686602835 -0.40773273840556873 -0.3872153351785073
Ni 6.967775230059307 6.376191224554043 5.148868138350001 -1.1927468407053847 1.5757789910404796 -1.3579687580630937
Ni 0.07100303370423044 4.444827658754742 1.3501734525646751 -0.3923966222691307 0.2594050257000371 0.7866866049062323
Ni 4.828080462321282 0.4019681011320079 4.711721421238448 1.0580647438077455 0.7411986477767621 -0.01751435473467951
Ni 6.084359152273046 7.1273937358925386 1.3452577725189303 -1.8888938475591468 -1.5451831205314939 0.8007618520523758
Ni 2.4667406142597654 0.6725590323457716 3.9394776157911 1.6221735191446194 1.7936439885152011 0.19438722606775552
Ni 1.2010339590028745 8.976949579191409 10.843525721779105 -0.4756908516130969 -0.19124559511498032 1.0283587321028804
Ni 5.254143074981861 2.7892713998699232 2.69635459204872 -0.02195696388706541 0.5041159397230093 -0.21402299802081207
Ni 0.8479173365863465 8.476943591929672 3.6165258562639813 -2.526137395208482 -2.531442866581795 0.47236307279144457
Ni 4.012334785164759 7.532620452707046 10.950002515813454 0.7409929595238594 0.8710480991724483 -0.07977927421217228
Ni 2.5431543193186945 8.574961123276603 12.99293989830323 0.8643766006895436 -0.4182701476017829 0.3556077355755553
Ni 3.5291399980594664 3.4483130060029454 10.31581409947693 0.5235614500421306 0.03660093905248535 0.24199814307749937
Ni 3.8861258796424365 1.6957291983891027 0.7016265873988821 -0.32909529110732355 -1.1534652694969425 1.1543816106636249
Ni 7.98854908303686 6.140889935407815 13.60012677004065 1.228112621799188 -0.4648243412122382 0.1466518676650055
Ni 8.318555625238327 8.066711448981629 11.879801592292223 -0.9397909130648009 1.6932732633049223 0.0562901899512966
Ni 2.3972382831781958 5.013706829266107 8.582963328568463 -1.9257436693976449 0.42535636502460294 0.5509208158916898
Ni 2.614599606940084 7.23492250211059 6.679124055199215 -1.0165699669980688 -1.8407334858038362 1.7916745234936562
P 3.8096196528435153 5.326421058263174 6.427103162419133 1.3451860044761283 -0.9902189878083656 1.2524226592994625
P 5.800872540939275 7.153383092656134 9.674123095244502 0.6356358368425827 -0.2311645427971051 -0.4111258232475178
P 6.524586843326313 8.587479314697445 6.118411778676895 0.3309254023375268 -0.3758464312199334 -0.4534664929972577
P 8.761484951099344 0.26218718157034115 9.440518654809718 -0.7671007123545047 0.6695270902733889 1.384474774773422
P 8.85565357806263 6.179008892284288 3.9997370250475246 -0.14898514378387245 0.2616115464330527 -0.8407473913063779
P 0.8003380317957488 6.404123537857459 7.6174008987134005 -0.8549995303500179 -1.4297079355796087 0.5531592183039054
P 8.192753815371967 3.3997298403334404 6.675089182118188 -4.979921119244901 0.04094970293948431 2.460280901724989
P 4.663965399924468 8.333710686248924 0.20772796019398 -1.0171214686261645 1.113872851916301 0.39158286811858367
Ni 6.17682537922049 2.8633258005590707 11.112053418191058 -0.8898168951395191 0.6000671957093536 1.8198026491884403
Ni 5.485623216266443 0.4972053541921961 2.055070683472255 -0.2518652656795662 -1.9491610198803206 0.8207897172375285
Ni 8.519549853195729 3.213566847296665 10.825854069440739 0.9933475061350183 0.8034000610061712 0.2875858590096273
Ni 1.9389503484785988 5.581050138893613 2.1422095086309922 1.4410724686628085 -0.3510630536276664 0.003617542147929254
Ni 7.218869980222075 8.386984704135994 3.6958521456978417 0.5299753239882743 0.05272458408722533 0.05201161718060075
Ni 8.979475422693175 1.3498736821271031 7.4574890989643965 -0.2417795993087901 0.6463138853817192 1.9505301323137052
Ni 3.0054576975339207 3.3327255962316396 3.8622774759422436 -0.1580948193946245 -1.1487928037219377 -0.19104170663429032
Ni 2.873938044136089 5.656880956990598 4.530482435204018 -0.7212941955433513 2.7047712150967227 -1.7617967620976176
Ni 7.340388033526831 4.116801081789093 4.5291954578007365 0.6345343762482878 -1.619917376120591 0.10308606725891277
Ni 8.91079653509753 8.055275761918686 6.816638192131092 -2.3138560624691245 -2.248907682622198 1.564640457925157
Ni 0.8566708184069366 7.310605285423587 0.9349358834830951 -1.1989313722495416 0.7239722565961466 -0.37418601279837493
Ni 4.934545228529432 4.864922619185873 4.132714821067621 1.5415033576870611 1.6868730162055334 0.5938788075104547
Ni 7.069539891875891 8.95770505727319 8.36845259961571 -0.935018431376822 -0.6728075607968736 -0.9204179078548277
Ni 4.639983764918686 1.2572224116996757 12.021310817956929 0.0592695842945947 -1.1127639351228384 0.6324103879267495
Ni 8.116284597269042 6.670937731644773 9.134467841526835 1.0774302928185506 0.865990996364515 0.6372546033929283
Ni 7.003359091260015 5.168782517665759 2.5765398639772057 0.1675377099750792 1.1676215063926665 -1.3165601132093199
Ni 3.803855548442049 0.04397928388753082 6.823382101759067 -0.2073738681354106 1.123840247541658 -0.7587389706533707
Ni 3.412433075234265 8.145086614928376 8.747546550969634 2.767083957093015 0.16997331599976534 -0.46818168772024527
Ni 4.332765327277111 2.6484810681249495 6.74791489410025 -0.5045008338662537 0.6535412563680939 1.1371043116404158
Ni 8.1016013971324 0.6168359640011273 1.8618603095003314 -0.6274211622422742 1.638908572511113 -0.08483920523358292
Ni 1.3376700646222324 9.080897754071792 8.559021477910877 -0.34563879728830155 -1.242262430937009 -1.7600566394780595
Ni 6.955543856032439 1.6974963636229392 4.1244544801211855 -0.43462802013451596 0.10615853553664945 -1.5148710998115136
Ni 0.9034350066682098 4.311429814035085 4.0153371156274815 -1.3152385661844188 0.5461871578614464 -1.367700640638877
Ni 2.172484472390991 1.8173120169118535 11.50403934879539 -0.21740631267074814 -0.20000534358548133 0.34826466494692276
P 8.024614057285524 7.819835690162471 1.536701906474417 0.8955879932953416 -0.5604166711972671 0.278307776141811
P 7.6333581232097245 3.121156133393215 2.195211512602488 -0.24587639508598297 -0.42682806447412297 -0.655966835090451
P 2.0437127146709058 2.6058192938148967 1.983801187156849 1.8976636233319768 0.9781764548215346 0.8691927911312644
P 2.548224510670226 1.7828014078950465 5.893528437453702 -0.1998276803570365 0.14763839994799088 0.022109687414845793
P 2.0026700708107033 5.821828715047336 -0.12959150033640957 -0.279643464234099 -0.36929783146813816 1.3459797040220174
P 3.6272315467983907 0.4412630093237722 10.298940909754693 -0.17140850578439512 0.856837354889705 -0.6721429306296812
P -0.035767054245890655 1.4848721529486122 3.5116478378966853 0.16426109610633646 -0.5266678568815962 1.2316237202762403
P 5.342149754061718 3.4763563453943505 9.125950290143223 -0.6086667644529066 -2.374396285946027 -0.7101068114679642
Ni 7.0526454221534545 4.606481642867786 9.294717345626808 0.3484958071211224 0.5423184189346595 0.45539790569201577
Ni 1.2973120816379664 0.6258679362590917 1.8262736726474242 0.6064319615851168 -1.3094307012533901 -0.5008465249431181
Ni 6.2664141800542 4.380932145116655 6.589994162195862 -1.2338721499907848 -1.7954262772266047 0.022013013935981443
Ni 0.5196668570099179 2.2940950474357393 0.5673164783229091 -2.0218221949904724 0.7436031434531968 -1.9278902834270022
Ni 2.5136306320874264 1.7447657205845657 8.275530240490108 0.2294431892306242 0.9227761236743591 0.3535688507686556
Ni 5.132948847767075 1.238273959349429 8.406016426052235 -0.8529200221131696 -0.03753347816908374 1.9100311437583943
Ni 4.956019524381445 7.665352140898764 3.5025881091167235 -0.8644190238917048 -1.0214134111332989 -0.6459161357226683
Ni 7.97352355246225 3.494786676000645 13.109030626340088 -1.0428970349283717 0.2301654121086294 -0.037038026589903954
Ni 6.236205831946996 2.098004471697882 0.5811531045386288 1.1224734491011183 1.242162672134351 -1.2152370513881006
Ni 4.097158716388911 6.3680585636087965 12.94039865259689 0.40208993829749456 0.9149797675583919 3.4733865643235404
Ni 8.496151105151894 0.5554191077774099 5.445385511544166 -0.5550325240672183 -0.008651505027410907 -2.334367295048599
Ni 6.521700165038581 6.340662876397331 7.465694852084238 0.16215844794103687 2.9046130365211464 1.0197409085268825
Ni 5.945613550981883 4.8905511411635025 -0.0013767234910726188 -0.6559539795746444 -1.3511064837256215 1.3001299926777545
Ni 0.8473039174502034 4.241335343817571 12.397303440586342 -0.8984128643386463 0.06801570591834093 -0.9100800162639295
Ni 8.775936846886008 5.41649097214484 6.016295534248343 1.3424272107840687 0.005361521422229476 1.763343280649131
Ni 2.5678483717224103 3.3285991266280215 -0.03291830987155424 0.8855501494433653 1.8243972105376578 -0.3812321210118789
Ni 0.01471743318043827 4.177116004089513 8.468686951852835 0.28348520657769244 0.114051565131481 -0.522578517303571
Ni 4.59595266885676 5.3380232844581 8.490028016399261 1.1432389637832439 0.979246547957262 0.39316821032783256
Ni 2.745702912507954 5.580115669319701 11.451538812654647 -0.728361643913094 -1.6361546639150595 -3.1132223197255544
Ni 4.757458618185816 7.168501144970735 5.81065393929117 0.9215648769750774 0.48507743503431944 -0.0671610712275295
Ni 0.5923537863819925 2.95401561009868 5.927747602989536 2.5320915559093873 -4.176215611183168 -2.719551715840007
Ni 6.703755192819735 8.965476883432471 0.07449572938890729 -0.04153282913646396 0.30237741549650504 -0.8607194635529305
Ni 7.185515892955161 2.0751053410500013 9.383387405582404 1.1693392604147217 -2.069817749033145 -2.656907044425592
Ni 1.8367323301360565 4.554512181514594 6.135907639709275 1.4439580177407196 1.6611596705998297 2.326025093731491
P 2.852593278720064 7.916437638887532 4.747213685916565 0.6219367420889353 0.938889484296454 -2.422283082324977
P 8.023318752925643 5.492987946769762 11.305100953900597 0.27643961258482075 0.020614590926558048 0.004333594378347375
P 0.7718709428351826 0.5337819736630118 12.932869233396387 -0.9569486557910102 -0.5090213474444266 -0.4619341641486367
P 5.086530690813369 2.956578462296443 4.869886410536415 1.6611601848204616 -2.140671438620913 -0.24067171095659198
P 4.621923521272357 3.3596216660471514 12.514803274723269 -0.6611200971566162 0.3857904298065227 1.2540180288110403
P 4.771114827008553 4.892790167271295 2.0564649860939257 0.09083116115095971 0.853596222244588 -1.5979383007463386
P 2.032554592827938 7.173238258058297 9.864503229190088 -1.1737942108622816 -2.262860288147548 1.6093881944544928
P 1.3159644644202404 3.368485248738331 10.12333464725094 0.6278109414815252 0.6861459297769925 -0.2829414182590804
