# total energy = -340897.7316892884 ev
CRYSTAL
PRIMVEC
9.00519309923757 0.00000000000000 0.00000000000000
0.00000000000000 9.00519309923757 0.00000000000000
0.00000000000000 0.00000000000000 13.18001035960855
PRIMCOORD
 96 1
Ni 6.306561953980704 1.8841295654810561 11.16997955583505 0.7221848256784207 0.3358099841233378 2.050400520848798
Ni 4.435498923887112 0.3605949528051252 6.049071060627842 0.09239130654922799 -0.6324628384312398 -0.694216622600269
Ni 2.74439567544968 1.6265360129252884 4.709942994028698 -0.1371776096259831 0.5193870069494668 0.8242077417801419
Ni 3.455301650382822 4.146540283285487 4.853670380694188 -0.627130627585049 0.7873273238140247 -0.05550471793552376
Ni 5.033488780816521 4.597601407353511 2.5314849912185573 -0.635976250901137 0.2767059788723299 0.41793153331544153
Ni 7.164945978562711 6.040062265313149 2.6333400303687937 0.45103140119320384 -0.2614660219941239 -0.17292031444323125
Ni 5.103098924541607 4.630605440568575 11.562348432459011 -0.22243821866770078 -0.32864997603978885 -0.652132034725393
Ni 5.569108669383713 7.71826107184139 12.323151282601252 0.1941069758231754 0.9041803629500428 -0.10530132974267671
Ni 1.746287072596206 6.632649006300119 0.4536231015440645 0.5342960628508153 -0.3894611937898906 0.40318137158946044
Ni 2.6905626302765153 1.6527051044731669 0.2643780651408233 0.6866642641743078 -0.9130516972977436 -0.25911474815312796
Ni 0.6184721689478709 9.317223183073766 4.644332957139664 0.3526676791106249 -0.6569939908033847 -0.15392603272891556
Ni 8.592989522149274 2.368888122643424 1.4079286434521876 -0.0912538505106751 -0.6364210517480394 0.024610085239196326
Ni 6.85521235716241 0.7064132840270042 4.6697699264773425 -1.2890973890126767 0.27065488758224354 -0.5044136734690862
Ni 0.7667372724856854 7.659520196353842 2.631177883472495 1.2207104157978461 -0.7943034980215418 -0.09061338871319878
Ni 7.556122567602039 3.9084429740886857 3.8031317417739356 0.16910068358682487 -0.4669213329505829 -0.14852311654578937
Ni 7.545424398036011 3.8806439425648382 12.581032100821291 0.003870024478367528 -0.5494159492113893 0.4856060538442798
Ni 8.121657708103866 9.113255556246703 6.501778334019662 -0.41135156610507867 -1.4373952769215375 1.0750954740377872
Ni 6.977953140988144 0.5783891533288891 0.47529229803121514 -0.9492114350477524 -0.41175985728709086 -0.9774737723275553
Ni 1.8053161142673493 6.322744286228308 9.235009370893618 0.871303152606048 0.19645130768563585 -0.4827053352577171
Ni 9.124692151658197 4.658251383807387 1.4717457463676553 -0.19459060032781325 0.9535702262370803 0.47443332505691194
Ni 6.379927263285785 1.8595814087159093 6.913653359715151 -0.26706485623814 0.5291163184220887 0.21774287007456047
Ni 3.517122301957559 4.247173317713409 0.4014380067333435 -1.058969772120518 0.5213382171385667 0.04956829784643076
Ni 5.904002800689304 5.636323431707651 4.6872463049931605 1.2820883046846951 -0.8943901163324984 0.9696853866313881
Ni 5.36129582504428 2.7677281311277784 9.19326849919963 -0.4014242796890377 1.0164606951137138 -0.09955131463277694
P 0.1804424600136847 5.530512411168225 12.636677891393145 -0.3075826138465283 -0.13544674297780546 -1.123930493262619
P 3.8848583729999406 6.171321961941461 12.68948974765319 0.4719722651109291 0.2972328951810881 -0.8519831121211972
P 2.446891106465765 8.499902839654291 1.421701185989464 -0.5505837442672453 0.4524516785794982 -0.0752801007902381
P 6.348544164853453 7.7233670164069945 5.71261182673759 0.13912830559445072 0.14738360362470745 0.7153588038955228
P 4.719702822459391 0.9092003300206443 12.476027045076613 0.5225980576875967 0.12958411354944135 0.37616190557782314
P 4.131357527487234 6.111788629449023 8.1417672051223 -0.538880339787388 0.28462677638130335 -0.10928242587761178
P 4.659223944677025 1.037416271334716 3.7667417559016103 0.7891666910156087 0.032527283203743984 0.6926989004041618
P 0.20137323065536872 5.673821056348175 3.449037637966888 0.320318573355958 -0.5030383903881143 0.34420566438620076
Ni 1.614117851450917 1.2351072784753128 2.4706459057066965 -0.68833239590535 -0.21420914588968912 0.35188837774243914
Ni 1.7772739425260924 6.392417466306055 4.829024067322753 0.9578547125450472 0.28997389962582965 -0.4343644820604842
Ni 6.082233585243883 5.652145556225759 9.177162711094544 -0.021857976415355907 -0.0947052993943853 0.163906283870079
Ni 8.722250065878885 2.3344792792833267 10.208155578093026 -0.22734696882322783 0.14696708491257915 0.1721834362772067
Ni 2.3339119521093705 5.035010658473642 6.91754180215506 0.09102502232932067 0.8264625992525895 0.7770372547419262
Ni 0.5513717725780478 0.08496760027214441 9.070561935108199 -0.506214988343883 -0.51580648868706 0.5454394810621445
Ni 1.5241289554295994 1.003628786307999 11.321668433841722 -0.24229227727915048 0.41438418228381535 -0.3871878243746816
Ni 3.9885801887082897 6.807809019960747 1.6471056753181528 0.6314732208244609 1.0437390712136927 0.12470827351437876
Ni 5.743656329904197 7.875446719800171 7.827674169675775 -0.7874864750997083 0.040120265059653486 0.21609890671323426
Ni 5.3292463423123815 2.882409267006041 4.835719428494759 0.41116618956714995 -0.4820723296594085 -0.2640810910194678
Ni 0.6962167037242984 7.362907141500431 7.123597733293876 0.08250130112902566 -0.10288320721948732 -0.4647842320029221
Ni 5.038108444947307 4.299484485229454 7.225400542323335 0.4592357913808672 0.43442850252920023 -0.516340249703343
Ni 8.278915397608547 7.017224788696436 9.174249531082246 -0.14897614492280795 0.3084989550132106 0.25462174537878085
Ni 4.478966991644032 0.38826430954635405 10.26597612283171 0.11847591945142177 -1.055028528084583 0.1647722314148001
Ni 8.17553577924322 7.268136487870054 4.625313989022279 0.2575548598651758 -0.08397428613012635 0.6420093444690943
Ni 7.332118385821766 6.131735132469861 6.995633036871127 -0.3857945435715808 -0.5863992113039579 -0.4368057445121251
Ni 2.52823501697918 5.084305086255157 2.5494359434179863 -1.3325842565517179 0.0021093330335189477 0.07853691716463894
Ni 2.3030241393050956 5.304941325764644 11.47007581943269 0.11509234769116954 -0.6839214113218479 -0.14591164706487128
Ni 1.1107455598668474 3.397506320185202 3.7369417704404135 -0.534265466723196 0.23432288592042871 -0.10573276085314048
Ni 3.6718135113895802 2.7215224846266897 2.6291481129167855 -0.0723374732221464 -0.1430852333596697 -0.18784711095639262
Ni 1.0566783796695103 3.3202147466286163 8.22876817802745 0.19381875515879524 -0.2145837556202885 -0.2692253542245686
Ni 3.4022520570213106 2.616098687396472 7.162966637089131 0.20256359123096082 0.41280732471499876 -0.673856056666046
Ni 4.179490285341126 6.674000853646251 5.955611563132831 -0.643794204283659 1.005731481621668 0.7383079564925284
Ni 0.7473040654793807 7.27136935224228 11.383693503302949 0.07442160944468473 0.15549003478192575 -0.11165941075022058
P 0.21099257807155716 5.409014344009252 7.966129916220091 0.3944658460933335 -0.20339637154490134 -0.05362549863493989
P 8.370264077808711 1.60808437198186 7.990868983081871 0.20881034347162103 0.46979968293964247 0.5493385590062345
P 1.9139727758697929 3.237727176574051 10.281897304475429 -0.6775448183715428 -0.023168210586347195 0.5791165615996156
P 3.9937221540468446 6.054758740676583 3.83531720292372 -1.3130125050673773 0.5301722704904288 -0.19613377644521704
P 6.9072263533016205 3.9290738717955644 10.405038819400227 0.16220781312173355 0.4305926737228778 -0.09302894013322688
P 6.453643775127124 7.705464692251047 10.11507790079128 -1.3843153663774224 -0.4644674720934517 0.3955017435570156
P 2.260528632417815 8.271441087221506 5.902245887488688 0.26406540729018396 0.6219603962380191 -0.7709848779002593
P 6.717883160292091 3.790447927099061 1.6888996776522402 1.7355997919872754 1.3472701406986667 -1.8743306050329913
Ni 5.270091227935914 2.8733770581889306 0.24017840935396387 0.8770976478006378 -1.1648503714054328 0.04624000480414617
Ni 1.3871059351293524 1.0297078259235035 7.0361618095553595 0.2934880834266752 0.524911793422438 -1.2143747033878054
Ni 6.697693517053844 0.6797011793269107 9.226903796460636 1.0706374382664334 -0.14785180151037763 -1.0724066143517144
Ni 2.6582970229069187 1.406106892860262 9.055181065058724 -0.250623165742349 0.5773756676491089 1.0098619588502737
Ni 6.333316383089013 1.8700634536442404 2.3772260310619306 -0.003885965317967501 -0.2971876437654494 1.7195183130443807
Ni 4.180489861790477 6.908370012842769 10.316310650432145 -0.1260997545452667 -0.25286131104424836 -0.05653804429604457
Ni 8.042375986841817 7.165972570591775 0.5422756268889521 0.8371056807887325 0.08924967559645275 -0.5612149987288464
Ni 7.650920236812128 3.7372542506457513 8.238389326482285 -0.635716312371531 0.3130881170457898 -0.3765964220120805
Ni 3.1143650344149365 8.316250928770799 12.352833300031039 -0.08186186777281385 -0.0391347612179326 -0.03494000641029467
Ni 0.12150797287153396 4.885884658462332 10.237204530438222 -0.256265708740107 -1.0435603795439834 0.2658993751751292
Ni 8.508863006925502 2.5178610343696977 5.837940703099753 0.4337070509821434 0.011885438583676305 -0.21060343081630178
Ni 3.6772886688779183 2.47199758521163 11.284606660553889 0.28243825337041684 1.0089003662679528 0.0222608682807294
Ni 1.0553276006839005 3.373282350376602 12.557808607981366 -0.3229302999471922 -0.04946982459535351 -0.7551749074511962
Ni 3.0337325341672754 8.20428936125023 7.962940276775405 0.8948845394704136 -0.3646901574927977 0.10603589391585609
Ni 5.464000053916804 7.789474139962732 3.714337834895221 -0.5201362264106656 0.814356817127991 -0.6313456941076611
Ni 2.991372105178556 8.453823265858528 3.7028183917059416 0.2977517437990356 -0.8244453117122447 0.027506432950384883
Ni 3.5797624261168988 4.404575090309887 9.34734285289489 -0.30685010655587797 -0.15947241646844146 0.19782530521502706
Ni 7.313504651400065 6.051075616642487 11.475466328104597 -0.15672982072629782 0.3560797901159674 -0.3338621163683476
Ni 0.6016054420142247 0.04614351066775072 0.17928079008606035 -0.2265229302600357 -0.21762408510850906 0.6374386943792764
Ni 4.438245507824518 0.5351930424077387 1.6652547417688044 0.09133972535626204 -1.4049497547983223 -0.9348878193362287
Ni 5.972424258907053 5.718072575916748 0.4450150373284358 -0.28822297837299393 -0.9768973309987952 0.251570874367599
Ni 7.970586586353279 8.76141365126833 11.228262066986813 0.12108070406412048 0.7796572088632767 0.6721899818175326
Ni 0.053546680028215554 4.915574780566033 5.650890232288465 -0.2893594059702823 -0.20553064427908474 0.35833413336778286
Ni 7.801018797693077 8.670335126865286 2.6365026542337677 -0.8160046371440591 1.1818237660349775 -0.08827831282211894
P 8.446970313804867 1.8069010282771314 3.608001811590055 -0.017105035111402798 -0.47569033739246463 -0.6590974102996326
P 1.8276129727231467 3.193493667391952 1.4467167122836317 -0.002474172572105416 0.5322391803217866 0.8497729918437559
P 4.681926036828506 1.0935276303969426 8.085238005093858 -0.09988838625722153 -1.34911619276847 0.20551727454264604
P 8.414929836266205 1.7062589886559723 12.396999270263857 0.18405139135938625 -0.45967236469765355 -0.569686012314335
P 6.161560332472122 7.659313076909382 1.5339419145003919 -0.27260018423407245 0.6964293139808715 -0.4622208421511201
P 1.697514946022459 3.199410079348923 5.922464347345294 -0.24771087719156046 -0.3493301300969596 -0.17502476238074371
P 6.821100685179146 4.066475110211782 6.018704648512013 0.6341664513859079 -0.22077574336361333 -0.13270723255945532
P 2.3256992158768632 8.27306202200424 10.128100310731881 0.36819765642542396 0.62635286887876 0.567406472251539
