# total energy = -340862.71469914424 ev
CRYSTAL
PRIMVEC
9.36770428334879 0.00000000000000 0.00000000000000

0.00000000000000 9.36770428334879 0.00000000000000

0.00000000000000 0.00000000000000 13.71058212074543

PRIMCOORD
 96 1
Ni 0.987009448859345 2.3773735179267868 2.1181344740034085 0.26713221914096574 -1.1867440861547303 0.3307623943971013
Ni 0.808877864007121 2.963904231858445 8.397800476000066 -0.19838914813829703 -0.08381822016823628 -2.5112828466941526
Ni 8.337575503792397 9.42540955614702 10.70461925397095 -0.8186981248158223 0.4625378591709066 0.3395848777847377
Ni 6.490976122634405 7.375034499077776 2.0624415972311207 1.2632632015583922 0.8292476181968944 0.7667343301540214
Ni 6.240174570150978 4.882307067981718 8.874640990901007 -0.3569603929487078 -0.030920600838256426 -0.5164153259156525
Ni 4.104750123958474 8.185322202611614 11.087268436930543 -0.7561966638474912 0.5425485326675946 -0.1873783988500902
Ni 3.914623193498547 6.417027463339436 12.73092024725477 0.2646624174442345 0.511307829485758 -0.1180552869742354
Ni 8.760602303443036 4.168581662397276 9.75030777765646 -0.605326387225764 0.13231359666546247 -0.08549380809844631
Ni 2.1938320837278633 6.988785307280195 3.9637568035824216 0.5709052294334168 -0.2928190823841086 -2.6977256211038507
Ni 5.227094799678016 6.505486696899404 4.665656419010546 -0.48974681548553073 1.9075268892793016 -1.1595500422384417
Ni 4.189658997514287 8.004872110896518 1.5877678323802098 0.021486452008550094 0.2003077053172486 0.8441929266528171
Ni 8.665623147553541 6.820138523230626 0.6722452100741657 2.857377757683266 -1.7373998213104915 2.6069700503858324
Ni 8.31451221532214 6.240802206352241 3.4472384395163225 0.4548872846041843 0.173019816135573 -0.36006140047153473
Ni 3.6341541208748667 1.9987121667713292 2.727322854800628 0.6608573304135328 -0.5418023985301894 1.3269152311913988
Ni 2.893000076524823 7.6771336013837574 6.558992214671771 -1.4038907174061885 -0.19380332853982754 0.13752599410433733
Ni 5.11119755964795 5.989476062417014 0.9331695040364546 0.2632184859088563 -3.145090629189061 -1.8214471267703987
Ni 7.100064268993512 8.02238035060038 4.699740811820875 0.4267259916786199 -0.7761877622574375 -1.2782481050029986
Ni 4.273499952757504 5.937419728530246 7.730080803968135 -1.576499157035956 -0.524460050597 1.3840220035067194
Ni 7.771766152206883 1.8325197212998294 0.5592144876200132 0.22486251183847725 1.0027556868227956 0.5315951189798845
Ni 2.994077608041507 4.553481904747368 11.922996952335836 -0.4123152155699286 -0.09346217101590355 0.47597701539494797
Ni 2.984944096157469 1.8307585928544972 8.853321032237538 -0.44260512480272163 0.19034313790536894 1.2677873146809906
Ni 2.3901885376779286 9.321128269692553 2.2336598161649657 -1.9844409261285372 -0.11964859960328428 0.41477987506033726
Ni 8.27230133886114 5.747433313637766 7.415066447472902 0.2546862800681291 -0.9264268330530689 0.5495085089251955
Ni 6.16883950041052 1.683264085557909 12.31528362968138 0.5178366317432115 -0.02848936568894448 -0.21758423300950916
P 5.1615864421343485 3.568748808080661 1.1854015049964886 1.9185934315061088 -0.15929321057809986 0.15807399345901807
P 7.200027043675118 5.5859153527099945 5.318828045959492 -0.378059122600536 0.6913884091228545 -0.2496086084349056
P 7.426378887422813 1.102410200551099 8.967132084476244 -1.664295902235966 -0.783501008089399 2.6391224667486615
P 6.429083699026367 0.1267562830823493 2.7580751551215705 0.15307731157537507 -1.065661582318397 -0.03195418430909335
P 5.755920453911549 4.700798425658523 12.060253495388258 -0.9173742359324975 -0.261148233643389 0.03657060003518218
P 2.6390603430350863 1.8558078346780016 0.7357039138740098 -1.0578215174486878 0.4907292340034581 -0.7787544945433492
P 2.448605542917784 0.4186661332075423 11.158974467769063 1.36291273233193 1.4743322591572028 0.7450648156003878
P 4.741276276787679 8.322231203827213 5.955027265901771 2.492514564947714 0.8824177744619706 0.01826357419587822
Ni 4.227513891384437 0.8150380664839859 7.2398454084077235 0.5494401175811054 0.5627100952171341 -1.2431450906522785
Ni 5.12945521571153 4.718109943567962 6.018712668150429 0.28167257884898583 -2.4159849080210907 2.1007308936722335
Ni 3.0621339812082082 3.1594644309263122 6.473863200060292 -1.0388084666812947 0.08112447538615707 -0.3998121980069114
Ni 4.779608923587149 1.410926180437147 0.7603213045202278 1.9259562996290829 -0.6620225543662276 -0.17121104506160836
Ni 1.5893153771630233 7.3432405100168285 12.732181140279991 -0.4778868308231512 -0.3319073066348219 0.5955996468563033
Ni 8.59743562652389 1.0353561717655178 7.354946393555592 1.815630005867989 0.006142622562628131 -1.883673736810788
Ni 1.4363126596225233 6.029438689798864 7.576097287766857 -0.755642334005918 0.5553572543964888 1.7547149155501716
Ni 5.068162325191264 0.9403208096490437 10.171223096713598 0.04575946562330184 -0.05674218988705066 -0.30987475231481476
Ni 6.254347907054105 2.2779915409239604 2.7719093811219264 0.06631903494220835 -0.12818209099559216 -0.37382631546611106
Ni 6.6461240445045915 2.6662360537792846 7.5347051486788486 -0.5960963839870637 -0.2331283513916953 0.20017709327665525
Ni 1.0606770770194192 8.350193801749112 10.67712972512612 -0.04284512018998427 -1.239306947853111 -1.5064412238766056
Ni 6.6296930908178195 0.4439167806777203 5.921957395488408 -1.3240312247753843 -0.31510463325518634 1.732986008513512
Ni 3.909545897661472 2.373879364149611 12.437006645137785 -1.1328385943855266 -0.5271183141554535 0.1360841194514882
Ni 0.836597838382563 5.58555937993913 11.033042542682402 -0.20624078297223186 -0.4238826086925539 0.558373158404677
Ni 4.769285713232062 2.0862158944726588 5.183560266571669 -0.2153147202490421 0.3136234207239696 -0.671204992196444
Ni 8.53973993453026 9.1439943453692 1.620755266994005 -0.4827243614211106 -0.5244410244336065 0.259136859640315
Ni 1.0737824956099513 3.2472023512400523 12.62780242969876 0.33854255256315247 -2.8540538355163556 -1.684592447701473
Ni 0.36858825851042576 7.06384872341024 5.5899275405458235 -1.4424816903055093 0.11523658657851767 -0.002767535442808137
Ni 7.28868299902951 4.799140587462245 1.7092707067809505 -0.7948007493729343 -0.767991085379258 0.23331784169468206
Ni 9.294495885809148 3.9326091861317285 0.7269254379903876 -0.551618870399979 0.2067652880171342 2.890736021428738
Ni 6.864429030089836 6.714573861260144 13.13656152413045 -3.0003200377071684 -2.6867197569116503 0.34893546576170226
Ni 3.2459096080195424 3.9982580592428425 1.8778566007512931 -0.9670530912148636 1.4413123525877563 -0.2493538121116222
Ni 6.918639936010786 9.091347846099158 -0.021693730072876352 -1.7396968448747847 0.42268498884002687 0.16627555543320396
Ni 5.86085747968077 4.288853620427184 3.9621530525726296 0.9160192645664998 -0.0539366021174555 -1.5934337280077655
P 8.634250705194933 3.20945986982386 6.722325636730955 0.2948245428499116 0.2580387414801298 0.7024264121045709
P 5.545999563850625 6.760672335087168 9.845308479266295 -1.5253226341621409 -0.0013176903701590209 -0.5689882149163621
P 1.7918545160807449 3.5739947225986723 10.455004589647222 -0.04997530347686232 -0.4186280451618339 -0.9159297901764871
P 0.8564770440944772 5.195731725023905 13.153000908751268 0.8804855904362643 3.2038074263039795 0.8083941717866531
P 4.170633189681999 6.0250077655720435 2.7140235247270197 -0.8949087078401298 1.0936454691258326 0.5274006212825626
P 4.894981572165412 8.312919705557743 13.222458690510638 0.7748708432182269 0.28952524212418523 -0.22833504376810998
P 8.902635439018194 6.4218518311551085 9.605387515555496 -0.12926169721301609 0.319450826039024 -1.521044061391445
P 4.603964464278732 3.4658164710736803 7.926416648968309 0.04081034914814262 0.24641195587447884 0.8769626648846703
Ni 1.791835780671752 0.5807405357824031 6.686664659253873 -0.6010046199219585 0.8711357737902481 2.296953887397147
Ni 2.9966349913690373 9.278439640302235 13.67969259990051 -0.5046548429456148 -0.48215589051215024 -2.2327688680788067
Ni 3.455408951378126 4.88839607590441 4.250897555348472 -1.4795667680832647 -1.7734250903651652 1.2215578513998058
Ni 2.05202377306062 5.9311902050401075 1.2512452263611287 -0.5516810910964821 1.252228283900469 -0.12397679466499295
Ni 7.105806671849835 2.414104287257363 5.134777945406411 1.7499010391012957 1.763599362523995 -1.3392223306935258
Ni 0.6265907654402724 1.717250117471026 10.269513736142589 0.21438423801497272 -0.4769702325461527 1.3986235554699784
Ni 9.283573142366288 7.950061671887795 8.181214464189921 1.254687286963923 1.0982539144321215 -0.5972729207936681
Ni 4.548207887115868 8.231430044143135 8.359204596704249 -0.6017479258458863 -0.5046455869742341 1.1299695003678474
Ni 6.473130645568669 8.133003572998945 11.30876218912638 -0.47410705206574477 1.1358053903233343 -0.07817773405300729
Ni 1.92555976235856 9.101221406638414 4.671771656505827 -0.4553495689525835 -0.6782778398828254 -0.33732590654723194
Ni 6.701178043830222 2.83246597006877 10.107304438622979 1.0156862788415346 -0.3379056903101019 0.40034441636129764
Ni 7.866323761394039 3.996347047525567 12.672362726447467 -1.244334225864373 1.4190142033111883 -0.7678566166839228
Ni 7.294322357136372 5.863677158734201 10.89889888783415 -0.23295351637672781 -0.6048900710192937 0.3300175458112768
Ni 0.1317773726924459 0.49305694815474227 3.508318683144519 -0.3938384969219798 0.46213830973964276 1.0833494865164632
Ni 0.8680592739338866 4.52659659284256 2.985629812126609 -0.35999198068618005 0.5418070265158798 0.9109953289893471
Ni 2.804803138690757 6.348268512335501 10.314114314020632 1.2914023829967693 0.6850655522286202 -1.0465194621723073
Ni 0.5589671802213071 0.46047045129339514 13.550401415981423 -0.12447507445765014 0.30253091035523383 -0.7253508821112282
Ni 4.440338769839259 3.537245217859103 10.410157641140925 0.29732365512268144 0.2298885042981589 -0.8127786740075936
Ni 9.259235846084515 4.774718981840003 5.380074097957275 0.12178210100651929 -1.024598750839816 -0.6776564042487426
Ni 6.962818030416039 7.944234959691005 8.757058500832029 1.0842935955972874 1.2446527855460565 1.0792154097434317
Ni 0.7724093904024455 2.4069379933175794 5.170027680656099 -1.4687696774677608 0.1623944752112429 -0.041571395683883246
Ni 4.269809077185903 9.194252079992648 3.9713661899448867 0.9131907939787693 -0.08863621038216994 -0.28478952721141276
Ni 2.622685595575294 4.460498069915617 8.609793502295606 0.829514755815352 -1.0791357055454318 0.9442592332487997
Ni 6.17947184501399 6.80619937893991 6.9737370267770995 0.4143862391663444 0.7648705374724054 -1.6588510770713107
P 1.9235082350738375 5.7598736252090506 5.638943117553042 2.5002998653200876 -2.968604451771442 -0.800430436854886
P 2.6122687081752427 1.701680992597928 4.5538191421092415 1.617766648326175 0.39311807381618746 0.5157491530865633
P 2.295443574400845 8.617014128921467 8.545052359750196 -0.15903327204849385 0.2889043207107347 -0.07891692621187699
P 8.331495863574201 2.0578692206664044 12.13117825967177 1.094675967272876 -1.75577960936926 -0.5464486390529493
P 8.39765996043262 2.995838736486839 3.1580133734998124 0.41880365150774973 0.541431645454332 -0.3176430834063239
P 8.402681050042716 7.978942304850348 12.725490725728628 2.7885832646173716 2.4249539442889207 -2.6440839245189944
P 8.86811544794878 8.838925680737844 5.751260020924566 -0.8317500729037739 3.327302910457179 0.18393414905523164
P 0.5933110584461879 7.641920400181605 2.411019502166682 0.4017335833993404 -0.14953870229449728 0.48816353015881087
