# total energy = -340887.06018128566 ev
CRYSTAL
PRIMVEC
9.07298253845474 0.00000000000000 0.00000000000000
0.00000000000000 9.07298253845474 0.00000000000000
0.00000000000000 0.00000000000000 13.27922705616092
PRIMCOORD
 96 1
Ni 6.4665504720683655 1.7919049560182037 11.54778808603559 0.6673591360877925 2.377895557348537 -1.3951551373054039
Ni 4.519923946751186 0.49389959319942756 6.076561024691396 0.9189883744971528 -0.5459549872459822 -0.08713468613597898
Ni 2.8665634323676135 1.506478001900073 4.760722714915655 -1.1259300401911512 0.677025455532963 -0.8019371033073994
Ni 3.4672946717304525 4.362253658163982 4.570590202508899 -0.5369622968290687 -0.40665544618099 -0.8353943545245807
Ni 3.7095977403810387 2.6127376760368715 2.5083929343562406 -1.0312424814085788 -0.2542751606726395 -0.11831085462846723
Ni 5.000937183011932 4.456213464160592 2.4568166584612685 1.1882764636388565 1.2227505861563264 0.6389998682188092
Ni 5.3244434443691295 4.306491108177967 11.799694906583378 1.135372930771606 1.5775355687202701 0.22082922230936808
Ni 5.608092093931898 7.98200165358708 12.28754735699633 -0.6059467944185822 0.46468935829627067 -0.2710706349634235
Ni 2.014537798770697 6.498904727397056 13.083969217799675 -0.07137588063982547 0.5725180824464914 2.6849444101787823
Ni 2.7741188144360316 1.7691408431130766 0.1806213049302933 0.8924831291177726 0.4377549957992719 0.40383134646863356
Ni 8.441765965007727 -0.03375240192043159 7.117147730139004 -0.8592626765017459 -0.144359472086403 -1.5069222772780821
Ni 8.370334374373186 2.023583562248741 1.277978568711368 3.455805618016984 1.4893757837538866 -1.0516958641669243
Ni 6.754499715300735 1.0491180308221353 4.578000107255658 0.8739184787417079 -1.631646748742377 0.17872612249173092
Ni 0.6856089899517039 7.461983665879885 2.386555482559593 1.2312308557131957 -0.696928107994161 0.09068126583665673
Ni 7.889602400567625 3.8108431512651806 3.560758185588398 -1.4466705315758763 0.38326637783308837 0.11438118055675785
Ni 7.719620074829262 3.8814853924287194 12.624667628482717 0.30516166310986154 -0.4187977379704787 -0.3013644008509584
Ni 8.277989559248283 7.721371160437348 9.001668783456628 0.5520634141365653 -2.441413632506841 -0.28882230251988966
Ni 6.891837450272799 0.737794062967415 0.17266429934328797 0.11130228452111798 -1.1667121072045197 0.5588801799480827
Ni 1.74936174142588 6.831828744511736 9.082313987744083 -0.1283381569574822 -0.06567625915188689 -0.8881238237078124
Ni 9.14901401804382 5.16420550175556 1.0602197321177564 0.3914473709819839 -0.41452893539179575 -0.07979778615493355
Ni 6.596666113029875 1.7114094559407678 6.6856793290082015 0.7544783956048038 1.4239147259365994 1.8434308301303413
Ni 3.6787858920646532 4.533152355127303 0.44306820916157424 -0.9833893664810418 -0.3519200023113229 -0.9654027000956342
Ni 6.2776328320083605 5.454640742172466 4.506663782936582 -0.804309460194318 0.410576378501951 0.6802789294732542
Ni 5.377801654012434 2.8589784190600462 9.486042652407713 1.7213394254135193 0.7106860810102018 0.46694987219567324
P 0.22819911747042693 6.036654418791871 12.041177777622716 -1.049314251308625 -0.5777957859056629 1.6995421270327697
P 4.0858633945414695 6.264957875560189 12.340836611973202 1.3320124432086478 0.17492500357808582 0.08100106243441535
P 2.503762084126357 8.272536696810665 1.2697212474060846 0.10671183693695815 0.2587704774398318 0.5886756660429604
P 6.672842873472859 8.111790667181278 5.935694806854126 -0.22787610185382046 1.5131569453338842 -0.9185026931099858
P 4.590947253176588 1.2452033269981435 12.267402614117392 -0.28412026905853 -0.712353955630928 2.1536403400767554
P 3.9470286174692286 6.171261186053913 8.211529055684574 1.002794253370215 1.6305373177282823 0.09168913827588081
P 4.759359952955372 1.1931153348943835 3.757304389271612 0.5787522362816613 -0.13123270489645786 -0.6853933678816841
P 0.32531269215807823 5.444533439750661 3.4667285176271125 0.5217573069538562 0.7716482225158711 -0.995426243040918
Ni 0.5388970495378003 8.9149764363827 4.822776470915386 0.3182948580577099 1.419061511609356 -0.7588932368430479
Ni 2.1606037428359177 6.375657334131514 4.5360647824858304 0.1912301684960126 2.079893645211908 -0.4686059197418575
Ni 6.042805900876238 5.8700018776036 9.205160355186425 -0.2511237595278514 -0.9859414434789342 -0.7155506081913547
Ni 8.884155515083888 2.7508829064447884 10.050648904945898 0.19300114435350632 -0.9443852173037025 2.139061156711
Ni 2.832839156692701 5.367340505276041 6.636399424965077 -0.2953565040939816 0.0244686745653256 0.5784043660239393
Ni 0.4558139348726633 0.525731244740419 9.308751132027512 1.4632454052154218 0.056811095451773125 -0.4106553113690024
Ni 1.8522856540587058 1.3094944804639586 11.137353580061404 -0.9907226669176616 1.9539419862087317 0.371185021188522
Ni 4.15739478798269 6.824978642780619 1.283922279498195 0.21218183104701524 0.8483946234389905 0.22650030455221637
Ni 5.587342183125191 7.964799278908674 8.14614188594178 0.49268198685445475 0.5553595683893339 -1.0830103580094896
Ni 5.317003598780368 3.182784088837279 4.913127951801447 1.545345871361603 -1.1204299363085284 -0.1723508150930064
Ni 1.1458904613705945 7.296528758371757 6.622257367258731 -0.9300880839547401 -0.006383534928840619 0.9233445945833195
Ni 5.241643406755663 4.5759133212978345 7.310958429620984 1.6789082528325021 0.0203623657064359 -1.7580897455596753
Ni 0.9337187673544949 7.935185064272431 11.293942369143512 -0.2861534974384749 -0.24727687497793543 -0.4559936302944857
Ni 4.700458151050197 0.7559953730108487 10.199375954756466 -0.5288594652162762 -2.104032961462273 -0.07965508992948217
Ni 8.307313438446917 7.0438371248441785 4.5484539399876045 -0.8890381079919656 0.12511887868923616 0.11893434714507904
Ni 7.146243877478762 6.234209538120781 6.718439146651303 0.8452985010121699 -1.1243213009431348 1.394677683448353
Ni 2.4897080343495372 5.29422133991039 2.3804874719135394 -1.3114976110847478 -0.5002803680270029 0.03892393075870716
Ni 2.573605902836468 5.60105145956985 11.055540682935813 -0.07884802064715453 -1.997455079000018 -1.0221957978252785
Ni 1.000595720811526 3.1391067514417905 3.558195068053245 2.7750266089788598 0.9879332770979823 -0.24764222873715414
Ni 1.7856083062150319 0.9861878247201183 2.5409930675086567 -0.6613286136229964 -0.24644538021557558 -0.10303695918853223
Ni 1.228554404247682 3.9632148181159987 8.00866170514564 -0.2937207682627716 -0.3430239853732737 -0.35686371946984347
Ni 3.7837240067959006 2.8045042325784277 6.727110195955181 -0.6109018244310124 -0.023224517745579355 0.08896196915270485
Ni 4.645158323167874 7.083177576640365 5.808015261673816 -0.2704322300484762 -0.40618107764773276 -0.03450806107919863
Ni 0.9739937363404887 0.3555302601256053 0.2998076312622622 -0.9056368928909112 -0.1456974741715362 -0.6635775575581733
P -0.11300581070384118 5.784107952983098 8.170575427613167 0.21974935898162798 0.8853552598237397 -1.6730433094112929
P 8.810972838841261 2.0014273391661104 7.888444688010154 -0.5078468675203512 -0.8553592276822817 -0.10341619690482189
P 1.9972628402328885 3.34643347284277 9.973695497207308 -0.2930232279751147 0.8401002446406822 1.9866068234316046
P 4.252352622046085 6.276571293064599 3.633847410112045 0.6496982284729198 -1.2066356828723348 0.08190249120276218
P 6.929726224880934 4.151334035722576 10.415959840125998 0.6221869104265284 -0.556103902754526 0.35694368077815947
P 6.532501981318015 7.810304534170331 10.14077446856957 -1.8842578914490324 1.239902929565897 0.5133834810678642
P 2.5854642908663608 8.48753008836104 5.597459465827666 0.4019708962211271 0.2509977754729484 -0.21970127935251194
P 7.003462353051506 4.1096890463903595 1.506701197267736 0.08335053650319839 -1.0217288854911888 -0.3755661809753532
Ni 5.229050107149319 2.789842292979111 0.5538221056274512 0.7290154754470091 -0.30105638269223634 -0.7628517072701636
Ni 1.5295415232252356 1.1863922549172214 6.833649692084497 0.24331043413101966 0.5310006799289952 0.09782199064649605
Ni 6.979074176292247 0.7410276739037989 9.072115955498022 -0.37187844771112083 1.16352959571148 -0.3844238884762992
Ni 2.934719676346615 1.7897092942712762 8.833076438625824 -0.6342204445522949 -0.8884776075028054 -0.07996336519852035
Ni 6.570018763646711 1.9653350150781885 2.4391152697494696 -2.655957021807497 0.5291553991901403 0.7641557707935678
Ni 3.983765123309348 7.333501161754933 10.139699320152168 1.6303159457460954 -0.5990711503446714 0.2099354582149997
Ni 8.52986462435758 7.702363262256303 0.19535219919604224 -1.1902197034081567 -1.2632300343276115 -0.63290712505751
Ni 7.743472945625427 3.8490131883285006 8.436093536395418 -1.3636809779565224 1.1689114288486837 -2.187654749348987
Ni 3.0330345139073787 8.640799980471964 12.141436048018981 1.706354779079229 -0.4887371432740938 1.098314849577044
Ni 0.4281113976334348 5.131524619059558 10.166748602656774 -0.9115712560974751 -0.8957795404808574 -0.2418870714209318
Ni 8.723908499487893 2.642469839444644 5.705379869882115 1.0893041614380015 -0.5816820083339467 -0.03182640048197744
Ni 3.7120837375655764 3.031573763736902 11.401810149899894 -2.396820162167182 -0.9485007821339729 -0.6644992980414942
Ni 1.217285760075435 3.553769267226174 12.50897893687571 -0.14364907628293969 0.7221781408102014 -1.2764539892170534
Ni 3.2370042318109893 8.346363554805492 7.854835639212043 -0.44104755050761457 0.27799410155613413 -0.4994056787315334
Ni 5.980574314420971 7.917601624332161 3.3399644363735166 -0.5242929288915164 -0.28340087439400224 1.1960987878967528
Ni 3.6503965300558283 8.306188388626177 3.360308784865811 -1.6818969031471807 0.8932135795258939 0.6584448643172982
Ni 3.721773682795818 4.209827553418612 8.951712942222818 -2.0482338522147825 0.6838365649175255 0.8273239188116204
Ni 6.959594483025086 6.145439478071453 11.340645546177845 2.0588293683424412 -0.551972911305288 1.5028987579409858
Ni 7.887016600576409 8.807053310433522 2.4228483195591144 1.0864314678758968 1.1568730096269109 0.23368782343959107
Ni 4.684680234612566 0.40504878360651486 1.3058925064411064 -0.4817149463199897 -0.36063398514555306 0.14110496970484732
Ni 6.094440243858732 5.710408116742228 0.34433873630397355 -0.00829566434988894 0.5783647710352555 -0.43361449126833707
Ni 7.9968813447646045 0.10587081732456982 11.084316553995956 0.2767669140172524 -0.3394082429975574 1.3248519209044667
Ni 0.49310117074599946 5.187994861674747 5.6671354343629075 -1.5238532487054661 -1.0541875202405264 0.8002841410850089
Ni 7.30258951063187 6.144051311760379 2.405491704179478 0.8330124845559654 -0.15703398223027795 0.04204396444492759
P 8.67915147718379 1.5886701496910438 3.5352358860259736 -0.5181130253330496 -1.3129094038306097 0.029657674965432795
P 1.7233676467773391 3.3373695633998754 1.288407962009273 0.8802801592936775 0.39981528333070493 1.342171900240153
P 4.96808391364985 1.389527258437703 8.059547527078044 0.015226330031451197 -1.0078356724488644 -0.774145535016428
P 8.918460461634021 1.765230387687764 12.258599099270103 -1.0379862278903158 0.21046510546622463 0.2151252299460553
P 6.3849299221701905 7.876800422365499 1.1430850952046858 -0.05275029511883818 -0.6575483206449578 -0.2092991101825815
P 1.8408174042731018 3.4934339340977987 5.858794929711845 0.6239038931176352 -1.4947115941445033 -0.5474696241182958
P 7.154808772888263 3.9975832755431098 6.1100911385424075 -1.7678051730752264 0.8802899294856903 -0.8894685106611648
P 2.499688315017389 8.80558348728062 9.878616085179413 -0.7086173714066313 0.4009787075111868 -0.29055162650617056
