# total energy = -340895.4742908431 ev
CRYSTAL
PRIMVEC
9.07661120934445 0.00000000000000 0.00000000000000

0.00000000000000 9.07661120934445 0.00000000000000

0.00000000000000 0.00000000000000 13.28453798280340

PRIMCOORD
 96 1
Ni 6.479765358381923 1.9360502015111738 11.625777190944193 0.20246306109735454 0.2098264434409612 -0.5652678286419813
Ni 4.5540171103483 0.2876423406875254 5.954448328186844 0.11380988143432012 -0.40630217660662926 0.7551522817433769
Ni 2.7101126636425024 1.4568959071676175 4.9845843060439865 -0.09922761274477104 1.417333987395288 -0.6218567807806193
Ni 3.2890461426369146 4.197043076587404 4.67146754894228 0.22279123113174532 0.11364610216294622 1.0383495247670051
Ni 5.329740592291428 4.57051838913437 3.065181516755876 0.605324330343235 0.4778901732572608 -0.9160372622886289
Ni 7.300635903406407 6.076763830273306 2.6342839324200282 0.8165481683523551 -0.3788597641249604 -0.25714271202842165
Ni 5.118300939199305 4.600952265795364 11.449903330368755 0.19630346925386194 -0.2937729616569457 -0.5804021131802585
Ni 5.6721103589638835 7.90626369533252 12.264895862113887 -0.31079932101161317 0.3628986128100137 0.8479187122438365
Ni 1.8042305800534837 6.423372374279697 0.34514539431424884 1.4034006651436475 1.8187772932477193 -0.05892454225035014
Ni 2.8261480585826044 1.5971658534601982 0.6210253548153789 0.14355985900324308 -0.6764284453789124 -0.9151818562668691
Ni 0.6911766658614572 9.122629411174048 4.747229113243401 -0.5130381819133035 -0.332615131335124 0.29510376465322724
Ni 8.819298148384366 2.412063988451001 1.2125099714915164 -0.47237541408661876 0.1253513064150164 0.14120395717655682
Ni 6.641891783946701 0.7134597458503458 4.7327092586372 0.08406684584393263 0.43905263156477287 -0.006456297148305011
Ni 0.9085687604430758 7.645801266264841 2.7880389996655586 0.20087231957146698 -0.9970617217618118 -0.7637659915543169
Ni 7.812819985155081 3.974048897700636 4.103447787006377 -1.458620761959217 -0.5412884350082484 -1.093906436096703
Ni 7.6309337774575905 4.036786432887275 12.6084346962823 0.6348987015662421 -0.44124166879629173 0.22213071472961096
Ni 7.9364888099406645 8.917262010836534 6.743351049292442 -0.7682844482499607 0.5696515595319738 0.5296901886476877
Ni 6.982854675915173 0.7533196830280259 0.5201497155565151 -0.07872435058509668 -0.9500863814535381 -1.1145773341824934
Ni 1.8045845678822277 6.546478449183687 9.101807665555102 0.4983013899237611 -0.02950880809239434 -0.20204782793680687
Ni 9.566112624313396 4.995485315847104 1.473334557337832 -2.060610371502264 -0.9441437907168578 0.5765045778980653
Ni 6.255772752285877 2.019182881600066 7.0518977327589525 0.2336366584866815 0.3190939569202375 0.15323929107453607
Ni 3.3333581575068756 4.4011125215528555 0.3624662910730253 0.44252233528092816 -0.12818646187096633 -0.2260932989217848
Ni 6.187289722340392 5.83743175159835 4.826033157549524 -0.7557492918974275 -0.5029368318132434 1.1687769601533484
Ni 5.270297866895406 2.7537620859099423 9.42775784294043 0.6303005406725983 -0.11515919637336296 -0.13347547818404754
P 0.242162165982709 5.538902016024196 12.447877616758285 -0.8668991100010811 0.5011226614226401 -0.21015348776307674
P 3.992301962408438 6.159560675755441 12.413775881594844 -0.14248899453656752 0.9355514210621566 1.213954070910619
P 2.4431604577145167 8.41883807135391 1.3499879522425156 0.4954472083044177 0.5662613029035023 0.9867235730605973
P 6.19850841352828 7.763878898678468 5.902466577027428 0.7012743007779988 0.5537264036612851 -0.361837261425035
P 4.729522460517404 1.0312391580193812 12.754923028766484 0.6033201554290126 -0.2972177256724365 0.2657304536974327
P 3.918944792359478 6.177741127575295 8.177284038307763 -0.6571122615488038 -0.16060241630782662 0.8251238258365081
P 4.598683113047005 1.2596157672252577 3.7350145318662653 0.7129355391660109 -0.7355373357259268 -0.33331961360131623
P 9.33311602011186 5.598462737363133 3.731361195941407 -0.5132184162449096 -0.1441992923594549 -0.5954417811222003
Ni 1.4374447298086817 1.1461853596402714 2.661185192082378 -0.29567480666534884 -0.13098922142708408 0.050866190722247885
Ni 1.9221811399132016 6.447724921575089 4.725257361011589 0.5308530986075374 0.5476488300086375 0.6115194034103533
Ni 5.996617355201254 5.530941828182952 9.010623123853932 -0.7549226822310741 -0.4533623633192257 1.4748176834340536
Ni 8.642848830671944 2.271494513995637 10.321235829945817 0.5625709985361085 0.27940255186788654 -0.05547617869043349
Ni 2.2389004039182034 5.292481104163367 6.9298254838471145 -0.18625122722418247 -0.4462866874193669 0.3192536224265534
Ni 0.5299451941406327 9.02036323511099 8.876236636807297 0.38474579059209224 -0.5542825332750712 1.0797566269588823
Ni 1.632591866167584 1.1581301797076349 11.670851641137602 -0.4583929837645977 0.3111713596390512 -0.6438255717422267
Ni 4.048331882070927 6.897135161693151 1.6796568171518544 -0.04498247824796124 0.07701688097568672 0.02130338946346654
Ni 5.556428951852524 7.7743805375978745 8.013644541690379 -0.4540627318203599 0.5637411075848098 0.023119102515966636
Ni 5.211744649376742 2.936165660434059 4.888391290396638 0.617679252364162 -0.2948006315905116 0.5837450615105624
Ni 0.5570715537556195 7.431874621760517 6.84625258812504 1.1430240195589605 -0.6562697110428504 0.05848616916135088
Ni 4.7268448602743405 4.548244385756473 6.983043469423837 0.8279103874427096 -0.05007017718351377 -0.6512216070959816
Ni 8.169049736814516 7.086010359855588 9.150854948380339 -0.4805749191782755 0.7804210836124946 0.5635971258077777
Ni 4.74311014717458 0.5855457901031317 10.49127796795797 -0.016718598306261528 -1.4878171810175151 0.7986435201577923
Ni 8.119818198786112 7.227242426913473 4.801430095790713 0.6423235332754035 0.5424253768261691 -0.2457743222904799
Ni 7.270610474240117 6.131032887403067 7.164749960223657 0.044022171217220955 -0.545586291052654 -1.7997668135834877
Ni 2.6244929921414077 5.026917619717378 2.588319066688163 -0.6135330914062724 0.7853540021377377 -0.03068405934741812
Ni 2.224541205326586 5.4631304674509815 11.348382344068256 0.5270928602341568 -0.8593050997039071 -0.33732127856154165
Ni 1.0693972306357915 3.3274039006951805 3.927400563160964 -0.35683132357001124 -0.0018763910871064456 -0.5795377082974342
Ni 3.973740292926859 2.9513417540150853 2.4351884702789808 -0.9779365708965868 -1.7546511521917718 -0.29666133894833424
Ni 1.135901559384707 3.2863685423938507 8.312839592850352 0.3730966363889381 0.6854165078101356 0.26010796530433267
Ni 3.6344111909372048 2.484377348235716 7.257927725698987 -0.24729307292785155 0.14842670017724116 -0.42327300013301294
Ni 4.015819461492434 6.88564417217546 6.100259545490917 0.3968955385807488 0.39969187037896325 -0.684971192742601
Ni 0.6115103435109586 7.353162251225429 11.040779628145064 -0.17803938083735144 0.190631101459433 1.2009959680880542
P 0.1495898104606418 5.561575390285803 7.990968444445475 0.8438345148721338 -0.39677803916627796 0.49213228499857176
P 8.558027900938272 1.6406609733407498 8.08400007648381 -0.500232545508203 0.2393223960175491 -0.3357253948293315
P 1.9307857671349802 3.3126816376638253 10.487611017116622 -0.22318666679795113 -0.2609111779319184 -0.27827409469039815
P 4.048785712620599 6.139047534910273 3.9309876398255708 0.008752549381649443 0.7791897823085548 -0.49198136124300434
P 6.925926171764334 3.8127756735692415 10.406934467962554 0.26137834737632404 0.8734291978101152 0.23901206386598192
P 6.209500189441333 7.706696249419813 10.144271868390067 1.3430902982893642 0.1734741300641722 0.21501750072359743
P 2.3731797869551152 8.442518949435788 5.976009817601754 0.07379811692807291 0.392431332161808 0.029823511119335736
P 6.980276918393036 4.1110421874245855 1.56107906347249 0.2605471097242803 -0.17843841604798302 -0.25818812257380047
Ni 5.4420636533352145 3.0659339678072315 0.22624269796131932 -0.19191279638533398 -0.15478478118478506 0.9233849609029517
Ni 1.4195093464856494 1.2573012314219312 7.054461875364599 0.2446237536258045 -0.8063694280471403 -0.38548138320653613
Ni 6.893368368130874 0.6041410430453867 9.135165118617085 -0.11738988547609461 -0.18095963980793994 -0.025227921328853323
Ni 2.7832156885836463 1.4809943093551938 9.390839635385724 -0.9034997919432505 1.3168503907562288 0.28845566320909033
Ni 6.696070074966528 2.1068357139636906 2.3886926228039993 -1.170711715282216 0.3262781333735026 1.2807914402501426
Ni 4.120953846629419 7.000544990741382 10.305267348225064 -0.27847721184013974 0.09787855491604434 -0.250093261380808
Ni 8.067255544523118 7.141069082141779 0.30276397460259197 0.41484235286715654 0.10743380270464722 -0.24470808580949466
Ni 7.807410325002993 3.75998610403141 8.38675406681431 -0.7501352881447596 0.1249342734822558 -1.0662961305786023
Ni 3.088952253286589 8.36544036887952 12.35107283752998 0.5641290870518477 -0.40344336700159544 0.8355342225365546
Ni 0.08617152944949523 4.889198201113953 10.244225323971998 -0.15856301728029465 -0.6063160048325429 -0.13811040585289763
Ni 8.506881197990253 2.078407768332245 5.809527526421226 -0.01586679182892751 0.8909394387797366 0.01097269696141981
Ni 3.7796914264981623 2.652412647557221 11.650911234446118 -0.7855031261210923 0.19893293645690902 -0.36094714551059776
Ni 1.2645171371617137 3.4113534757734825 12.64309373536074 -0.7797191724494635 0.21709983717392287 0.10750065138684067
Ni 3.109773998905534 8.528819366761391 8.260564667155847 -0.16072197260482643 -1.1886837263796044 -1.2432718460381298
Ni 5.664585848450324 7.902651204157131 3.6642478265948317 -0.7485327195443302 -0.13915478795701197 -0.6618356351664021
Ni 3.2128570699580017 8.60959212799199 3.6757388161125233 -0.195951742341398 -1.2487884049809848 -0.4931190743918733
Ni 3.551632498677056 4.220206587842656 9.192860596396867 -1.0552753539880664 0.7638783487624651 0.30150863973830655
Ni 7.1738174946061015 6.0796774224022 11.290675066694181 0.42285750986214915 0.09889825442981032 0.2469174347559877
Ni 0.6585870940895205 9.052276599363914 0.40985981537525823 -0.9531074276680489 -0.2048629287880988 -0.2096536653085228
Ni 4.761680893267153 0.36128814696607714 1.645488822728159 -0.12236676986539571 -0.4083539169293355 0.16610097752855266
Ni 5.82433420193482 5.69658090220219 0.35744420221035644 0.235583240690091 -0.16605212656848822 -0.0689749845078167
Ni 7.915775983653641 8.985173214289432 11.324111486271807 -0.18676287675327835 -1.0784515349942136 -0.2769196375450328
Ni 0.010352782499114609 4.6362875123928164 5.990555994379837 0.02455994872755125 0.15409906797167008 0.21382039509170273
Ni 7.913488677683295 -0.3415120269335759 2.5668646812829747 -0.35419979948443514 0.020436156367164802 0.03364674152016786
P 8.395311495658921 1.542579114945666 3.6440151530293607 0.9363420352842519 0.4982191146226001 -0.2985976367390986
P 1.742409782577182 3.1423408791499874 1.675950836883234 1.114410983807958 0.4795318226257418 0.11986637204104518
P 4.710044053325487 0.9116548081808444 8.31481829404692 1.0282594875208548 0.4392837737389725 -0.969329031733234
P 8.641741484130744 1.5416986836793027 12.451610826859888 -0.030462687365231406 0.7221138632311692 0.7101633757375124
P 6.2252571861259405 7.60027298552176 1.43660332796959 0.2479654164045278 1.2051102473667439 -0.05559290677395586
P 1.8360441015854814 3.2558983592888815 6.008064776986177 -0.15154750519440996 -0.37403123238806546 0.6418733331118623
P 6.7055097503997025 4.096528686446079 6.114660496493106 0.9726511541279313 -0.48827537314632685 0.4259315208017826
P 2.298461125257139 8.592364720326445 10.332965534332637 -0.3931288724494649 -0.24619444054703402 -0.5315395831516008
