# total energy = -381172.31733868207 ev
CRYSTAL
PRIMVEC
9.18001423500614 0.00000000000000 0.00000000000000

0.00000000000000 9.18001423500614 0.00000000000000

0.00000000000000 0.00000000000000 13.43587876298843

PRIMCOORD
 96 1
Ni 9.27374228303572 1.6406429822332589 4.414545882306931 -0.7188033108006976 0.9090479754549893 0.45707297940159347
Ni 1.117226104800005 2.9276901722471083 8.98846874751689 -0.3265640400450376 0.08590698437646495 -0.0262753887567612
Ni 2.205507624396526 2.84381238125306 4.29872898543278 -2.2147783450386567 -1.7197332572686639 -0.43412254125300714
Ni 1.867536216578109 0.3430231697078801 4.961212064049207 -0.010892221432471563 1.2487439248962946 0.4279472656802307
Ni 7.559126745277665 8.474612855015264 1.4527951028665185 -1.6368360062528002 1.491678206634818 0.9441540751295029
Ni 0.8166219453389562 8.785539940597886 1.6996787364308759 -0.8272817527197752 0.2039311610024488 -0.5126571444248009
Ni 3.473910205292622 1.8591640435030765 9.353225601166809 -0.33743286443874143 -0.8190048574229638 1.1879555899643284
Ni 5.609613000673197 2.512423043714027 10.836547005707017 0.7986620321005535 -1.0815779964383372 0.39691765006793583
Ni 5.050596027642382 0.009284666500096342 13.254602256044498 -2.6931464863736005 0.3619143945198735 2.741418176895795
Ni 1.2831273238920964 6.769039631378821 3.02528933067016 1.3053241352841842 0.8680170256556082 -0.26865379799181477
Ni 9.077032935829802 0.02941919194468929 11.090176113805951 0.4475727532206421 -0.3684323981440494 -0.6858757068347413
Ni 7.829698487836336 3.46894381753649 4.10167814169354 -1.4661044719307719 0.15927726973849987 -0.028719736532195703
Ni 3.741663683449939 3.666451825989696 5.614463720248688 0.9388987402678346 0.09767492354567049 1.1595137896838676
Ni 4.139800905230815 8.334590096338214 9.10446098266487 0.44255678806328946 -0.3539730281856097 -0.582672397271674
Ni 4.493194737134818 6.395633368220902 11.096262463311156 1.003578182724091 1.0470794484408357 -2.1326699084726757
Ni 8.615682135326695 1.761020510229861 1.9883488772542686 0.08897405333756289 -0.2825128153620941 0.4481440523430798
Ni 4.6164088895614475 5.295922730775242 13.107049131607084 -0.910649258503838 -0.33878192226746817 1.0890383093711244
Ni 8.414309340837756 6.1936822328287535 3.9149731741117133 -1.1216972330567263 0.02976283308472939 -0.049899455933604384
Ni 3.927182593179469 4.037709965792836 10.794036195316819 -1.6606279664660755 0.139488774257663 -0.36735510591947057
Ni 5.632058135726327 1.845843842700585 8.444691516286362 0.7846320363700486 -0.15212908872949285 1.0473756395250153
Ni 4.65854515536671 0.4945925504175802 10.884257376217498 0.9495253667437453 -0.27907087956008064 0.5457521272065569
Ni 8.206372836098106 3.053915369376162 6.530253688460831 -1.3206911046585579 0.8696419628535409 -0.4587498528833841
Ni 2.1740201752217874 5.590720531168355 9.242917630896088 -0.32602539393274815 -0.694488645314733 0.5554367014841725
Ni 8.9379740786581 5.240952804927331 9.760856793774657 1.495498865932489 -1.5291785175731214 -0.47051702072164125
P 5.119400235095637 3.6919539058169333 1.232562886924348 -0.7839509511426241 0.4927416364477965 2.0452899390951096
Ni 6.410330571173893 1.850231889553508 1.068240630298162 -0.36146830812139036 -0.6937692506502051 1.0087671831241982
P 5.499682328991712 -0.1278105856049944 2.485342001420885 -1.0420138609924698 1.7717687857086648 -1.673269566489486
Ni 3.412046088677881 7.958126888406189 4.344276544565545 0.6719015040428363 -0.7179962415183699 0.6456754804667719
P 3.631898252026514 8.49838909214721 6.881494807002887 0.15193239933765446 0.025123791650821247 -0.47451688590965374
P 1.4347352606620105 4.080617352802378 10.74648647505723 -0.7566702610498001 0.9723397935350995 -0.0759573293629208
P 3.56938235439387 2.2501500341156957 12.003842744702025 1.7450617087311238 -1.004357741202593 0.046040744309146515
Ni 8.095707763269688 2.3987652862118596 11.00566398382124 0.26253508668858655 0.5950702567153945 -1.1855431238680938
Ni 2.6469286137747465 8.824913022087815 11.537228123978279 0.13025157193011117 0.5132834651548902 0.16776216728105947
Ni 8.39531589117521 1.4556565133352548 8.246955843477606 0.40239744223558443 -1.2806916814474847 0.7012408764369019
Ni 0.9942965328178119 1.894038917968042 6.887581156508091 1.5208604846257292 -0.7108048659762533 -1.2131038070951816
Ni 3.134947355925846 5.666675969789867 7.005426836550644 -0.20601606855593552 1.597262357725236 -0.4249059077507456
Ni 0.4003073771700624 4.1876654999821525 2.9648150682259886 2.1786327483560353 0.6556878703974515 -0.40132143556258626
Ni 7.637588327813086 4.123543099840593 1.6915232116941883 -0.6856473928740192 -0.4396239306872106 0.08423448177004848
Ni 3.8867079099691417 1.2358227100152952 4.347890716209887 1.3674468727568578 -0.5768190238146904 0.04936440936574079
Ni 6.056789859040503 7.8605341559931725 11.805153268403691 0.6966650841407614 -0.8128650630738129 -1.2856798786906953
Ni 1.3748540271439875 7.442558923230777 13.135936800721682 -0.8117687446858407 0.3581752391924154 0.3037971786621671
Ni 4.852886058873769 5.851377858243434 5.420920559987485 0.4087233844536122 -0.6752668209706436 -3.008719060404141
Ni 7.101310250294173 9.69565574194854 10.016998471797534 -1.6673884251183606 -1.200837331023003 -0.03766743264378674
Ni 5.5692576576492465 4.044099255771151 7.399702944301521 -0.8750675047444866 0.2243827439885813 0.4590146765089966
Ni 5.325197796494845 3.045414676100416 3.7527219287198776 0.7695939110900036 -1.7108320981242922 -0.6768192530594279
Ni 1.2973930661712636 7.297395356525198 10.718888597956933 -1.1907058990159558 -0.4716768453576973 -1.68517043169213
Ni 8.448927174901295 2.7958559863583567 13.181510981896023 0.5503140355456263 -0.7611174981878762 1.3577862097386424
Ni 3.497163181607378 4.068655794121712 2.863024315256819 0.06420147437857329 0.978793005359611 -1.653701414549571
Ni 5.412674153108864 6.792008027249141 7.233070996068232 0.7877698106680819 1.7104826852046735 1.7570451063452448
Ni 4.51283078780093 5.638015965030818 8.962940045648077 0.8888784424856497 -0.1662084496406944 0.3422634530581654
Ni 2.551484004716509 5.745826053400535 11.84164474339334 -1.776225793038754 -0.21776909532680558 0.43098785227876746
Ni 3.453154192877437 1.6267628005562316 6.9395106616077005 -0.7757036235321673 -1.152950791754369 0.03199403640809329
Ni 6.850750938989418 6.111576184601681 0.06162727224485541 -0.06831806765010814 -0.25393757482756263 0.13456228349032312
Ni 0.2523962321735207 6.206066072168906 7.519913396037197 0.11075258266523508 1.3002310370319932 -0.030289137901844614
Ni 1.5326492935768092 2.6671705453870787 1.3921858942115986 0.11407033418455838 0.4445195682166151 1.001188599445992
Ni 8.978751702341537 8.267851392110707 8.963692806823682 -1.3887816296788922 -1.2581515913634398 -0.41098775500775675
P 6.139253927826705 3.9072986821262665 5.427436534163644 0.1738788217017586 1.3691484288289968 -0.2295077239199725
Ni 6.959791149280247 8.818257511693737 7.5547928605093295 -0.25060413957895555 -0.01215231909181778 0.8032761338337973
P 7.474698153423418 0.8196990861446041 5.61439670614403 0.9427782778278988 -0.5339818740445063 1.5876754853677495
Ni 5.592464733892319 1.925370306899057 6.206220296409762 1.1358154176256632 -0.7047470898179475 -1.6522669960958896
P 8.118465018810264 7.730682853201139 12.980228151547584 1.166800810263584 0.5439035040335923 -1.156445692281505
P 3.619339992413965 6.271565474460964 3.074263789154799 -0.7045845960981544 -0.9340054167312754 0.006292517876931098
P 2.1321776698752983 0.9380322249484323 2.6533041337315564 0.43303702149831225 0.46354084651412425 1.0279028755123845
Ni 0.21527959820754333 0.7457228586140757 13.083428954718862 1.1987696498606968 0.056748874755270004 1.7435380729977457
Ni 0.13660320333664586 8.772935780913654 6.64632578973354 -1.560589684894551 2.2486150910824434 1.2594286583036505
Ni 2.7000533567409892 1.052534543769573 0.14391600275722796 -0.28411178441809776 -0.5231606150592861 -0.6580201180750538
Ni 6.07828027260262 5.120997557590215 3.060344133416124 -0.61605560071781 1.2799697156797956 0.1521851387784089
Ni 1.7023877586616236 1.8813613181691167 11.144241808241702 -1.437934180144143 -0.12799594312671503 0.20558926543116207
Ni 8.794894375206942 6.567776997061922 1.4746545530049695 0.4665192124161579 -1.1644006854625237 -0.49566575207312696
Ni 3.356754862328187 3.722000092740816 8.197807882722003 -0.26543709082672995 0.05981671504731634 -0.5055601283687036
Ni 7.630180056243403 6.909135830170565 6.196734587595693 0.08224856168827126 -0.026917393216134285 -0.8023297107601279
Ni 2.1341880930150263 5.4277293766209835 1.1316166952741507 0.31127060422107683 0.39291804199023944 0.1873074364028387
Ni 2.2270531180446635 5.165318666807602 4.431931911459128 -0.4479067395212931 0.7676018203606393 1.6620873246204213
Ni 6.394917327102643 3.802609798631014 13.112961060839893 0.7241658606641915 -0.48383224977330874 -2.44746652356914
Ni 8.564228154969724 4.83376408901051 12.065043146280225 0.026003366042297152 0.45134533288919687 -0.7691601659866947
Ni 4.024812045649831 1.908653500792002 1.9759475958868769 0.5033785473363525 -1.1204134812482962 -0.38723564689348144
Ni 1.2586625856849016 4.347673149870109 6.958643647488164 0.5393917322061678 -1.743796983086087 -0.6218855771360258
Ni 6.125199325877282 4.66134505973939 10.933688081414669 2.04127464728813 1.911609543989108 -0.522972153197564
Ni 7.073761027269862 0.5070580918853287 12.670450403759911 1.8513421145576179 1.6041104909953212 -1.0007980488757926
Ni 1.571948934952044 0.4051929808000321 9.242406304097535 0.2355014796095622 1.41284766948916 0.11190983619812984
Ni 7.401414098973874 5.1657501274814255 8.087969011183885 -0.7083515193397543 1.241882679000087 -0.4068716759568541
Ni 2.021852257577337 3.7642281586894453 12.800146564309655 -0.08371974691715904 -1.1570876967408783 0.2294218490743855
Ni 6.33204340891087 7.586859568588712 3.7118901429518543 1.259740018896482 -0.837470520327319 0.9094236136268531
Ni 1.0349272762718622 7.492571641336892 5.289113914141742 0.979668723096345 -3.724659190724431 -0.5514473778191213
Ni 8.014896097064083 6.945497866958069 10.789695884538446 -0.7266642016060131 0.9468017971649951 0.6881375062857246
Ni 2.9598385824540863 8.065523876130756 1.5524487484981142 0.9307568278869905 0.0056888228546611705 -0.022370397275400185
Ni 6.97478211269201 0.9956827149826474 3.571927972369425 -0.6678946968762883 0.35158858711383323 -0.16204609073288867
Ni 1.9959462571192872 7.6863525639694155 8.175638148098974 0.5303067391857641 -0.5156681633369828 -1.4517253203909644
P -0.028263428139703995 4.7954375291549605 5.317679364753122 0.33322679677719386 0.26543991904020736 0.18696805078554898
Ni 5.087563945376106 7.045569203241983 1.793166166432538 0.7742445224881375 -0.5035181582380103 -1.915927454638171
P 7.6821022173315425 3.2680483837930563 8.920052854670075 -0.8201381996964584 0.2535267125423892 0.9437049034072263
Ni 5.5763446287171465 8.604693658165715 5.660415200012265 -0.7336226352017171 0.5927688622757274 -0.4845066501325139
P 0.19977271799005988 4.590108148486921 0.5617214052543951 1.2164945779442855 0.05420991038350019 1.0885477428879509
P 3.7558927056717595 7.358056891261836 12.80545444859911 -0.28505949304334777 1.3247565329771829 1.9150730770576763
P 6.305742667836343 7.337199898688948 9.396422158627956 -0.5149958198603066 0.07054747120125915 0.03356600888090348
Ni 8.894414910630655 8.657432840529818 3.7248422251794455 -0.8648998201828654 -0.9830476668709069 0.19025237796377556
