# total energy = -340859.29426275083 ev
CRYSTAL
PRIMVEC
9.33579454127076 0.00000000000000 0.00000000000000
0.00000000000000 9.33579454127076 0.00000000000000
0.00000000000000 0.00000000000000 13.66387898772643
PRIMCOORD
 96 1
Ni 8.684706931692048 1.1224332467521447 1.743224376091832 0.9063141214635939 2.723734900683419 -0.26542860618629766
Ni 1.9871425482844198 3.93440258211621 10.23440962190173 0.1775380157209007 -0.03309549700238816 -0.5750333926691774
Ni 6.998625087075323 7.0349973427652674 13.269033923719313 -0.9127819885761248 -1.4272198790504322 0.47839642346971806
Ni 8.355648180074112 8.45724029671117 0.9165771090687725 1.99827448957752 -0.9743676225984058 -1.5512329262699995
Ni 7.110869345329996 1.542600017691993 4.09290570252275 -0.3620537483112151 -0.309335334871577 -0.6722606871544681
Ni 2.8963089036143117 7.38684476895691 8.496377814756187 0.1142269143670807 3.0152388638005294 0.5758772287267115
Ni 0.6617108505703332 3.9313311056988614 4.914870134983675 -2.021389478328428 1.919140048038198 -1.5739293394262506
Ni 2.5839332169137093 1.3215377377940978 4.18243130466308 0.13127332832640617 -0.34245474313336505 -0.44718631641550083
Ni 2.1476155213476793 6.153773020618129 1.9818230125318195 1.8009788316137176 -2.6341365834982953 -1.3728050517449777
Ni 5.767131088020834 8.744418673836014 8.854207618115723 -1.8442458698324686 -0.10478248112472921 1.617822184154459
Ni 3.9364564569241645 3.108791588291709 12.808220036750603 -0.808146574552221 -0.2916109210086204 1.2046104249121898
Ni 9.231009623224002 1.1257007748557075 12.7100718947347 -0.11467968563378315 -0.7920404130189779 2.4652567576730253
Ni 2.928788132963726 1.6131692889343676 1.41995008279666 -3.2401764518513168 2.0910026106408766 -1.8069286214392493
Ni 5.190617765222798 8.229446908919936 11.872845305291762 1.0240516200870944 -0.7824969923049169 0.17666769730080542
Ni 8.362762055545298 0.022337755695413394 5.670469204502324 0.6029735707228713 1.0566349533397545 0.5524393094187454
Ni 8.822409901770767 4.406607072053942 11.918249942239411 1.544757602958301 0.5102192244072696 0.5007362246174989
Ni 1.0309891388252947 8.294255994905459 7.1504447121408905 -0.7374582068977235 -0.2061237977783934 -0.010282612872930679
Ni 7.580823908773559 3.498775735349219 2.189882397736451 0.423151129843168 -0.23775890818517115 0.035776900489293224
Ni 8.978952505315169 0.9003244242816513 10.566619204190959 0.9640397583098365 -0.5165305113372782 -2.0538758809919084
Ni 4.12489947055392 4.975362349554662 6.355097563611587 -3.629941807145187 0.11635398801241252 -0.736573490299925
Ni 6.748677858741933 1.914668774947397 9.08303634552606 0.0950130604427912 0.19536604504125707 -0.6190805035870628
Ni 1.1753858736190252 2.8948898628379074 2.703180254684046 0.03884705477418471 0.7493343895100191 -0.5740160071482565
Ni 4.417856704524779 2.626719163481219 9.834781599041419 -0.15388618062991563 -1.7856393730431697 0.47193806943888394
Ni 0.9083308017148383 5.713842372549016 8.338409635379174 0.923837475059338 0.4517273988189639 -0.17925139886758162
P 4.652717288814291 7.23194526525887 0.836532939905524 0.34158879558864397 -0.9404807400429739 -0.591965906758458
P 0.8408712836475972 2.7523229437821723 11.71356544677603 0.6713281480378696 -0.11700910509790816 0.5298441977270488
P 9.151216586935 6.385282054652843 0.24010823442383358 -0.2558445620422884 1.445008570492421 -1.8946654599356014
P 6.804319194448317 4.0517908631853485 9.984606164804896 -0.6311027248589196 -0.7602230113980648 -2.1278092379462645
P 2.6110256927895357 3.8727396589046896 1.1557424282398638 0.06271614808229843 0.03602372639277667 -0.590400619153867
P 6.881731603119009 0.8563033520909953 10.95262350201833 0.6657671090103243 -1.8059004372850513 0.173091807024089
P 3.5053668063238343 2.7224577369156084 7.911208343222084 -0.18361070427754184 0.19487239323429018 -0.5490194851039191
P 1.6884251290567094 9.210461539349883 9.477239338154996 -0.5825988637212611 -0.07859116744134206 -0.1205986222213794
Ni 3.130030520964868 5.324651768030942 8.392600188607576 1.4551322891899843 -3.421711247436436 0.5899787011251001
Ni 0.9044732513937179 8.321171090684235 4.598960850033934 1.5031340138802434 -0.2439840631592766 1.8736487484746183
Ni 6.373808363112047 0.7753844189754501 13.473458884093326 0.5933525026933394 -0.6205306057700282 -1.409167906644728
Ni 2.934987100565914 8.454897012271188 1.2254808137644753 -0.5036742241999004 -1.8909011077971627 0.797493208603433
Ni 6.689712980164497 4.83160044879248 11.870152862134425 -0.9959795444412266 3.5503813338120405 -0.3137661169494209
Ni 5.989967168889235 6.462423725280669 7.884481830493857 -0.3521352036459226 -0.4793055655475487 -0.020198843545378115
Ni 1.2578396113637866 0.20206580508323924 2.3976831814311725 0.5319067366830323 -0.42702269698343237 -0.6991685672889056
Ni 5.920182104391715 5.335331917032303 1.8797669069040557 -1.5821974929723137 1.2469279547334784 -1.1476640894341332
Ni 8.691419367996225 4.562057387632296 6.944146991373808 0.5772864503694122 -0.9180139263990253 0.7456299440752384
Ni 8.203250669323944 8.56041016263252 3.5537560967992246 -1.1969883895905578 1.130592221553511 -1.1921752844726308
Ni 9.102409052862352 1.4633017785158149 8.25706872434854 0.8994153374612317 -0.5980612210229185 -1.274186019118483
Ni 6.240941334626601 8.492791002477935 1.7607411274653029 -0.2944548182153187 -1.586447269387603 0.6189311224933921
Ni 4.818567679556557 0.5445933075440612 4.598688244832151 0.760785054549122 -0.1792611690595945 1.1003712178854406
Ni 2.5577929920852074 6.996393832170319 12.978335018457745 -1.268977735444666 -0.6686385170208484 1.274250296697515
Ni 3.109295721199116 9.122873114585238 12.82305834865861 1.8795401742583886 2.2835525263895766 -2.5482344842178373
Ni 5.30518663632829 3.881515305811401 8.139914771723399 1.406620714742842 2.2024995276713035 0.5208607632815159
Ni 6.135288147346544 2.7021523837006107 11.810592359862683 -0.5213798690097794 -1.4221257523569766 -0.15512596657428768
Ni 3.0357670030743718 0.44984712907369634 7.64114154398587 -0.009057996437210206 0.593191808745759 0.1066850974640808
Ni 8.099399290398138 3.0343479622979674 13.453592313223663 -0.9649841245009768 -0.9673076304278309 1.2598274364039659
Ni 9.131079278022472 7.775596591129646 9.46682712645813 0.2881574152423812 1.5824268353743005 -1.192995723491397
Ni 4.337279461490921 0.3941507121792814 2.276320652608643 3.2448746286579344 -0.3055599269895447 2.424530997818889
Ni 4.307115509197746 5.540915449513891 13.05990839077346 1.2252185880808448 0.13339294577257027 0.677703455436594
Ni 4.851719086115846 2.8116052393753828 1.6588904093183345 1.0246175198928935 0.8371694441471325 0.07308026492544188
Ni 8.060020908852914 8.374879916912226 11.728759452457599 -1.547555220308096 0.7396840109044487 -0.08779340276590042
P 8.586522380077277 6.776563877157196 7.210770749568324 -0.37171826798417273 0.975469854523649 0.8199345683260848
P 2.6334502713745582 8.066341241784663 3.3383457069410354 0.7698037131079646 -0.4364028526467517 0.729007505027209
P 4.667075740880804 1.0350595452628757 12.033614223043259 -0.5477429323843405 1.2521884318014693 -0.07611133844228182
P 5.011669254682536 9.222710101840953 6.800758522394891 0.6042516661043464 0.7296641647746014 0.1915682685617217
P 1.3628673004068763 0.9066708974382284 6.092778540298651 -0.8648136882269624 -1.0151473756189293 -0.3295393206232776
P 6.26874333089063 4.346671270840019 0.08066780024129999 -0.613202447539731 -1.6976580226361797 1.9549678563700847
P 7.633673841900042 1.9031484044336928 6.733108554118185 0.06544100321262925 -0.11550886640329786 -0.3116297873327084
P 6.686352094115119 1.2636744829772917 1.7932614343108761 -2.054827703382216 1.729546386704344 1.879795999022937
Ni -0.04915855994891492 6.410722094887725 11.208220753232508 0.23334946626356587 -0.7114779807838779 0.8005340523122858
Ni 2.9312247753495257 4.503148523822349 4.0532808560005735 0.3639327105014829 -0.7598805404569815 0.23232411032284508
Ni 7.656854619846175 3.5432981397089076 5.2207770496186825 -0.7904787249588129 -0.13297745550170648 -0.21716334342200666
Ni 8.11183456878084 5.57463633954266 9.064166837517712 -0.7559953464699625 -0.6870591856198812 0.19056965209387824
Ni 1.807531196328864 4.7820647227424695 12.530733147980925 0.3811290197751113 -1.14429851539601 1.0950150957798497
Ni 6.784947420691481 6.671330800633311 10.484772293094002 -1.374805370004458 1.0661966288862605 0.16931897024521805
Ni 0.23724587980511255 1.2919245973812374 4.078284914628494 -1.0106579723890077 1.4900797517994466 1.2276091998002083
Ni 7.943099417512856 6.287349569491775 2.0695449391589826 -1.6815906847606716 -0.548603737722739 0.16645733242670685
Ni 2.688195370801107 6.22322199651071 10.853889072102701 -1.4876927396245085 0.6869853949591523 -0.9255755407963673
Ni 4.238385389487947 4.557753586330175 10.937402422532475 0.942048855861042 0.9147995332267859 -0.5526820215571707
Ni 0.3051628518068524 4.598887097256739 1.113436341513849 0.8227046748720541 -1.1364934175292944 0.029644048118677976
Ni 6.1874192242902435 7.709461822313536 5.709342519560681 1.8376736159315898 -0.1495443587214521 -0.028186746846861132
Ni 2.05199831324285 2.9207686854181247 6.042536094598811 2.5986792711319504 -0.9891746057042514 2.572220048499157
Ni 7.4504215300576595 8.740637677030463 7.570814069823159 1.5492179527224996 -0.6317411297738669 0.6748739564075991
Ni 2.72113205408502 1.6258472979761913 11.092719236248312 -2.537916647231597 1.4479362856621774 1.4371242826483377
Ni 8.33421319571474 6.204951846514503 5.136374931544739 -0.6607136057468169 0.4050911870176636 -1.2843125660295236
Ni 3.8570275166238437 0.02553713249853044 10.183934714916807 0.2625363722401672 -1.8707703984855586 -1.3011923725039978
Ni 5.891549222409924 4.103445814605386 3.7140199480638563 -1.3646693100117209 -0.3699202955434855 1.9783222148253092
Ni 1.0629175562943938 8.339861351436614 11.605811705715112 1.1309927994260391 0.9658899241446978 -1.1053226483534448
Ni 3.9670031767951857 7.533650138752694 5.870945123768315 -2.446422655685658 -0.4355700723328112 -0.32639486145702495
Ni 8.94609050838791 3.197313592514516 9.977036702558129 -0.8755519005800727 0.2739816379626313 -1.2130474999359497
Ni 0.45793099360191075 7.239189841854198 2.657419923962837 0.6063877386107428 0.340415086995517 0.2736221977406835
Ni 4.140518254888951 6.374312496019454 3.126910498415694 1.2257526062074438 1.381439330381208 0.6477452185116069
Ni 5.55925095007217 2.292983178777897 6.548100179315003 -0.6105711805644711 -1.3045471479088435 -1.1225966049425442
P 1.2567006444248305 9.023054798918686 -0.0204967370039203 -2.3530008509893863 0.3699385503759306 1.6603952816299792
P 9.256290954950998 5.072846716575812 3.245622595156505 0.3301934092675088 -0.7842270876221462 0.33746217501478015
P 4.340957764556074 2.610400194552568 3.9007638470797605 -0.04367224407696995 0.03480193817053361 -0.07361274039014419
P 0.9810893167866 3.4350122583568368 8.300533383182133 -0.019140577484192844 0.8760774340662395 -1.1136378530873594
P 6.554801412665681 7.276747743456006 3.69376967603689 -1.194227281905653 -1.1223703478643507 -1.1025332585337657
P 2.029144288107074 6.15395973650976 5.998825904367723 0.582360779568526 -0.22628176078350706 0.7176447717162221
P 6.0090028540411335 4.990626373695591 6.001927255327733 4.215825769375623 -0.13935250579011482 -0.45934712014775086
P 4.431617665738069 7.051306975899338 10.095379101833508 1.9757138306681845 0.5326981222360762 -0.7358990899407197
