# total energy = -340855.89443326625 ev
CRYSTAL
PRIMVEC
9.47993552835027 0.00000000000000 0.00000000000000

0.00000000000000 9.47993552835027 0.00000000000000

0.00000000000000 0.00000000000000 13.87484389230485

PRIMCOORD
 96 1
Ni 0.8524367547950276 4.035437934951773 3.57332709948129 0.23104781471358277 -1.9142688359888258 -0.15432841037365677
Ni 7.716468478474798 2.941804127344589 10.862310207169129 -0.5446660932312297 -0.04064528432518806 0.31051907076703295
Ni 8.275936356301706 5.629346902662685 12.252861284910946 -1.5183382324245078 0.39891848254804846 1.19029452251015
Ni 1.0082385479578555 0.307959499091064 2.8854677142098124 0.3672874859063287 -0.044371327026523584 0.23367753902694596
Ni 3.7701419379173076 9.433986326133267 5.194991422565349 -0.9404740551747545 -0.3505107806686221 -0.6993973954702599
Ni 6.0117485438410405 5.9972632022841825 2.1046888444240333 -1.0636211548496004 -0.05911017589859497 0.1331558900610997
Ni 4.84599138638793 7.325999412123088 8.010308561522157 -0.918127054938122 -3.1417276262540987 2.0646544596646508
Ni 6.80042230397273 8.885515173572038 8.7257782591525 0.500780447591873 -1.8515323761915532 -1.7494559811440773
Ni 4.507178488978182 2.105370451791794 3.162049574544958 1.0552054199820795 -0.10453488389029737 -0.9326437604970583
Ni 5.2879365029056995 7.616502557848447 3.7827540442047702 -0.07591439194012733 -0.07232975991266254 0.8233592777369175
Ni 4.008505437986438 4.4970539177853 13.858180303078553 -0.49523046430792134 0.5175584383811603 1.5837162436096854
Ni 4.35713006871513 8.158318795636829 1.5450057720595987 1.1879419631175734 1.0879273356951327 0.19413705773016243
Ni 5.541752297960221 6.387779668313762 13.225598422138253 -0.42333084995414183 -0.028224799173648167 -0.3020400867617443
Ni 6.784818330018156 3.2687197056091426 3.0698505651342702 2.2561106281285404 -1.245545986784287 -0.7055101932362172
Ni 5.006894332883053 9.338305336386302 7.529933682175074 -1.4215796500455196 3.1554524320393593 -2.3646327788013597
Ni 2.3870477774978895 2.7701698937798573 13.51380647546118 0.5913994927320266 -0.057586025944584694 -2.93237452290513
Ni 3.116253901774756 0.3335098214497309 13.500583861322761 0.32580453617119376 0.3835931650448877 0.670413092422768
Ni 1.2350554864980243 9.044294614498614 12.372517031724202 -0.18288771006858826 -0.9697270385026009 -1.6121901826796623
Ni 0.7110198158719745 2.352227974135102 6.338375932064149 -1.8846343009518447 -1.9087126820572868 -1.4355042305464114
Ni 6.434155513141084 3.727140950154279 0.13829330015146626 0.5424683142489626 2.381332350944228 0.4864606885350913
Ni 7.687763233557151 5.576780659905633 5.450579965572182 -1.8276522271398459 -1.8399963505274957 1.124670456752437
Ni -0.01373453065940803 7.17463328081527 9.121433798256668 -1.514200298996734 -0.6792124358819528 -1.5759756804323182
Ni 5.393012108806361 9.370319078819225 12.767131673902362 1.1959872020195532 1.6453201324644118 1.520402571152704
Ni 1.5245727189237013 8.255004658554624 0.7131755532214703 -1.065107766697456 0.30770217014352813 0.574070771645592
P 8.00852633363427 8.622323722234968 10.339367573114744 3.1681871059972084 1.800505234411409 -0.4963972309225128
P 3.9897541254213427 3.5143069165855536 5.364861440119784 0.08514670917167272 0.3264354848869733 -1.1554524751303004
P 1.7718473584322594 3.1645731333947196 7.87126824244747 1.230887613441164 0.35364829785633933 1.3697495527481056
P 5.34683534262609 5.417185944519703 7.0203520693184895 1.6887231820403947 1.071574348258406 0.027717006299294203
P 6.1849374868398845 4.9902949656932245 11.310425813751921 0.9328990710409739 0.5099387170523734 -0.056051077357297016
P 8.72209056421427 4.812584093425649 0.5546387986455837 -0.9542600532152533 1.9223151033320702 1.01070630912844
P 9.387733720468406 3.043087759015706 1.6100788938192445 0.4350532805973927 -0.7124146336655344 1.2797740547292218
P 4.741797414495638 8.381590238272373 11.185954259667144 -0.30168476030485464 -2.8191832488914157 -0.8983290463755884
Ni 8.686796764072788 4.836814808752434 10.081391982330414 0.4894305697966926 0.6041501075294756 -0.5933566164583974
Ni 5.68376173285664 3.926655674241732 9.457454854639915 -0.3303309632866375 -0.40983590079150056 0.012605861689468612
Ni 6.699963426696538 7.517389831423744 11.302822905421687 -1.3614957973797455 -2.1403582782558686 1.0899937313058583
Ni 2.983231445802356 6.778608972217278 12.118247147755692 0.9077439119315851 0.32609301394589 0.00597858618093809
Ni 3.6058641343578914 6.002173808911441 3.0031819702175437 -0.139840758280443 0.07697600043542227 -0.27148046880733245
Ni 7.683866980036295 0.3954327606181829 6.311347687749517 0.6709334837026122 -1.378246020254891 -1.1385824388478392
Ni 0.8113990616893461 1.3501324244291077 0.5538472240251665 -0.42114335538451986 -0.518585594094094 -0.041333054420832044
Ni 8.768542248526181 1.3809611749153 4.264128108761336 -0.5553935069510629 -0.26395973495025504 -0.39662762963134274
Ni 8.997141414954235 1.1398674534008983 12.156764125992286 -0.787345835756786 0.6344896390532815 -0.6133235464986275
Ni 8.015295007634005 7.391249808677965 4.233852986512658 -1.2677947708801585 2.174927017369674 -0.3609260624646752
Ni 6.462017043792658 7.34390701042211 6.149247425391417 0.36849616150244924 -1.5238699608760145 2.102428593089631
Ni 4.823012022556894 2.138332187782104 12.063038846954207 -0.8115797686034861 0.022902101409154108 -0.9287156290872457
Ni 9.34584188516752 4.940136626571932 7.709779435933884 -0.5997290956436445 0.40389613826829796 -0.40082778375561934
Ni 6.243665687719945 0.10837557147392224 2.7420580928291343 0.42232940527282103 0.158763563326875 0.07571024634912121
Ni 6.898795595422672 6.080335877717916 8.903709065925389 -0.06856540777422385 0.27735646797213526 -0.3316324557068805
Ni 9.271538150139607 2.5458840980379094 8.7809306283341 0.6072799114077089 0.5088745374539172 0.7469761736904876
Ni 2.0235206880470886 0.7670936347913551 8.488879409129531 -0.10043500278931089 1.3267488808168635 -0.21926187782224818
Ni 8.245297204526992 9.243221582580487 0.10020291901569772 0.4916558595827855 0.3385142704283783 0.6425009393935323
Ni 0.6587190113109901 6.472918969702596 11.196194486074026 0.957748783094802 1.2015726665271307 0.49817592008949046
Ni 7.050588323831315 1.710777613465455 7.921883514463422 -1.1737713280441464 -0.60199937973506 2.601513398146636
Ni 3.276426893230691 2.685969106012835 9.916295112337416 0.782897055956813 0.9843818123012982 -2.000255267452974
Ni 6.4116880658310365 1.0083049075068724 10.250387949824939 1.0979543809138317 0.36427261033940495 2.451731212382765
Ni 8.578393700785703 3.6397169842921446 5.0086244211252815 -0.2633408704193335 -0.890206417268454 -0.5658743518777287
Ni 0.41461351426477333 7.316699595325132 3.0010736325459173 1.6698919082665047 0.36903943560042896 -1.1316186059354962
P 0.6268294560340834 2.9705283321333837 10.913327428453412 -0.4549819012005196 0.0928870152387239 0.043037952927080715
P 2.9272239864319927 0.477670253727859 1.8970517115368977 0.6047689720603971 1.3953410280639647 -0.3686851375848037
P 8.74648243844581 6.9814985533690255 6.634464655829626 0.7035656679153366 0.45967339313891803 0.5477030802853406
P 2.6354979290176055 7.7230096340207615 4.0077204993209214 -0.03519351718199746 -0.4123386126086963 -0.25942405186343065
P 6.377674056992027 8.230195667157833 0.34818760569873797 -3.0126968141049666 1.5903471186626417 0.5469785434144903
P 3.0661524422669073 6.907526616086198 0.5356476437104705 -0.018384158934142532 -3.2473040640350335 -0.8076909750720412
P 4.781651063648145 1.3171706884387977 9.08771745939468 -0.5028422152169082 1.708940280418218 -0.9564516615499333
P 6.849319811662698 2.129629606925301 12.73684327974388 1.0752337993878642 -1.6870532505371398 -0.15339741391895517
Ni 1.6837029174665115 5.104499749551512 1.8476299634096944 -0.30227405714942135 1.7916632106397465 -1.7649000836132893
Ni 2.5931700166803218 1.8368512766622158 4.202412780181952 -2.101492968649239 0.41714374730682346 -0.8499267438128008
Ni 6.20413435637695 1.8685142614789076 4.8623423792657245 0.0982045707968954 -1.0986377801341014 0.48354531466050926
Ni 3.43830627308992 0.08893411959905063 10.227966006205648 -0.7440597713746412 -0.15656835544776906 -0.0037918629422644375
Ni 3.5300341297025875 4.636304691429727 7.801839090291635 -0.5157445251008731 -0.09300040088813662 0.6178936823678132
Ni 7.660593738202469 6.899781508722353 0.8710544002685306 4.119279045897125 -2.5914503574836787 0.1290971466106938
Ni 1.648238478484702 4.71043778761731 9.490434602507817 -1.1346666487332007 -0.44513431898247857 0.14920908686922046
Ni 0.3820328716845321 5.9077631305313725 4.847731902559292 -0.015757519944572862 1.4178641488671453 -0.07330112268699635
Ni 4.897799234299074 1.901058880303968 0.5147813575188478 -0.7644154522128577 -0.11730863861619797 1.0697550356614802
Ni 7.262133086161995 1.8229157713686421 1.3010718618472688 1.2835314648891252 -0.6283120494876598 -0.7149386856389687
Ni 1.7471710861335026 4.594194817610641 12.126474783840246 -0.20115488380889227 -0.13500708433722555 -0.26262198997543806
Ni 2.66738843228807 3.0496478744328175 1.6627617397838552 0.7767292365832044 -0.5689995277702716 3.0521820166837825
Ni 0.6011483105644972 9.081313762914537 5.400394134637726 0.09939010646456431 -0.4462072403316832 0.03657317113834346
Ni 9.138676853071962 0.169286053523086 8.499076975826332 -0.287947099003788 -0.6218788922678063 0.48084977010621704
Ni 4.007747043140529 4.369795262641807 11.579736563501918 0.8200492395270781 0.8448835249619384 -1.3296197746067553
Ni 3.0424905230745534 1.920009271516114 6.356731931315814 0.6293116943967678 -0.3449070613285995 2.403803278353234
Ni 5.589891410804281 4.693108465388295 4.189884097327539 -1.4836291110780964 1.5659167535344192 2.128748204820766
Ni 9.251279527818268 3.492199706827313 12.918284506659768 -0.0591418004674788 -1.445290363398898 -0.10219415157226272
Ni 5.694142262310016 3.238696749646729 6.8402560452605305 -0.563905658187132 1.1559229870088157 -0.35363132857547486
Ni 3.8102325854591603 7.03146729377884 5.805776087640674 -0.48667846097285217 -0.6563067349283729 -0.004647526074340383
Ni 8.229200273922578 5.386622632229579 2.9203074254373043 0.41638038677823774 -0.7848737200672096 -0.2830206082364481
Ni 1.5030058654931704 6.974748839240437 7.059964928107419 -0.4869903357863161 -0.5694674685456257 -0.18744216220849008
Ni 2.2373595947866436 1.6171158499957206 11.5163290664226 -1.4207111313976373 -0.260374588702158 1.142297168695265
Ni 1.6156275001106244 4.550255316225802 6.009639258175857 2.3683264256028633 -1.0219620845479174 0.2640983174106484
P 2.2637896551665646 8.938583852914505 6.861651311857175 0.8721516166492722 0.4054256875389469 -0.7937432546426975
P 3.381474059324631 5.822159312299419 9.896829012630054 0.7710892646886075 -0.180309922039083 0.4877326132689793
P 5.845593713037999 9.051101208240645 5.406791195162966 0.1285073355454948 3.0333571706677955 -1.8466917602698
P 8.422562519822595 9.07355917561512 2.7948376341365986 -0.2051336659509822 0.334060862642715 -0.0239012320976298
P 5.0572138309091 4.021786827725415 2.1452591767059235 -1.8028626788999917 -0.24884987589201013 -1.5545367938322519
P 1.4256875109527702 8.507009785914539 9.784373276885141 0.32347074583169455 1.0808951114386998 1.1347360685185555
P 8.097988485644784 3.1936954954776167 7.02737290960449 0.12383229866732866 0.9616396335087761 -0.7983761254290185
P 9.357938282959765 7.551062562582093 13.126143470039331 0.13802581655889132 -0.5629026708439144 0.013699866084595762
