# total energy = -340856.00761289493 ev
CRYSTAL
PRIMVEC
9.37371584016299 0.00000000000000 0.00000000000000
0.00000000000000 9.37371584016299 0.00000000000000
0.00000000000000 0.00000000000000 13.71938064179862
PRIMCOORD
 96 1
Ni 5.4689633387333645 5.4227602928181025 11.14765513549324 0.3865015969409344 0.4168097610061725 -0.738599005370386
Ni 3.558178211000241 1.7262166606867642 6.442168775018829 0.5778994013630628 1.5409973645849202 1.0248851717319833
Ni 4.290640375296968 2.4960237093264412 12.060611949884656 2.6466190322360226 1.1710804114755444 1.349878010635159
Ni 0.04464982118242384 3.2689990739570622 3.565214122191963 0.7387098199166375 -0.879309567850292 -0.9083784601917905
Ni 4.714810395729413 2.0516158361589496 4.302453132136573 -2.3091784544877973 -1.0094559816611066 -3.0044435729572387
Ni 9.264643390746995 8.856867999510289 11.914088583762679 -2.1241731838555737 0.5266506304904156 0.6951679307699448
Ni 7.54066704817217 2.898540445915458 4.953670488183888 0.1559302076431379 1.4329513822175708 0.7024112425959192
Ni 2.9345917574573726 6.625473665155193 11.083091792147622 1.4296097194388475 -0.2920266683898003 0.7587919353784932
Ni 5.333747486161312 8.376558794256075 9.535902795009447 0.37433153723730367 0.7649363577133342 1.9640435934191078
Ni 6.713774069399819 1.371140300518348 8.209718836185072 1.2155885211902486 1.1307691134510074 1.68656576937776
Ni 8.594797648993167 4.985560807215804 8.01429935555553 1.6274165127111133 1.2775891312627612 -0.20579521079438107
Ni 6.121927018062078 9.128940104945563 12.366897181164143 -1.6049967502550164 0.9745856521464827 -1.052493420367555
Ni 3.177061667924015 6.81231057146134 5.8876450484773555 -0.8967079658323975 -2.007150451910911 0.6657442261921889
Ni 9.118741501992469 2.965234434896405 9.145064771121957 -2.365118717298843 0.7855059543345697 0.7416519332640968
Ni 8.87096606829839 8.84957524850155 8.614659615718638 -1.1670496930495966 0.20980021818871608 1.4529725625345042
Ni 1.316903980034334 5.448134941893496 13.336541542760381 -0.4626607579020161 -0.1463081111723416 -0.7694381022384297
Ni 6.812226208017793 8.74093388064643 7.449088655459989 -0.6473122447392464 -1.9859465641397862 -0.24884601923726818
Ni 7.883257618695803 2.0787714912647544 11.36409236202483 0.4914913089804632 0.7984164917486508 0.8234698351728528
Ni 0.8323850389471835 0.7716911655455341 0.06910115923678796 0.5122928191068468 0.30753324866583165 -1.9046009738817584
Ni 4.566255745361169 0.38145680896519446 7.841901721298047 -0.5213564719710118 -0.5902332403380675 2.132041273749741
Ni 5.4657575278786235 0.21426252443129926 0.9432198563344947 1.2935783076021659 2.36398126126029 1.5749588091320295
Ni 4.901056757930738 4.021314768634906 4.996735213999245 1.7471504729393523 1.7548110748084038 0.8302261800600799
Ni 6.9348250389217725 2.290429997405273 1.673229856538823 1.0661189815707897 1.2090867155159886 -0.9874164853625638
Ni 3.246474034530327 0.6335685236575292 11.762174393598121 -0.8652507757643808 -3.017113198005107 0.1997898851405656
P 2.891931976171035 -0.000655222744872552 9.709768353184625 0.44379914511082275 -0.8198345524131107 -0.529954755162984
P 2.255391047185908 0.4227330297773803 2.483249209230414 1.014151330254247 1.0916304955783331 -1.8612282633230783
P 6.56513505558803 8.511409071906096 3.8964962417940767 -3.3991287341502296 2.0859403656266204 1.311676045644141
P 1.7939886270019076 4.880922016071136 7.35175011429682 -1.1348869922741227 1.1271243176095684 -0.2555583982604373
P 5.545902799247155 5.049133348785556 1.1459592717490295 1.2521524363572112 -1.2908436822798222 -0.5913966645185492
P 7.019169735035695 5.1816870660279415 5.357212709297785 -0.6914768550716026 -0.7490207149243423 0.26171027679444603
P 7.369240530887058 0.17981974254632493 10.464252188361597 1.8659974025769475 -1.5945081920188668 -0.7204698998698431
P 9.117757261817768 7.096324791016324 2.737414705087292 1.7819871210025633 -2.8065881858352246 1.0976576756090193
Ni 2.3894070641164213 2.570544751125251 2.428892905182246 -0.22907654991982482 -0.6932781699463996 -0.3848599475724533
Ni 1.0580956826676506 5.301389418703514 2.0101362057106584 0.35150734025393654 -0.19142222990216065 -0.629278270055671
Ni 0.5021424644438728 3.6175981964043484 11.332826332475154 -0.729697332005382 0.7259167819170272 0.16784032881716254
Ni 7.639887831498006 7.618347032245972 5.6468014777279585 -1.1868736697540592 -0.8454519958708988 -2.5439548830058767
Ni 1.7491260224674292 7.718177107108529 12.754071019486961 1.1889122974506425 0.7718796218003868 -0.11428656396042251
Ni 2.858017871865614 4.0175090399593945 5.747350516603844 -0.7295988587543047 0.06872481617022358 -0.6555737134170904
Ni 6.740414170128401 1.2879391977502683 3.6156194049674015 0.49595731517161673 -2.0289912019350864 0.30255405028368537
Ni 4.662467565867204 2.802422362568918 1.2902882509672222 1.1051465277868966 0.7998257133913516 0.46688328062379597
Ni 0.5731389890456569 5.542031454559996 4.3161584422263894 -0.7215376790127251 0.6648155437303324 0.7934838303337238
Ni 1.7826839255667675 8.493898970512364 3.9104902623351387 -1.353508922519527 -0.04598803669434015 1.8965223106386826
Ni 5.224656179940614 6.576749089649505 4.928577987958576 0.34245551446431344 -1.1961080438681337 -0.6670434046195867
Ni 5.812022595054476 1.4607155301321122 6.030971040088948 2.1448510239198995 -1.1007496842707818 0.18416014902310865
Ni 9.077187819188177 1.055967849147106 1.924609484015499 1.1891663224429778 1.7718747151589096 1.9258038332116187
Ni 4.132543282092097 8.277197405190995 -0.009033450060567643 -2.1618403593890445 -2.028872931189667 -1.2723307110772992
Ni 7.88473866581583 8.601115533543155 2.2942376008239744 -1.6647044505282944 0.7317009926989722 -1.0284507775960547
Ni 2.7564067909726466 7.739933501827402 8.28822089514765 0.39549325891658343 -0.4191610348471685 0.24029015924745714
Ni 6.320481069305146 4.3783127405729765 3.202583484339816 -0.8378163337025121 -1.07352530133719 -0.47473697234025986
Ni 7.058483099728049 6.6028736360008615 3.5512201016509004 2.066949683456731 -1.9124109568444805 -1.4003042856065109
Ni 9.399868617034999 6.0705496809426736 10.921066174588299 -0.9087548696946026 -0.03306721486761402 1.0604525273136316
Ni 6.268588177808516 4.04424287784747 12.9281296762107 -1.242468633410544 -0.2641613094380999 0.48744156439112185
Ni 1.2318468815082462 8.17795787443326 10.313763740392965 0.5612759338737688 -0.11307326037861172 -0.9420069468795133
Ni 4.1142832834224015 8.286871080050917 2.6132813968823743 -0.49792832285505856 0.3886615807067306 0.1881291609731857
Ni 6.857876204692033 6.184449703445483 9.090612855171104 1.4699516135910038 -0.17254750448484477 0.36999460042484666
Ni 1.640822108386493 2.8190513346633943 7.9658981732501015 0.8983419018913948 1.5298570316973845 -0.5420145145409956
P 2.3892758320931278 6.854820373292484 1.0701212228593102 1.112303193436336 0.9628578221865933 -0.5306157857857506
P 8.727313871371754 7.218501804702574 7.251886294056845 -1.0207588082684356 -1.54688750481711 3.711054198346486
P 9.010043891841653 1.0838734015288742 4.316363726605684 -0.7589328318317317 2.2707677159200825 -2.485525021003758
P 8.750288849164066 6.657944217204384 13.004765428327724 -0.7941201783661421 -0.7241272941167722 -1.8191017664666738
P 2.689862781446892 8.91235102421559 6.394164100898067 -0.8598833408048803 0.4931751244407894 -0.22466093735063242
P 4.925775246889664 2.6488621478836225 7.612170690806823 1.3454225459669669 1.3990472732709585 1.3979542973170955
P 2.0543998297959614 2.39185360397925 12.071038334135325 -0.957590403140067 -1.5845904186845228 0.9955648255013112
P 5.0287361428793655 6.720091953949806 8.41349217246884 -2.0263223968536717 -0.37226154208215245 -1.7980750277033615
Ni 8.172746088365317 4.9271813042820956 2.0035783540323635 -1.1521858885638867 0.7280644243876494 -0.1410070106744023
Ni 2.6806765398163472 6.514123293390656 3.516153967655282 0.972406385106977 -1.110439657865036 -0.15295415573394947
Ni 2.746461278350189 3.588511555812939 0.15846173075530762 -1.3292827029823109 -0.5775715857099989 -0.7630877345403697
Ni 3.9113423331149515 5.554367264749586 13.237336694751658 1.238055849054829 1.7506623427473529 -0.3768193366561639
Ni 0.9578625380192646 7.478772401757385 6.066189028282949 2.0349317357892374 -2.4915102920529155 -0.6561640387029216
Ni 9.336914740717916 9.338751989044024 5.925332073452464 -1.00238416241599 1.7878484648793467 2.1999001423752436
Ni 0.5557676186479772 3.443659523244762 5.941026486066772 -1.3207373845154609 -0.11992627874470314 0.2852052745925927
Ni 0.21990831354770465 7.848218668476439 0.7003018822454645 0.029556116390562003 0.9204194505167246 1.8177722490219723
Ni 2.009930921331364 1.2952413224749568 5.276418776785545 -4.142513076724401 -0.36365066048468986 -3.4305185613154205
Ni 7.262473906221846 7.444445853950184 11.207032939175573 0.06295320379376901 -0.7723205659925474 0.017129717701751146
Ni 2.8778714022467313 4.253267369806169 11.608324531089984 0.08009372012879755 1.5049872650388985 -1.3338728934561543
Ni 6.9780191220172325 3.542420994489072 7.306064497501972 0.5520932389332363 -0.013623761431021699 -1.0243884346012229
Ni 3.228682721658109 2.0060220817804075 9.592138529105496 0.7374263252185236 1.1159572452491555 -0.06689599049160092
Ni 0.8882017679402894 1.3607917181100606 10.281235071304886 0.0943520298200246 -0.39627513138793047 2.3409688595255167
Ni 5.817881167522935 1.505043832857467 10.412021843090784 -2.500190850546049 0.9417544645490749 -0.2981016709392866
Ni 3.5042512231425618 5.106106794326835 1.723127083909797 0.07775735868613705 -0.5190818170042222 1.8875987828968073
Ni 8.427383082134456 4.37823775084538 13.381719104150763 0.8511960974435275 0.5408408059478685 -0.9098946397260007
Ni 5.84626477941813 7.101761546267055 1.4386826107927282 0.19656366489378407 0.4050073690546057 0.1658999172613401
Ni 3.020173784076634 1.331705077518651 0.5236991990130202 0.594667364850021 -2.2745559793179213 -0.3334679662537225
Ni 4.700018671961044 8.439372064833913 5.975146812123082 1.8393995974837611 1.5461043467941824 -0.5597769807307391
Ni 7.700310804508713 0.18810423270252466 0.0984165184973662 1.7787225913186786 0.37313391738477675 0.6182356390882643
Ni 1.3016810653322877 0.7126601893533325 8.17208617876247 1.586209185234868 -2.2137643019518456 -2.049745660873618
Ni 3.070182558667408 4.430402480104546 9.161569072794304 -0.6937785066215858 1.4079232356043494 -0.7096761516884488
Ni 5.123382552821829 4.966588406133944 7.21887769071215 -0.605418432718938 0.3394185274102025 -0.3697747711045567
P 7.7576873198358225 4.602822611280308 10.546814941073514 0.2833509949926733 -0.44609951110922524 0.009558076002080314
P 8.75808778083408 1.8908472339084612 7.353299589543279 0.12338981181327137 -0.07433753437131069 -0.8755387879539502
P 2.3770712539268324 4.269661999001907 3.5432908753291885 0.028456455568480022 1.413126891292476 2.026272774562659
P 6.508227226058398 1.9444086468441086 13.307442716338235 -0.8579385583736838 -0.6026442124079106 -0.49477383638647693
P 4.84752346614294 7.54530703756719 11.6563010840629 0.2224803847595459 -0.7270956327164768 0.6404653970207422
P 4.739425773812893 3.5968822841558743 10.102362074069463 1.0242976746596295 -0.6289417126518588 1.599691278881703
P 9.351415879291848 3.2799663216180193 1.2224741029303055 0.6252598929248973 -0.9636504932912179 0.7228250303655809
P 1.6132071411991604 6.101548559587788 9.597255640642349 0.15246178947856323 -0.4940498137362588 -1.9553972305980198
