# total energy = -381178.3660502607 ev
CRYSTAL
PRIMVEC
9.16329333955170 0.00000000000000 0.00000000000000

0.00000000000000 9.16329333955170 0.00000000000000

0.00000000000000 0.00000000000000 13.41140604232686

PRIMCOORD
 96 1
Ni 3.2196056040542245 3.015364957567968 3.06796684330328 -0.8010606142397172 0.6368406557839612 0.6843906376487826
Ni 1.138759123398674 1.3767848326331396 9.789334181637617 -1.0414212217137935 1.5474225513849738 0.36068849253257235
Ni 0.8726717444706598 4.081578287156615 1.701263466063571 0.38547572677958125 -0.18569689738260922 0.1265908352490723
Ni 1.6978849597887502 7.178157514086497 7.29949326357942 -0.8962760205013016 -1.3814868957896917 0.5534317552390018
Ni 4.050038231290237 4.40424533748281 5.01638907312834 0.5020004360419031 -0.3162413179627908 -1.3761487714062302
Ni 7.8781964763084025 1.2283578062172222 7.756058022314058 1.1558450825830286 0.6160298896861971 -0.9226437118615529
Ni 5.854519783145685 8.11345487093751 10.148812930520466 0.48027512854966964 -0.8862870276093897 0.8144833154035264
Ni 2.0296328338696163 3.798588297231762 9.450065992667287 0.5881606740797548 -0.0060374644433315375 -0.059999263371767635
Ni 0.324081862826418 0.373886195088166 0.5273429532487246 -0.23798747925620953 0.505818781346729 -1.4005868498439364
Ni 6.420875458024597 8.429606819659696 7.889327128795587 -0.2289585362847218 0.628542163220595 -0.42048772407839197
Ni 4.072305034240643 8.688194959273055 8.516497749279955 1.0469431799732873 -0.6315367270725447 -0.4451515453736592
Ni 7.927953159444495 5.583460401221419 0.45393855884756457 0.3736208843235243 0.8828126959075441 0.7119952867399285
Ni 2.8025016519968013 2.391344677352881 5.872988400983769 0.6248685710237496 -0.8226769069579121 0.2871955655497441
Ni 4.590351826339909 3.495411571957219 10.201855570668087 0.31981232314350083 -1.5465925992845106 -0.852262591034829
Ni 6.31291353524201 2.71315954139332 6.183959423620293 -0.31729855558271164 1.3315792123259713 1.5781114958283982
Ni 3.1708752097783974 1.7372871213882344 8.421638419723203 -0.18400768260564437 0.6291047205922843 -0.44054849938400903
Ni 7.463447490653554 8.470759170297669 12.33562373599844 -1.493771084608105 -0.155560483008545 0.8285382508346956
Ni 4.367738776596219 3.7717581741705315 7.155695532986773 1.1186029104021187 -1.8295766978560684 1.5848773537973222
Ni 6.274757581544277 3.8213041015585336 3.943811836276707 -1.2037020541653076 1.0176536869805506 -0.5312719313125109
Ni 5.268756252855678 2.859781399010377 1.7401570648796199 0.5976560151646998 0.7919139147434425 0.01813733303065908
Ni 6.81852573820395 1.2343872532712827 2.5135793459278766 -0.4271849335929095 -0.8935809901676417 -0.4862112915284466
Ni 6.691320899291381 4.838053973399735 10.363650925818304 -0.4054603974316243 1.6335763616649221 -0.7471528084776681
Ni 2.7242196365213607 9.050419947186452 6.586394775610635 -2.259117276165348 1.4903294059164076 0.5173578923345801
Ni 0.010669738829404508 1.8244666947504418 2.146387852994265 -0.0029426275680917062 0.13802016013193646 1.6771478184979696
P 3.8323825232733655 7.436498244778185 10.399445498808086 -0.36545840311739 -0.716058915286341 0.5801817696393363
Ni 3.729991882875078 7.689386815899711 2.9540900146340725 -0.021841007134491417 0.7822985031408656 0.8177267620414885
P 0.8058896622062316 0.2334000787285539 7.933543684744924 0.17738014998679774 0.46701337844375695 -0.5960058811557865
Ni 2.6776059630198317 8.616024860492232 0.8574515141411845 1.2802070285015823 0.48054380883002407 -0.018367189653278045
P 2.101922055464577 5.174594249926307 3.763978538077982 -0.3302314615942958 -0.6754424273165592 -0.19800785353947833
P 8.299543033207817 9.081199449701026 4.162470924920356 0.39883260770246154 0.020743403194938472 -0.49821808618133545
P 0.7769739735682474 7.5409964426573755 0.4674186797612857 -0.1934282045885959 -2.1534143401088786 0.34824641011447766
Ni 3.0635272276532914 6.518941023940336 5.396360611360278 -0.3673507350440964 0.2800568976224338 -0.5132654674327612
Ni 1.0583328972687502 7.707447667181708 4.886392178718247 -0.31271530708740336 0.42018767633946996 0.3669290741256455
Ni 1.9964342218987023 6.281098580573776 9.614046793292266 0.05398853840131348 -0.596041105269096 -1.8481536895273074
Ni 4.861237105689664 6.782605628094652 7.10772294307473 0.08561722105018804 0.1592163345935774 -0.6474081468871625
Ni 4.908464719848674 1.932969251843347 4.428889098739939 -0.46437439815901316 -0.7196844278540702 -0.1654494599874828
Ni 8.792674830565455 5.9006203122170815 5.838105575686812 0.8390142106653551 -1.54730325219829 1.0179984719144788
Ni 0.40322614421034936 8.480234015668335 11.620580797171188 -0.6940430731368822 -0.5736339412184894 -1.2091157689817111
Ni 2.2982731063375414 1.8866579670238601 1.1480442885960593 -1.5881647662993423 0.4731701420737721 0.4109908403315502
Ni 7.857881454851181 4.116939436368804 12.172567511677041 0.4469870559205011 -1.0779789662331691 0.10551241731221828
Ni 2.401992424278137 7.637779147497783 12.21230596614413 1.2136136568520646 -0.9405254772379802 -1.0466331049320363
Ni 2.493552051883264 0.8145902092850015 4.2166672237064375 0.018256117996710494 -0.5397763692390962 -0.6796238123877586
Ni 4.0573597027130255 0.9148137307953172 2.3088805347718586 0.4569009726001035 -0.840600067095236 0.45480192397922964
Ni 6.395923810109388 5.105008199882938 6.040725235571452 0.5427886737028588 -0.10560651968792135 0.21955524069295088
Ni 6.07848900031187 5.991474366230776 12.472003780587652 0.09572808423194482 1.0152188522868126 -1.2935402552753787
Ni 6.944951697177921 1.9311274298709058 0.2502999407373745 -0.947347642366136 -0.9939236903534624 -0.2061104280419547
Ni 1.0101431373032415 2.9624561015039164 4.136480159534129 0.7874232259619406 -0.6222475884611348 0.24924454022726755
Ni 0.29789225397351426 5.396171847516337 10.859765375176087 -0.6879115063178475 1.4514939211064486 0.04144232630518669
Ni 8.525958849710527 7.992536051294068 6.690708791292581 0.5908587897372082 1.2276343966111891 0.3540285640138935
Ni 7.276278059762608 7.321801301350105 4.993562392951486 -1.0795851343780247 -0.43664762166770604 -0.5458189758887503
Ni 0.14847101022421452 5.112128078851032 8.146329102322232 0.29368580125977806 0.15002669767450938 0.0024885707498086174
Ni 6.75610538359565 5.937896589748872 2.8378133194246553 -0.1651877216856639 0.4492447416064263 0.18270876128856275
Ni 4.929787703579373 8.418226009262822 12.520889034521858 -1.0679280097550705 -1.217358725716794 0.6290335010347167
Ni 7.542535875947774 0.6136098625887674 9.880772853769928 -0.13563211951573417 0.7105366999165311 1.0795925905771924
Ni 7.588581425258799 3.6093021455665184 1.9155910659192954 -0.21951975946932517 0.7079493988053291 -0.23072514126684135
Ni 1.7173203050800305 4.448421574941208 6.037144220512596 -0.09604741524457652 1.55803220858002 0.1404835340707645
P 6.716904814450861 2.6642733711297732 10.490885087269737 0.5181050549132497 0.09571368605424162 -0.382887911447747
Ni 8.543515719855787 8.019457807289252 8.926725565973598 1.114826731189138 -1.6806586598647055 1.6055901608646412
P 5.223727829111524 6.342840851470827 4.71712690679224 -0.014970505266903252 0.7807882371439262 -1.0956992663310678
Ni 2.3808710330021343 6.278752777464597 1.7455753202642188 -2.6089150899273457 -0.45769518636662465 0.5028545565120824
P 8.857294375588609 2.7375705549982094 0.1409268707719226 2.0251666859826734 1.2537943428360083 1.162628166943133
P 4.686630550043579 1.122063602832567 6.6693986361726365 -1.0240978999439976 0.8996760473217861 0.5724075250105561
P 8.50730238435784 3.4438772099024515 5.905122238262157 0.7747777692837883 0.5068132840495143 0.6868951492381912
Ni 1.3132557195240178 8.467267955514087 2.7686368685960536 -1.0942918444605798 0.6439453851495426 -0.6829431065689787
Ni 1.9550619522192438 0.9763489112616375 12.146737103925231 -0.07526493128158651 0.7184068466932273 0.534155423507893
Ni 0.9552733364526109 3.3319109279061503 11.6548203592718 1.737164308260918 -0.6129206546332541 1.3387402488507847
Ni 5.602437581842939 1.591755695685209 8.679928752301219 -0.14506086902880178 -0.1147655604793701 0.173179738752205
Ni 7.657636004285244 8.212445929486167 1.387047721235796 -0.3187134336523672 -0.22887780364545746 0.24421906198821808
Ni 7.550113919585628 2.0796369259273804 4.434910298829943 2.967129924108445 -0.44997262091138635 -0.519901227581724
Ni 4.120146589057134 1.55735669227952 13.23912354843867 0.720000159322276 -0.04723090796250575 -0.5234876593814016
Ni 3.4748491415783254 4.000089118992845 0.874224922701151 -1.0838732202304173 0.33891356274932594 -1.5706064457006048
Ni 1.6774508155173897 5.184362320685621 13.067993546306734 -1.3610201432949076 0.8703305042801334 1.1480885785660613
Ni 8.615145184326291 4.585660220121552 3.914588260980643 -0.3768563605416864 0.46472175419610284 -0.26406412173860333
Ni 3.0138530141577555 5.354222290352979 11.349241934798368 2.088826428925164 -0.9873835752420994 -0.05353756690682392
Ni 4.39302946636705 8.564233926222398 5.3607804594359445 2.056605364107929 -0.9264846828741979 -2.204264589991526
Ni 3.730028536048659 0.7618664517475335 10.657494836769805 0.845072243933977 0.43209059842464287 0.05996249659656125
Ni 4.5459006900796535 5.446890676458928 9.129292078756546 0.9612688804329187 1.7892821120020799 1.0795360263076441
Ni 6.976885774660295 3.724145701688922 8.306018732650225 -0.3401124681534336 -0.1926998110630036 -0.8009845095861431
Ni 4.109214780036625 6.375113970808823 0.2825785580514078 0.18490396916766866 0.027051347690837283 -0.06789332140786372
Ni 5.484872527582152 3.6255028482892833 12.456728570497805 -0.5613366119083752 -0.4619521618707657 0.5326652121156117
Ni 8.761198917752845 3.4032013505210306 9.823586572348983 -0.6525554954160567 -0.9785662340607856 -0.7327808560267122
Ni 6.581517154536354 0.5202212416219526 5.849786942107049 0.6461097397907131 -2.327660829562701 -0.5636901997422162
Ni 6.0090312363760345 8.282581777133249 3.3282282002906074 -0.48722893415968344 0.39442830798717876 -0.47766597306159675
Ni 5.9774270374558895 1.0132953102312001 11.675393785602768 0.15917391139141618 1.8693264669501803 -0.8060575532336763
Ni 0.9711533239065425 2.650775839958601 7.4173790331090395 -1.1430805838285087 0.22680729426967391 1.0314612822876044
Ni 9.066336587813966 6.375517155718214 2.291780912967022 1.052409345294181 0.3036927918738189 0.5072156616942556
Ni 0.49832646838339273 1.0374955680879998 5.7155391958909085 -0.2457876920269186 -0.7538273922843662 -0.4433854546121718
Ni 2.0348375845181064 8.519489564573496 9.644195861221247 -0.6429555104324475 -0.12845694192353363 0.05227695502684545
P 3.1131922778554317 2.891532210624845 11.543117063795941 -0.34648109068393873 -0.3898540583529351 0.9619731055887948
Ni 6.997805573481602 6.1278974782989435 8.115081355515162 0.10097930532855512 0.15998817976259544 0.5113011446175387
P 3.238445335274815 5.387356759270126 7.567962182460854 -3.3233824923568505 1.5788437460087323 -0.7181463939429891
Ni 4.287981470884145 5.3600501449523446 2.5900910131193586 0.9758773743747127 -0.5295783456601717 1.8869855747928403
P 5.821953438419042 5.0549857812383845 1.0532555163984538 -0.018316281810684586 -0.7253393121470024 -0.5679847133525122
P 5.440824576231287 8.854600367330411 1.2044150369048285 0.5378981783797768 -0.07947459848755989 -0.13649729572950683
P 7.70413971826603 6.831317695783689 11.012118872811861 0.36507248053288094 -0.5022675736603608 -0.6210947058036141
Ni 8.570602415132083 1.542942831768825 11.83201187998468 -0.2056543143411426 -0.5704401168715402 -0.723566793627612
