# total energy = -340861.0323085332 ev
CRYSTAL
PRIMVEC
9.39940938091762 0.00000000000000 0.00000000000000

0.00000000000000 9.39940938091762 0.00000000000000

0.00000000000000 0.00000000000000 13.75698573583633

PRIMCOORD
 96 1
Ni 1.3419630352644842 4.847942626033285 12.313533269275466 -1.179431097433085 0.19536321682777966 -0.183839018238264
Ni 6.511854221466706 5.332322374695722 13.259972929773957 1.4322967793527075 -1.5324476752426963 -0.265449175011588
Ni 7.4261817407483015 3.4040148009546995 5.528684490065137 -0.9853873707476772 0.5463344820725881 -0.0662735264162536
Ni 5.855850662220227 6.842121258680763 11.054109265057678 -1.1106224632998034 -2.728866822593346 1.0079315745967803
Ni 1.1767214234529144 6.820324028999817 7.559697527056595 0.718422273312195 -0.9035599557572246 -0.6019803535716665
Ni 2.3913882614043103 8.24621438803367 5.45025582061373 -0.7320532338320683 -0.8274267629380718 0.17471828688391844
Ni 7.0441239594454075 3.571925844947981 1.5526272915060546 -0.48890349364862895 -0.7276306792843403 -0.06258322204885997
Ni 1.2160579504967948 9.041460793547303 13.585779947374556 0.24293248196631065 0.9002023521389013 0.29405681144595164
Ni 3.5873784734928176 6.134157765981819 12.01649314319644 0.04779963598178219 -0.7315361849863337 0.691373496724519
Ni 5.386547565739007 0.9106955876090138 2.4814026425007083 3.1541355130001487 0.8244941626723091 1.3186715031253677
Ni 8.93469290568794 8.472523960706432 11.110553656587237 -0.25987399491665564 0.3130174117088545 -0.5841898623574648
Ni 5.929551428899098 2.8840394900664155 11.820332175181564 -1.060742804860541 -0.8756056366361435 -2.651380458180408
Ni 2.7434243300720422 2.916815229565104 9.868545817473299 1.0298918809179556 0.4175852057196163 1.0501503740566753
Ni 2.24765249759188 5.528187261324248 10.201024535646358 -0.6491366995424949 -0.8137001573805986 -0.3777714161567881
Ni 3.416478417408747 4.740864557673935 8.359473507810955 -0.9826131504366495 0.17802806798344178 -3.0599431486864397
Ni 3.2420535829157258 3.368616626319753 11.966953557584787 0.8893864924703199 1.2160104392190154 -0.12791341071523776
Ni 8.738828019059413 8.180747503718107 8.036060519705716 1.5072356947534429 -0.21243379915682123 1.9661277296416464
Ni 6.183758447752562 4.927452227530104 4.308784061132132 -1.3207260716615512 0.5372410044117522 0.024110519894958476
Ni 1.1903223684069155 2.2387042601376925 8.587756956392731 -0.7319444761683459 0.06294266227080772 -2.445475204170724
Ni 6.6286230805983966 1.8279688816995825 9.566621758430836 -0.5738740822537536 0.5871898255260533 -1.093268545402388
Ni 3.193063862735868 4.25352399514798 4.294807139814511 -0.0016601613112423022 0.5502878102933814 -0.5864120668197642
Ni 2.8853084102936375 0.517233503256576 9.205816981022545 -0.8862160651621381 -0.5944408506615116 0.47110888866936934
Ni 2.0960776265979453 6.797586858409818 3.5478022615171283 -1.6996040906189567 0.2759156217605506 -0.8633345325782745
Ni 3.7507026058499187 8.955559593868923 13.41861803628579 -1.6531005477407787 -0.4597749517137888 -0.2562765073733844
P 6.649376975870293 8.530217533704125 11.971713418348234 -0.06992500712591183 -0.4398267907266361 0.1267229899515624
P 3.5217987962681687 1.7352437110214747 5.889475168359791 -0.19586509616486267 -0.6473104449670336 0.45104837047406837
P 6.016524161213798 2.5958254091234028 4.146355692461359 -2.8450855705794744 1.7239213272080827 -1.0917940177393908
P 6.706064812095298 8.427068418344616 2.012358029769477 -1.1850505005023912 -0.9065817733026839 -0.1958159880944821
P 3.6657695453078625 0.38072400515294746 1.5840758344411598 -1.896221748679128 0.19363543550339554 -1.0462577238704884
P 3.1389796628289415 7.880925152548287 7.5163624913856015 -0.32685097515783706 1.1353024825449867 0.9870562738096679
P 7.584674576832868 1.380087038535686 0.9784775463835742 -0.2837999096046338 0.577827667584863 0.3842397974899512
P 4.531896894773205 4.994939984800132 10.01421879949929 1.1743814508243193 0.5457207597479892 2.266037143213633
Ni 7.80021242668788 1.878735090197551 3.351339572470444 0.835314907436897 -0.23448332275769293 -1.9325851177995104
Ni 9.357666314761923 6.399390291698479 9.737002027192199 -0.8230294052013244 -1.6438630883029108 0.1104633335595904
Ni 1.9378291751497319 4.664588352904259 6.0410641384673625 -1.6932282689995999 0.10643467201617153 1.309972432689473
Ni 6.514871431784767 0.7669570039738562 5.062405183488341 0.2400011672521286 -1.2343573171573194 1.3267002869671152
Ni 1.7492676293845497 0.5081376950796672 11.369515836499604 0.4892148542414607 0.6745769939924704 -0.526947592905544
Ni 7.297945602526159 1.0595577891394208 11.68909010593227 0.6146751754305156 -0.5789612669686739 0.5333979765165782
Ni 4.2046658666953896 2.521654671990007 8.149390135051181 0.006043377980602495 -1.6491605892564243 -0.18411052673209585
Ni 5.87703693031029 4.25563886219335 8.095545620076063 0.4302846555641557 0.7805912906417717 0.6898375196959667
Ni 6.5456450971471725 7.589120497332691 4.256080634420606 -0.342124613487456 0.1440468259419906 -0.20323644892826934
Ni 1.478122875349945 0.8828047210146752 4.97828141206898 0.18298464065776873 1.2417988610370292 -1.4788476305290532
Ni 5.0059466928451455 0.2647042789257717 8.288831308850147 0.6789504404698178 -0.523260373861944 0.2071129011645401
Ni 8.422443909072072 5.286490855970284 3.06846811565449 -0.986220922392566 -0.9444258407336509 1.4127638515261023
Ni 8.05979590754113 5.75835999113322 6.246496683609141 1.7438239796692807 -0.16659360089425504 -1.4336818326256922
Ni 0.11179657172279928 6.770723347229074 13.704667433315254 1.6647373606487588 -1.3090110972174682 1.3560926240863032
Ni 4.440938813004117 4.121546892107807 2.222358687729256 -0.012120180302301707 -0.8106719120772361 0.6482728088803029
Ni 0.9967603370055699 5.197130673746586 1.8106532902730026 -0.4439804078836935 -1.0331255573639047 0.9874565945718801
Ni 8.897085869916717 9.491335311438393 6.1787025056027645 -0.7077745637903616 -0.398403747695159 -0.43077033695132266
Ni 3.7783932650306284 6.425238666697445 5.969101322529332 1.0738130077809378 -2.4443164079759323 0.7094102996215718
Ni 2.6498344137576053 4.381825929233756 0.4697458086493853 1.6854887342634972 -1.8908591988156338 -0.9862150088552951
Ni 3.5897471245836314 9.054196992864977 3.5740369522297146 -0.5199212821863819 -0.4294397910653572 1.3055082262705322
Ni 1.381233766444731 0.6647158715324928 2.2556363556733787 0.5760816314280337 0.5097589969413995 0.04164544345492828
Ni 6.195009540433929 5.8911078457188175 2.1129213676881804 0.9497552233663644 0.9603458543980169 -0.06694407012071697
Ni 1.7436937797938639 0.2936375399882503 7.207779890943405 -0.37779069943049776 -0.03664387647527883 0.5518338146242625
Ni 7.362904918750833 6.308892780974827 8.427928464276398 -0.40105378372349637 -0.47778990023397067 0.785630395727576
P 0.44342934307771104 0.23789246449502635 9.184122204900687 0.424598660922972 -0.4395105450377979 0.3830586326976564
P 8.402197581891064 5.097957508432373 0.8983240853640543 -0.5184372414416878 0.0882428315984932 -0.9900243552990564
P 4.728147157174443 5.473586093917342 0.5649279848637585 -2.3151138461356258 -0.27009798663750906 0.22693456387615754
P 4.495013613501953 1.3203161961289869 10.299676033756047 1.0015300419458106 0.6076033561853987 0.4715354346838267
P 1.1554505606810381 4.4009443273238995 8.199823604467344 0.13279207896377776 0.8701222449240692 -0.23758535872178435
P 0.3628265903036636 7.36708765579612 5.256103506321499 -0.20736049839897194 -0.08424502329300974 0.5236036161339757
P 7.136905526578058 2.1834263352762684 7.352806193623965 -0.3990516656918031 -0.011071427322813191 0.8284325784947667
P 4.039612243065631 6.187010643297886 3.8693175089269904 2.266711029352206 -0.04184573239119245 -1.330892727781908
Ni 3.0008929438799212 1.8500198954259728 13.566588233893507 -0.8346811305076399 -0.4787936589081367 1.4223278410654536
Ni -0.30250118276062293 2.459909953674296 6.4866111684131695 2.6720261594552173 -0.30377686694719297 0.8469342368433801
Ni 8.18397150103616 4.014299634384826 8.613055465959901 1.311799972816515 -0.8688564908377682 -1.185707674470416
Ni 2.399199170358543 6.57046893655527 0.705915361458117 1.395592224842822 2.824476893190187 -0.9883374545149366
Ni 3.4959786194964746 2.0576904398722085 3.64829792369038 0.17711301236834012 -0.19332587468277673 0.08787207852263577
Ni 5.120939063658726 3.358907036729232 -0.10101920925959416 -1.5916241856028523 0.1715368038321433 2.333939463482561
Ni 4.417637677868686 7.555902985606747 1.9199110816004488 0.1347818557002969 -0.3832383528086303 0.6440397446355619
Ni 8.150735190492036 3.162261999146192 12.252356275268822 1.1783142102198223 0.8810514902420633 1.2044690142383192
Ni 1.691658651068673 7.814621720823667 10.10405177200024 0.5994357327729418 0.68834833674495 -1.7067396732224733
Ni 9.088006667363622 2.043675920918224 10.248995359880801 -0.460281201926246 -0.42372165763465736 1.5228242932203193
Ni 6.8109716169547365 4.761815840536732 10.665157957127787 -1.3630739405001429 -0.7398061383046097 -1.066763042912692
Ni 8.243140781261067 6.104775213164813 12.027182151214195 0.449839951988264 0.3597158442066579 -1.5030321981950567
Ni 6.647346703506739 8.157230182173594 9.581148545180254 1.2720016098726545 2.7981025169617166 -0.2976720396010358
Ni 4.122712418835032 8.406117135481818 11.133253229540875 -0.263495650829643 1.293276974311663 -0.8349804069156137
Ni 4.752519824946195 8.563670030657331 6.122683907305005 -0.3407547297231228 0.9534002763181195 -0.9715700052486106
Ni 5.277129044516113 7.323634187570587 13.46440161802487 1.412251173555742 1.1541931488019026 -0.530124705081945
Ni 8.302667239031411 8.52680554820426 -0.34327675933626406 -2.5833740082334478 1.8735811284614767 0.817060074991767
Ni 8.608768395473708 7.526699021562461 2.57394546464246 -1.4383782096600972 0.24093627747188825 1.232505351550245
Ni 4.809076069443932 3.522973722404485 6.219766644037485 -0.412398005091722 0.22660160601677107 -2.383743788599198
Ni 6.736537696366805 8.447455736661981 7.225595530933601 -0.263897514253752 0.2282918492350004 -1.289421862231631
Ni 5.633789622456387 0.9091531445772574 0.03794729438029975 0.7540284525515788 0.2589144592168638 -0.6258641021677995
Ni 0.6297049525520756 2.7204051772093267 3.4941645335420017 -0.0711316258395033 0.1225382624462535 0.6597754102032637
Ni 4.796321071308079 6.84172648349896 8.538355542094708 0.2066007374148119 0.177640602737036 -0.07244057445891396
Ni 9.340972964217137 2.820377292296236 0.750376446338156 0.532184158714135 -0.061693877465371166 0.21900553883706797
P 2.1198487321879034 7.787316437415669 12.118472972065089 0.6891523207034841 -0.6986186083227065 0.8143727579675909
P 0.5538526611323835 1.7458274456574145 12.549617287461473 -0.5206861853768646 0.48951927285575697 1.007869353900277
P 2.141749355368845 3.0939376944671073 2.0934551914616866 0.8887966814051209 0.23033047693158396 -0.4840117127739665
P 0.9783092969608537 7.961797668363232 1.7497780172981658 2.205075515928596 0.14347681237113355 -0.6774322040530785
P 8.86045637269091 0.09841463300060747 4.045750997142657 0.1762493788164642 0.16347485275961524 -0.3158751928726238
P 0.02597526702168789 4.360451672961884 4.772766152127203 0.13924914744303113 -0.010086694812040692 1.3248889447899892
P 8.878334048781104 4.273159360738104 10.563135830918233 1.3372803764758066 1.2169231808412722 1.5756301241674413
P 6.107585636482883 6.379867719017442 6.697230307491106 -1.7153837220507169 -0.04567410499834715 -1.0410152445246266
