# total energy = -340858.3814789203 ev
CRYSTAL
PRIMVEC
9.41095705393650 0.00000000000000 0.00000000000000
0.00000000000000 9.41095705393650 0.00000000000000
0.00000000000000 0.00000000000000 13.77388692255569
PRIMCOORD
 96 1
Ni 5.788416018167089 5.738999084033531 3.6935360943767104 0.3560239971773675 0.6667266447101162 0.7348565076088183
Ni 5.108427334902913 6.960625974710155 13.169887746531465 0.34402543005459457 -1.5388366094881754 -0.29948723843290354
Ni 7.05971393881075 3.9961839950612434 6.239102033628715 0.156744218904001 0.1303796128675432 -1.1906372505615495
Ni 4.025254440602771 7.4087004496610085 6.623916998095401 -0.17023402586031972 -0.12998057765691162 1.7843893026861526
Ni 4.436550896396523 2.191331878892534 8.100629754907407 1.1300957415330668 1.3115194654616187 0.6088269441798547
Ni 3.5099575012611344 8.505810970975395 0.4773199642887784 0.14668220668230866 -0.225113965727651 -0.952072044424999
Ni 8.18286457757849 2.728593991395039 1.1241002043084132 -0.7613864355785467 -1.0460643769127598 0.24601986264238276
Ni 3.049112357938687 4.061345459913796 0.779833288291135 0.6611303815692614 -0.9922694425794911 0.24310860253285876
Ni 7.755004837824528 4.653520505318474 13.597456687720442 -0.9575657205497187 -0.24251262082007266 0.9615316471760021
Ni 4.953061849164788 5.734971194525026 1.5464215959881795 -0.8855745749233974 0.23559095399957491 -0.9065038688768968
Ni 1.885682824085892 6.599574617247971 8.688333654738509 -2.553642028386654 1.1151460622017697 -0.8065617465636045
Ni 6.3466739752805195 0.6750601651903336 1.3860937127317479 0.06774291187292851 0.3927349794451559 0.7586158148119452
Ni 6.044055248562053 3.6751292039802474 12.093058778207217 -0.3495759275591786 -0.7494392905189996 -0.5457757813556406
Ni 6.4063017975372745 0.3480567083188558 8.551820197653276 -0.402216693683346 -0.8745599689804486 0.6414804685488178
Ni 2.4655201051315725 1.5496552007431386 0.2922610276692586 1.0728781546714943 0.1023173074136883 -0.5209155277788512
Ni 8.215887624974158 8.507787271902465 3.018491927812929 1.2770000915285102 -0.27948636983094444 -1.9346988217084033
Ni 0.5693986477680303 0.569435350499533 12.483108116843603 -0.19990892721693315 -0.037478713671748355 0.508506355481221
Ni 5.559842699516196 2.779121418430474 0.44630427397760625 -0.2630012276917277 0.3339279366092765 1.6393333187533574
Ni 5.913873483208882 7.257786346487189 8.768814275062896 -2.9594829490861483 2.4045589255723363 1.0409993036850265
Ni 1.2929148884030934 6.054172027117294 5.33335861327392 -1.5115965428252998 1.25464897752682 -0.6177502148114135
Ni 1.1773106951262662 2.700389353878705 3.1111352686999156 2.0633010309605497 1.0636011002449424 -3.1207242845295546
Ni 2.726834142474267 2.2200729409462157 6.6686962127201 -1.3055884446891644 1.4655025766807148 -0.5560812770467068
Ni 6.73662638106191 2.4873441139405084 7.826487642356667 0.8589950246626562 0.0911242669113463 0.7305478529311354
Ni 7.845124160098942 4.049722928271263 10.614831798446804 0.6416280498702757 0.8401763492942561 -2.1868962739164077
P 1.7011057284543056 7.747890154487075 12.738669236297163 0.5052037734705492 0.7415586022193422 1.6104377187649297
P 7.979710253232441 0.5831452323593248 4.667102398165845 -0.14301709912589564 0.01570326966786973 1.351160219781692
P 0.9115669204198956 4.226018381922744 6.742014153827376 0.07549170258041192 0.4088316278967023 0.4967543571516155
P 6.078847555835289 1.7690340146047565 10.221614731753029 -1.2464823825556275 1.4718256906852654 0.10558672219357944
P 7.698670850446224 6.799905654555348 -0.2628169671429472 0.4066245929430546 0.20877923312336946 0.19151838916039274
P 6.886881717260039 6.871513624812867 10.678040489764275 -0.4922641825907458 -0.1266977931405818 0.03716812440986502
P 0.6731478587694731 1.4080485338401416 1.2833185357586467 -2.248180060427554 0.7389121657354306 0.40207142635473336
P 6.056195382828343 8.444715039458531 6.828362505713803 0.5550088699181345 -0.9735772654866264 -0.5813994440965213
Ni 3.10049618204252 5.123146071331191 6.220603856951334 2.307757919991187 -0.4982132010853291 -0.9652124384616989
Ni 8.733480837773914 7.366746404266341 9.57059203240995 0.006164219829182932 -0.220475181404059 -0.6119603476025138
Ni 2.726053033060234 8.828832652026666 5.004603777342785 -0.059945270205380624 -0.9892396546142318 0.12492681728308808
Ni 3.8825937465386695 0.4771016300911211 2.1920725211923453 -0.4390310342982181 1.0465940241639846 0.5637387935919645
Ni 2.6606280614174063 4.687174086819446 8.283063975676642 0.8021929280719475 -3.8770302202614007 -0.2972130976867462
Ni 3.3953979241886163 4.800811390125997 3.297096716076131 -1.8503134161827874 1.1069735536933065 -0.6558179682174125
Ni 2.9880446592922096 1.6611279839867088 4.282218733714551 0.3989313380638549 1.0466135645480104 -0.1680719852119944
Ni 2.6502101322447063 6.336387799502957 0.7003474061000402 -1.0515842782897245 0.3970163804293292 -0.11945499553523943
Ni 0.670413975820359 3.6904596526002376 13.838899489789283 0.26518229450344655 -0.18707192335326492 -0.010782949548116913
Ni 6.449714541235255 2.8275219692301095 3.2059412474585245 -0.5676890364889643 0.13510144382324474 -0.5332457672094301
Ni 5.994374807638219 6.032536237444271 5.997824864399476 -0.5268223801815894 1.8022736391657415 -0.8561819806938932
Ni 4.724968489310469 3.7143917157313813 4.779744963339106 0.03265378147927925 1.205931971937091 -0.31694657155993156
Ni 6.435871023788967 7.661930475116305 1.3160187873362266 0.3048161068449847 0.16464341914641967 0.905420406004731
Ni 8.961978868770442 2.367636743500811 5.856119382450126 0.37729910450605986 -0.2868872902807059 -0.19508785167920595
Ni 8.166188362136733 1.2038213604193975 10.403347836240991 -0.7224751032253299 -1.1227066481578472 0.37490386480100596
Ni 8.187353603969978 8.29095882733245 12.008611439593496 0.28915988836496653 -0.6674349836310506 -0.7866827482514903
Ni 4.423036762438079 1.4121799438733984 12.375395951935545 0.7886460426254482 0.32835018541118294 0.43408654580874917
Ni 0.5022204148741868 7.582351424452934 6.95668090162145 0.5046643560273115 -0.4694191596717722 3.146551272894987
Ni 1.6061585853437628 3.8265703207346196 4.838559678928723 0.5181701038232301 -0.4574205925489993 0.712117928360722
Ni 3.659384673261253 8.594509238773677 11.84837954809638 -0.7351164461384243 0.13545548472855382 0.08509965798382119
Ni 5.221471747931345 0.7357410735125132 4.105568486991876 0.6304846316589464 -0.0681008094329795 -0.1126423434887802
Ni 8.474444251975749 4.232126092883071 4.02364140260801 -0.3477620142788914 0.48767964854385687 -0.04829534467127811
Ni 1.7697116034940377 7.199325482873085 3.09953814664073 0.22443982247876185 -0.6775540743429235 0.37541268611662443
Ni 0.5635327983973493 2.5975840618438584 10.409077226738138 2.552331537105346 0.9418989605467392 0.048355508485252205
P 6.8058627902069455 4.696914427102864 2.0628186761792184 0.799430791945778 -1.110809639609945 -0.6851678821344394
P 2.485273703445482 2.44324437039645 9.097872143802848 -0.2380957226992996 -0.2616943359548461 0.3886386978885952
P 4.211544330371152 2.9278333577141296 2.4998644508613395 0.26900861022807215 -1.149481088038214 -0.23589100173849695
P 1.2476293643027927 4.819454495538029 2.0153949826949633 0.6462359809559322 0.5540642466166781 -0.46433248917748426
P 0.5144452477516369 5.3081654819321695 9.858479788456304 -1.2310007419802604 0.05306756924894086 0.04513031667973518
P 1.2840968218856408 0.7404023204133607 6.12706553407309 -0.9663465520661422 -0.5103840321199081 -1.2303086010092423
P 3.2237138393669653 7.9179273218695 9.299053931604544 2.6436041566690984 1.5733729527021485 1.5480452725706373
P 5.282784131454506 4.940093550700487 7.609920822385567 -0.42065973087988195 -1.017186517536145 0.7604574960063742
Ni 7.345552929562709 1.0931767413738376 12.992865767015363 -0.5259340640393653 1.363672236205774 -1.279842960293944
Ni 6.055724834988564 9.1077075347499 11.07931521766642 0.1308634944824972 -0.656550732618379 0.7121364403034832
Ni 0.04492696664638915 1.9439460576072887 8.220227958248277 1.27796708342747 -3.5307131659591517 -1.3724610381419977
Ni 9.130745556985465 6.6695450810230605 1.5554570556076097 0.13763320910616295 -0.8083409499512144 0.2914774807545496
Ni 2.413806897539896 0.9981260777385436 11.164010064443865 -0.5693566539993742 1.2463427716539697 -1.0329718053948596
Ni 1.3279707024666054 8.136092122304488 10.65670490961303 0.49797511693259405 0.5477380472883341 -0.131762866368315
Ni 6.672622463895213 8.375742137103773 4.5600104153106145 -1.5658630174783483 -1.743652487088423 1.8320706679225158
Ni 4.0275318921473 3.226217153874588 10.523841962668799 1.688949696228904 -1.4501260942246446 -0.6086222843682163
Ni 4.469752751971306 6.778900398987627 10.858987779359808 0.9094683508218594 -1.0997302418673318 -1.302786456463995
Ni 8.927722986034555 3.899956961826503 8.38897206016699 -1.4040848356948659 4.0119519439736715 -0.2644482445508994
Ni 8.541996099854376 9.032457524212495 0.5495848193306295 -0.13263498456062317 -0.6641084903609789 0.9936354696890822
Ni 4.335872480597476 0.32496974910795445 6.614619913877054 0.7807442712798682 0.2876941024527174 -0.5602747463027641
Ni 4.258806155398522 0.5541444278980849 9.677891056314682 -1.1194619159683044 -0.8916912293440965 0.38686849336204987
Ni 8.687696532963448 1.9330387586812188 3.3217656571243683 -2.333926350856438 -0.8559580376085452 -0.724914823015074
Ni 5.971308552532268 4.830917040915038 9.775767830275688 -1.6602525854045276 1.089014912332357 -0.6320434915056341
Ni 1.3464255887427252 8.84766397657461 1.3986827496371868 0.5196150637998729 -1.0418297700061219 -0.7709326845060852
Ni 9.590517851233217 8.352459429991523 5.023529211458685 -1.3268784644161922 -0.5841510386997295 -0.7643313771394836
Ni 7.2932844755200925 6.037429934977968 7.920962355436072 3.2985708326298093 -2.46371101045246 -0.8500732966929941
Ni 8.21052337960068 9.268220813855205 7.242750460814901 0.6574153946115194 0.17699859827766293 -0.8924900710963082
Ni 2.426671675479444 3.2574050646951194 12.2803706978836 0.31163698642156007 0.08220073916947133 0.06265058495168566
Ni 9.143695033536176 5.491189769692486 11.962413993779704 0.9777180271278776 1.1441594187149844 -0.5865267380207576
Ni 2.5378527190623523 5.005904371571934 10.50651450901679 -0.3073098198011159 0.8301130515209832 1.6213543656774334
Ni 2.3766524401109708 0.039975862276237846 7.879158885350134 -0.8492402592687374 -0.306476268156227 1.0867168603267996
Ni 1.0036314874639543 0.2950739626554556 3.552353861625194 1.1942558211507435 1.352778729221722 -1.2408622081553726
P 4.227580600750809 4.85064240635856 12.072316088334095 -0.5210440829369155 0.13136974469495438 0.5217693911387142
P 0.23443163925613794 9.461211304862035 9.164028346788692 -0.3396838652564473 -1.3282532332765318 0.05863092226933128
P 8.660555333565014 2.906498718658564 11.984148598499083 0.2690487194373883 -1.4252853810318808 4.703414400867571
P 5.247135427112874 2.082964711391503 5.756919427963663 0.8082316780668596 -0.8149458568622415 2.1612919430847426
P 3.6531640308193793 6.715376440617505 4.704484600749224 -0.5742690036993271 -0.7496542347432832 -1.7004271007408842
P 4.588236698027579 7.860407553934953 2.8008372012362606 0.5525948611600032 -0.04449165465447176 -0.3595026997545873
P 8.66698301705639 6.382087405702262 4.0801146721468875 0.3537647688295456 1.5256383656303465 -0.18957977737678317
P 5.571719326992209 9.027262676061337 13.381757557965893 -0.20970508737174853 1.4845205125441143 -0.26015964447787454
