# total energy = -340859.7082423229 ev
CRYSTAL
PRIMVEC
9.41595462107075 0.00000000000000 0.00000000000000
0.00000000000000 9.41595462107075 0.00000000000000
0.00000000000000 0.00000000000000 13.78120136721640
PRIMCOORD
 96 1
Ni 6.146913899633007 0.7975840623767899 8.8430660260767 -1.562848913242373 -0.7432599011811651 2.0687759380321924
Ni 7.095505388224374 0.23872739848923735 1.6664920957270657 -0.7262294280614396 -2.6435655901216792 -0.7186109922842333
Ni 6.714846601913829 2.325298173392732 10.824486014021831 0.8582499189665155 0.3703501839920525 0.7738449730568737
Ni 6.1502753953342175 4.936370561160141 8.589781562169893 0.2572098178209312 0.9970565795554893 -0.6807229589892082
Ni 1.4391062142465367 9.456348789269969 8.383022270277804 0.7116219625609099 -2.520241084328705 2.5229217164846616
Ni 7.004660260702566 7.598524501249876 9.44075691046987 0.4478000387400997 -0.4044059880251809 0.2590998357547925
Ni 0.9088081398877615 5.307688720760317 11.553593490019104 0.7725591643659147 -1.594046679001416 0.3606720374723401
Ni 3.979530696562439 3.5523006000608843 6.589687853567501 -0.09201798237020928 -0.7305416822835483 -0.4299843507149175
Ni 6.417453099877264 9.260468691028244 4.784901753182651 2.8862674441344227 0.09745663688727732 -0.17885030677442104
Ni 2.519182089313291 8.295662929054563 13.586362443389962 -0.8447729675260032 1.2476566053693867 -0.1936421203716149
Ni 5.700701239171671 7.577395099699404 13.246931413179565 2.58259419264463 -0.034261235175715186 -0.15509357067445548
Ni 1.6366811842703861 7.7684353974077345 4.225729654824537 0.32786681801686113 0.7791676708213677 -1.4712644188651567
Ni 7.459770998020049 2.7267003071255966 8.522886856120357 0.19837526418122609 -0.2186206446938235 -0.0010436107731659448
Ni 0.8680587142683451 4.28748889937424 9.265928061357549 1.1798177913485424 1.1049740067647744 1.5144445537970563
Ni 0.3671450086344151 6.299038058032917 5.529706566668687 -1.9967459687481353 -0.3871315172154494 1.0914422908269268
Ni 2.856800548312249 1.0505003624687026 6.361870721377965 0.3695904230078925 0.09899569923962305 -0.9868960940827197
Ni 2.549105992222112 6.300874169130217 5.841396312187463 2.439608460977302 -0.6224429923013926 0.9351140764144217
Ni 2.112676508325366 2.22545139351698 8.099983390640388 -0.8715126975136926 2.813031113247091 0.9555335206110382
Ni 8.393089808663616 5.79050119576117 7.667061349737202 -1.2014891056743888 -0.26968275347696136 -0.32096726268355047
Ni 7.8268425622105715 0.28950858186795453 10.451166964123315 1.1927576393386619 -0.2937189684905587 0.6355160234352668
Ni 3.652985399873353 7.7615711666901355 8.212851493780018 0.30743220431159307 -1.1889117832300105 -0.60727785452518
Ni 2.9524478125500733 3.2951508868954016 12.301099740806757 1.066499247728344 0.00938195543553223 -0.7792679438446579
Ni 0.8554648753317345 8.671142940475287 6.33163515038032 -1.1096194759565858 0.2473421809982321 -0.30741472081009635
Ni 3.65461435997506 0.6341541675946831 8.68959821099174 1.8718214654578924 1.6671454558696193 -1.8519800052519328
P 6.329413926750305 5.42949350616891 13.719350557774264 -0.38314784997735307 1.098804901839585 0.4179513308097834
P 1.7602561690958638 4.758239536858983 7.211591864559171 0.34788208479652344 -0.5878099756085555 0.23016566921894552
P 9.39266869003386 1.1736987091203752 7.663877815573114 -1.8690698708546845 2.1365715575199267 -0.782349410983459
P 3.389941299287819 5.527165200590937 3.966836106914336 0.8173508667593085 -0.3603591342176117 -0.3628705877855557
P 8.29731072106496 7.824723972482918 5.623749352286102 -1.3258716204182326 -0.23255859493115433 0.07921903083332808
P 2.3717094123598743 3.6643881205853046 0.6268050152283096 -1.587678570691543 0.7923165494985 -0.5164677764201427
P 8.466901474775085 1.269393053129925 12.63694800038883 -0.6336542876361797 1.3344866157807533 -0.9019111072998919
P 5.822270625721637 1.7479871805841602 6.95668126533696 0.4200292963847347 1.6596208653578 -0.15443433982390176
Ni 4.915768453052997 2.8458874572262443 8.915913498463228 0.17192786862297485 -0.6530684304967334 -1.5721627344441311
Ni 7.171510971698258 5.8632771068946745 4.944956969927464 0.3891791437730975 0.6387805531191515 -0.4545062471156817
Ni 2.2816928888204377 1.3219058305127114 10.52171223567246 0.42070138275109487 0.6227708079544564 -0.1597917474810732
Ni 7.4385003571544015 4.145430396169274 6.5123612116989955 -2.3455595642199927 -1.0903117767669095 -0.49006897471163985
Ni 4.738626103958079 0.8673657000285436 11.105098402224508 2.050187376396727 2.5204465154712916 0.14243834380429016
Ni 5.52669440287368 1.2573500475225046 13.130053055084344 1.2343118086313645 -0.8893638667625007 0.9395908812388527
Ni 5.464728007328384 3.4602784782459355 13.785610628500942 -0.11723099130072713 0.09493592734795264 -0.23286018533197317
Ni 9.005597638814281 8.966615587825446 0.009074155202401167 -0.22175456233711485 0.002131187410389878 1.0484624448312911
Ni 4.157322746507171 4.7119789531613625 1.4749885330649557 -0.08752472248554603 1.335419412007668 0.40417201763750393
Ni 4.448294567680359 0.9504275996886677 4.309656880688978 -1.3329640084886398 -0.04507246685860625 2.8764633135598072
Ni 7.515089729797684 9.316955001144674 7.401055931510125 1.6592303147876002 -1.5707725389648237 -1.330464639105554
Ni 5.371453563585533 4.218997247467769 3.8270120096754683 -1.0770253440706483 1.6847001769239311 0.16051242769718163
Ni 5.093183864823924 9.185075144586792 6.775141665562865 -0.800612470958705 -0.9773729850836328 0.3092612871005319
Ni 1.5835940336725467 5.127081300466391 2.6992546834004134 1.010185917848596 0.04420369110040774 0.638213624872088
Ni 3.585435343401395 5.084747169730688 8.518118616839981 -0.559174828370366 -0.6086832195131388 -0.1528497689456013
Ni 9.394005755550868 3.477735657601805 7.430561766046022 0.637478032257644 -1.6336882046524381 -2.2114068574632624
Ni 1.2322659451470799 7.143733906380127 1.601071928127976 -1.732781862922506 1.2754150064295775 -0.3894095146163487
Ni 1.1586708459855488 1.7317164114757768 4.565711518364123 0.16918090200545702 -0.3969387331138583 0.26557515906649104
Ni 1.3180358732768631 4.21943979732199 5.08407769537675 0.10183162602652139 -1.149721229073478 -0.6279145569389251
Ni 1.1411948347209886 1.4283814422474344 0.7034546499794007 0.346731516131848 -0.7561277582827688 0.7871226640023864
Ni 7.384659930208953 6.024798387731024 11.700253570112533 -1.14466644025839 -0.5071740098230426 0.7817398024239182
Ni 3.6233628075035758 1.8456777069148775 0.653478530697192 0.2736844184371867 -0.276818078970162 -0.2641998759855192
Ni 6.254048628171889 2.3292152104003057 4.845415266972494 -1.6950804917169902 0.9507859786237239 1.0436300564396543
Ni 8.159395237771852 1.5850535065960416 5.666830168201371 1.8811322013358571 -0.37392247472434315 1.7764006280537215
P 4.56482641865568 6.448742316166128 9.907566971061176 0.059780719603058335 0.29009911234978425 0.4924351609509712
P 5.053128395039744 8.88133528932161 3.0864933386073345 0.7113316850140008 -1.435040917756748 -2.4125535137420386
P 5.9409681461963375 7.067822482449694 7.671815465086058 -0.5605871353368603 0.3556519585499294 -0.8063077215712695
P 3.7726245157825664 6.651081759088613 0.2929350476541471 -0.07197289079387605 0.15632178665460172 1.9723652259109257
P 2.653415934457455 1.060490690028885 12.65316792334375 0.4509730371514427 -0.36746952001014777 -0.0032609301394589
P 8.384907344337698 3.5236760988516913 4.719538081309632 0.8191105297628924 0.45063982218174004 -1.3687900170483136
P 3.1978464146928345 2.5766194108185796 4.749897942904632 -0.39670322006428455 1.0202286467965784 0.6030188221385099
P 0.6511094765839576 0.5944800439614805 2.6913029099559522 1.533968996983229 0.9830394393407909 -1.3808850005396347
Ni 5.197409063470161 5.691473603913445 6.180510024736429 -0.24854545727771388 -0.5753396110556865 0.4965599817526223
Ni 9.507854059537827 2.201619613069458 10.392100682516318 -1.2640877543422164 0.67884271124736 -0.44508675357399474
Ni 7.30410644078637 4.261877503555488 2.1180191208207924 -0.16755442214562757 -0.17608868486888382 0.5775646437314634
Ni 5.250797524607044 2.1056804542469347 2.550335715859586 0.11615884128247092 0.5643980244425183 -1.805377732012362
Ni 0.7009001015655671 0.25765911629555444 11.729456210918517 0.35691539864338534 -1.5135539236619868 0.5094442939144581
Ni 9.170320344127974 7.241349105076083 10.91885929963676 -0.3356955700326606 1.866929941693546 -2.313768902071957
Ni 4.448209824091253 6.088035937112912 12.179274240298604 -0.5260837022433521 -1.8465338945356975 -1.682563333086586
Ni 7.586999373131437 1.909772108142173 3.0548095938314095 0.6708684347926317 0.23991426396527712 1.489608211479667
Ni 8.889103451656341 9.25629742325335 4.145674269386812 -1.0508234888643 -0.41930295974167137 0.05745078591830106
Ni 3.5623850871645177 8.821591059001763 10.400520428891735 -2.5120253812871316 -6.206182032547331 1.1080760427288658
Ni 8.960777696131466 6.155115195867614 3.3453586386545004 -0.6456027182473074 0.5334923360025973 -1.6275332407946357
Ni 2.9216858897045355 0.37443013251124174 2.6143077096803946 -1.0641050364645546 -0.06597553555986056 -0.6847868446459368
Ni 1.9215891308453106 6.637042571160026 9.666217229286818 0.23271877465810242 0.6252241545909556 0.2703188443990635
Ni 0.38451838599661337 5.124868551195284 0.693861675692583 0.31872166118248335 -2.3343223007432763 0.7835323755479667
Ni 0.6672757285991101 2.932693140333992 12.793543795507244 -0.9430880957588338 0.6308520423006942 -0.3591314324580976
Ni 4.624683640427667 8.729116971378248 0.9749316792764324 -0.5112278681774421 1.3135146415147765 1.2196148687408221
Ni 2.8192214745208375 3.0845065722405125 2.642958575561754 -0.19276923084835831 -1.3874346287326944 1.3426066737847266
Ni 0.15423709855495704 2.909407485238487 2.7766773680032397 1.1502981846228706 1.3310480224128496 -0.4953168533741405
Ni 7.887679043234453 4.022439200513194 13.585012195536871 0.7708403819025951 -0.9420773951061323 -1.4246667736112753
Ni 5.414870529070924 4.220306065121742 10.661895080771876 -0.8860013780481709 0.9902369855304947 1.5097998559361936
Ni 3.3477672397759846 7.185182937407387 2.4812913474330553 1.3962242019998665 -0.37555126857701776 0.2972079554804236
Ni 6.267136804711619 6.398348128510995 2.4349723848184954 0.23738069891014602 0.7474050336977903 -0.6596648527673284
Ni 0.1821695271197833 6.795804977373251 13.138583909721033 -0.5951995832044071 1.25294947833721 0.6015036710455641
Ni 4.813803083449591 7.6588996005108445 4.860188899340002 -1.2714817328134425 -1.4938109367071046 -0.5277464346577556
P 7.103565445143805 2.276269299117643 1.0016117859133564 -1.0135396648121768 0.7593249250638278 -0.6509634683385885
P 0.09480171153763146 7.168328379129604 8.542787475628787 1.2971104891251402 2.301979879856829 1.9009687764458099
P 8.226719311339526 7.586189601057756 1.5372788374397244 0.44227679492902544 -0.704711865704638 0.7787552658742976
P 6.398272800876234 8.462636047456742 11.440409010813475 -0.14177679896089132 0.3432808385790862 -0.5159818379226597
P 3.041372085385475 8.405914338481683 6.018636587207571 0.14663129883971524 -0.20473823028477642 0.14023516550538428
P 1.734202223422891 7.510297009036013 11.750940593947801 0.10799147498033015 -0.23338006239118517 -0.9441183367955611
P 8.510845733703803 4.398229938427307 10.734618262561048 -0.15667659889085922 -0.9201757099370346 -0.12078245609741134
P 3.1389402043097054 3.145456044716535 9.961879137319317 -0.34581568918579797 1.9029608671751743 0.3466207015855966
