# total energy = -381168.1383131253 ev
CRYSTAL
PRIMVEC
9.27363641126208 0.00000000000000 0.00000000000000

0.00000000000000 9.27363641126208 0.00000000000000

0.00000000000000 0.00000000000000 13.57290428141392

PRIMCOORD
 96 1
Ni 2.030203021034184 3.0163429651728864 2.876084779283257 0.5706668881703656 0.5807947206329868 -0.20146958683583366
Ni 4.516186722300541 6.556229071521556 0.771701013574922 -0.8548043836200763 -1.9140184105409166 -0.935344447257673
Ni 2.5402993894758445 0.9118720272826887 12.368051296027549 0.6470178534272794 0.37728727743151796 1.2389662766842404
Ni 5.9260391121096285 5.643981461965948 5.911855085284221 1.057771638047359 -0.8058282108316895 -1.803736853974829
Ni 5.2634656144993865 6.158519902228054 9.3354711209373 0.4449749105864788 -0.6959654869705756 0.13656285886011965
Ni 2.374236383027616 6.913384628976218 1.6883879128600634 -0.8421401578888463 -0.35574040449867766 1.1431723722113667
Ni 3.990649749305561 6.637438305199288 11.501312202222396 -0.4247570408777072 0.37648509324519674 1.4651125403311478
Ni 4.467342479548388 0.059320669757490625 8.213127424729214 -0.9838645063452476 0.16663011055914528 -0.6897107643101154
Ni 5.350628522725606 3.531743853617249 13.312344883417662 -1.1235936787484908 -1.1533104890866333 0.7690951170767141
Ni 4.99129366072438 1.5849386444437301 6.516093700682929 1.8184859872595454 -0.5965882360218177 -1.5354237271518847
Ni 0.40948205066313526 3.5086617726964007 10.109112179240482 0.758969341496622 0.8406368338704425 0.22080839637376165
Ni 7.273999252796279 3.6295714436670825 1.120345227570703 -0.789407346271505 0.19177781346936648 1.8967840489405012
Ni 6.386558620526036 7.816655358527252 4.183535821585635 -1.7585204053391907 -1.8946960560632211 1.5991287215100136
Ni 0.48171904115447817 1.7850729909093146 8.471270221406167 -0.7035139887417948 -0.3408930550732 0.18662609406509792
Ni 3.8384879237735046 6.493214712398547 5.526723748997126 0.04764305579925988 1.5476259256450313 1.0104792807192986
Ni 1.379416315248128 8.709409784436566 8.381675765724165 0.21396360553778634 -0.11851474310915718 0.8225771481552543
Ni 7.868736100371964 5.878873397540148 3.5938605247398008 0.14589519200463907 1.311863993285231 1.0802546496412233
Ni 3.9828413474834012 4.440532396807458 1.7477150741630119 1.0896119224864074 -0.9662848455902712 1.2492391193651582
Ni 3.438636544478911 3.0940374906670094 5.908488755282506 -0.5117325757280026 1.221487917393819 1.811184825612442
Ni 8.302269326956441 2.3086810475396766 4.620555935444616 -1.6208044067112344 0.1902426077717627 0.6254982341879486
Ni 4.234972973066383 4.802816275173823 7.361672211022757 0.9222819576467601 0.19515855701614132 0.6492164037404948
Ni 2.6111406976937492 8.17292992052692 3.859251595602263 1.9540466301073958 -0.6254686665015938 -1.0620018740786228
Ni 6.87163471804586 5.5825807155710345 12.845139083179667 -0.7021921846065777 3.07303109221865 0.6873582049175389
Ni 0.8710021844436878 2.796381584151747 12.44606854406729 0.6715011832806241 2.8993957539862647 -1.061437002714088
P 3.5749404518210715 4.704747570578413 13.331075774154476 -1.0781843973757559 0.8124989379836459 -2.4395084450643276
Ni 8.768696141739495 7.7003546848316455 2.1534088443696717 -0.3978494178535858 0.5961154101504572 0.1978960105519624
P 8.694145378974245 8.739372903542739 7.577684877678248 -1.0385122755971148 0.6440595421299037 -0.37606008989263623
Ni 0.36598869609552526 0.9929560668694474 5.99743220169145 0.046096280137430286 -0.6322165267483886 0.6372618024817798
P 1.101782189652156 1.2769611806504828 10.836036366974412 -5.972855191991584 3.9166974569440356 1.6306368194206238
P 9.101378572818053 4.268237506719691 8.118863693135744 0.21432253153910188 -0.12304142733491714 -0.2084717291852797
P 4.569046449600196 6.952074239905017 3.1750278665264475 0.812873033493613 0.37226128497183636 -0.9232096116673518
Ni 8.46726586522231 7.9915190458890555 13.24404640629196 -3.0002627021066717 0.5772625391100122 0.2165578486275238
Ni 4.945852842519414 1.3105131970312107 0.7904587978572045 0.21017199970583803 0.03704753967160071 0.5140799929142565
Ni 6.2815161413816165 3.257448237113887 8.501985432421813 0.7247597854944486 -0.19642919619844879 0.07934450066759885
Ni 3.812085881032783 8.55368688253906 1.4796504139355509 0.12637460547320814 2.603335281846723 0.9407414499035283
Ni 7.666134966632396 2.4226633121431935 10.475743538336335 -1.1152172817593373 -0.8306239297191308 0.11780049065095197
Ni 5.757870990205783 8.072635543203102 13.268789395486383 0.7087037604728503 1.0670926583379687 -1.6736683445898015
Ni 2.18915314838788 3.708749750980143 7.645603135712846 -2.195594573021354 1.3519433778046201 1.4840032065880637
Ni 5.1146701189690456 4.505586955931506 11.21066252798343 0.72848145732041 -0.05934594605848489 -0.23097402405285383
Ni 7.081849507243852 5.205301367197031 7.802098531519837 0.804765059674498 1.3794325843638244 0.46944049982801084
Ni 1.1181037896604702 7.14684842454969 13.34929105070921 1.9911648751159323 -0.8083417212821626 -0.5394848061406065
Ni 6.595632752450719 6.59070845153912 1.5971232752681188 1.2820026869494243 -1.641147746254277 0.25794489621474287
Ni 7.397338616495471 5.250463976310946 10.180709288822408 -0.9512670320252004 -2.2117809529732293 -0.28846517629078705
Ni 7.0193730190302075 0.06573895348803283 6.269568915648259 0.18105091397016562 0.08910569381942074 -0.3081659971538241
Ni 2.840459177810564 2.6663559286309666 0.4722488036951086 -0.2939339127148422 -0.18116018585452026 -0.05431146895837098
Ni 3.194229857990775 5.042827258023357 9.811404340361557 0.3905328295875145 -0.504947434485369 -1.3785239565066258
Ni 7.765752368501322 7.365984451934045 9.040789269605371 -0.2601012804361133 0.48333242731875464 -0.272173381109299
Ni 7.796411010335121 0.09806870459541066 3.7403941803598992 1.166650914949281 1.5794600394364926 -0.6934231801646961
Ni 4.164901376667052 3.3088427298673397 4.021121991048356 1.961084510790784 -0.626041251175612 -2.6309250185395334
Ni 1.6940244290447528 4.819276979727663 1.189131497969379 -0.23606635097409667 -1.4797616577028903 -0.6596316855365478
Ni 8.759088654461873 5.502549233712085 1.1264222414828895 -0.5895763234803587 0.05286059544445735 -0.39779079670150846
Ni 0.9915093795959832 5.912323403920824 9.515406560028959 0.1716674158727366 0.1095297660017275 -1.7799497788575602
Ni 3.21619910254742 5.43584396731447 3.6486547325858947 -1.6487448418752446 -0.6787915462944504 -0.3301229610408895
Ni 8.340198499703035 4.538276524129976 5.897290839367712 0.6966751114430906 0.9859532705534764 -0.9780119042192125
Ni 6.590504431539016 2.153032334733117 2.9423068892260815 1.2227266748969263 1.3141329918250657 -1.0199386263599852
Ni 8.101003596853918 7.022553876304556 6.02022123570306 -1.7817580357108929 0.43785886836698784 -0.7731466614382684
P 5.313997659070583 2.5527075149367104 10.236738745032769 -0.28793167238482026 -0.909958917305033 1.4258741636558154
Ni 2.4365273985138924 1.4754448198424994 7.2053391038522125 -0.06427397948772157 -1.0347605218641662 0.149330185828117
P 7.875181277647974 1.023317952339459 1.3631670496034871 -0.030958910275359585 -0.27875077721650054 0.3421822061982688
Ni 1.8720318791354296 5.269400741775137 11.668870118853205 0.10578161181320492 -0.6847289948248079 1.4065494951852744
P 0.7913110450394569 6.092454516739855 2.9235222113983306 -0.07825795247163941 -0.46469321495101257 1.1920354164606568
P 9.159218242847517 5.090846147138727 12.55296853257629 0.19919853141346985 -1.773596840056339 1.4493275095827491
P 3.12813665159347 8.304606283321268 13.005502512715902 0.6552016747896522 -1.8437972123308248 0.2514621167038766
Ni 7.427932342874692 3.5870518209181506 12.514720346738624 2.6147990595119484 -2.251417593528245 -2.489915179651654
Ni 3.2678439834828192 6.858707268948366 8.009737104534699 -0.8891558645167525 0.41794001795587377 0.13501608319829006
Ni 9.017572720957181 3.9629957656551102 3.3285510618773793 0.6824761942348891 0.1886752632846428 -1.4567590261601298
Ni 6.061944253087949 -0.6247333517727841 2.0729350100559514 0.9720384602445968 1.782986251691039 -0.7912374575017084
Ni 0.7118962599990031 1.224537314260142 3.596711240559434 0.5038068931230227 -0.4162518316201734 -0.7435805177453775
Ni 0.5302656001792078 8.235647523286142 4.534422400855286 -1.855000794356128 -0.5667189592662111 0.30676397459997484
Ni 1.4715962607496298 6.017421524883451 5.228363973481506 -0.595149189582446 -0.40314589036583476 -1.1371742456464027
Ni 5.112360983513323 0.8242203984198573 3.703692837068476 -1.7966231257481833 -1.3232611793785791 1.0845365648460288
Ni 2.5882348158638995 0.6742944466162123 9.929868553421903 5.658698781582281 -1.1096822108737212 -3.1212035381588183
Ni 2.2157499374923377 8.633161946215907 6.238269465541405 0.8579064195841677 -1.7363916917609514 -0.27680599478530393
Ni 6.976250609917333 0.6556646385158132 8.834861682500472 -0.033607146531484056 -0.14030124285662934 -0.7379621431173355
Ni 6.024358204886985 4.593157904157933 2.9972912066177266 -0.010715586645291222 -0.1666221401393453 0.7628967015754862
Ni 1.223897433350725 3.563617341815304 5.1965628196471245 0.011174014338948499 -0.6917277947401441 0.1060171248627787
Ni 0.8478987741591917 8.467052571585837 11.14376158785844 0.7503551174650496 -0.2726436358774982 -0.2507375798330262
Ni 0.19278684437093274 0.8131458218687613 12.964810723695173 -0.9526124903095012 -1.3248686330750152 0.4014330214397861
Ni 8.867905503608213 6.5435334633332705 11.153561039408888 0.057828480972693955 1.8874116065866655 1.1762724971994452
Ni 4.9585020825258574 0.8368575826990219 11.863831630952516 -0.4116251314814395 1.0314656531629784 -0.6388569148830417
Ni 7.039246421767604 1.269699923374057 12.885422832200188 0.16964421479512073 0.1644935238321167 0.9726673520778474
Ni 5.595118671941058 7.431141021058145 7.436214627515275 0.6052734225006414 0.35376913970491974 -0.9643734875001715
Ni 7.433876743786811 9.058942412796435 11.124338883848546 0.4397429727635781 0.037605726167915875 -0.27590996533359574
Ni 0.6792539873460114 6.821455071656661 7.165787972104792 0.6568063002726108 -0.7421576692559219 1.2747208085760304
Ni 0.12529610097291666 2.698813655920228 1.06732692108915 0.21265902779374987 -0.5616253467933876 1.0483413458723947
Ni 1.2727694970119843 9.109928865549682 1.557829950611739 0.6461002267090163 0.8714720740837444 -0.40221257991828796
Ni 7.904996018572253 2.5137489685532293 6.87487956341115 -0.7171233519951132 -0.7267377351564258 1.217840807559535
Ni 2.9289296687647215 1.0446658632594246 4.812368120633234 -0.045174282543793166 1.0274035672784627 -0.8101934297789207
P 2.775330429595569 7.705622110288874 10.000027322003097 0.006127195943660415 -0.6743782477181032 -0.615845798699849
Ni 5.059631087122827 8.37140428608257 10.208791714473076 0.49560713092104963 0.16733047906027956 0.22873870696443188
P 6.6701927888523365 7.084103000881364 11.25963381955383 -1.0684939095608694 0.03550024978913886 -0.2775395305172188
Ni 3.130482881594665 2.9425062724080013 11.128994249305464 0.46876121437279916 -0.019978757114772046 -0.04715968840493813
P 3.0359103379101264 1.2007782578844026 2.2870883126195864 0.15242116604861491 -0.08810604891031278 0.56174207487691
P 4.514100154117661 8.770504500831324 5.63860553496321 0.21911892448648068 0.2266265457174355 0.387522582006281
P 6.206529517707056 3.5109616345157537 5.238639162577649 0.16296243189957096 -0.3862128620559219 -0.5044424698244925
Ni 4.16977930939681 2.4634487648912424 8.376517769176083 -1.3754658864065925 0.4583773000353138 1.7679486406316263
