# total energy = -340876.01645611005 ev
CRYSTAL
PRIMVEC
9.22575135901670 0.00000000000000 0.00000000000000

0.00000000000000 9.22575135901670 0.00000000000000

0.00000000000000 0.00000000000000 13.50281966715865

PRIMCOORD
 96 1
Ni 3.7298604699250384 0.8451941247353559 11.108539644187312 0.09408977729757344 -0.4508761065622622 0.21241143055931805
Ni 6.2577347290680265 4.964099906632316 1.7911223808300833 1.2295840641383922 -0.9723431359692092 0.6132656966774986
Ni 5.627514444120046 7.280160145747479 2.904240621346877 -0.24321864574816177 0.10586491555563057 -0.2906763250094929
Ni 0.8631963329012297 7.063567186638057 7.029229863534196 -1.5968039300315788 -0.5736455111827153 0.1344923494843361
Ni 4.954772672247188 4.495976068911516 11.14399789605259 0.5842824220712712 -0.47642027357995365 0.8030951281712427
Ni 1.2095236494493586 3.63845172780057 1.1204028936033383 1.290701243164687 0.31738443042829856 0.4512345183429455
Ni 3.187330949399048 5.894747551142388 10.72870532213637 -0.005980900173783248 0.8029066663095205 -0.3869142589983207
Ni 4.7693258489282595 1.7289795664172858 4.816927956996449 -0.18719199387089697 -0.7422432869911927 2.1200841013878646
Ni 3.0565836044870602 0.009002487945605243 8.333386655125434 -1.1634090109732156 1.2515906503164702 1.0922105364515189
Ni 1.2614554025194673 -0.01296956092839911 6.34650029349582 -0.2489177530154681 0.23355721139899777 -1.3267090287178633
Ni 7.055752975437066 2.951437718940777 4.785736615025454 -0.8889234367909722 -0.5504752437138392 0.8467892266250837
Ni 8.572272719247932 3.6455278789117394 3.152679028181899 0.67409619770131 -0.06289046887663362 -0.7655153701452558
Ni 1.8721170950871622 5.91376182420643 5.352031670443718 0.7717464386566322 -0.01117375722863237 -0.005310613579636016
Ni 4.547437308674363 6.2590816887319525 4.996677878997064 1.3342675577914118 0.863119845464307 1.2324775836361033
Ni 0.9811309546539053 1.6462430303482267 8.038052832758225 1.4970312434166153 0.2368173702075083 0.4347473193211997
Ni 7.849010734226751 8.84969105550982 7.263949578449649 -0.08012277359452007 -0.5453641477395188 -0.0320688555100867
Ni 0.5030165510422517 5.861018205037517 3.266210198923674 0.09877098482332666 0.8009408008324013 -0.2179362170322892
Ni 6.942728298431932 4.927833478968681 12.783065137177521 -0.37919606441845666 -0.3345162050125788 0.5049996278795431
Ni 5.311523242413831 1.7385282188293594 9.438294899718068 -0.5783151487442427 -0.8307766532469111 -1.610548533311181
Ni 7.925824338074989 0.4503753377108017 5.015973537470351 0.15239905456142785 1.0316381741851008 -0.7196795427580638
Ni 4.111935726923702 4.304145025815626 6.431500828890409 0.41075584150260874 1.0534280163666825 -0.9307933375518809
Ni 1.5153111704137836 1.6879618769254219 10.581362696104732 -0.7646846467138444 0.2491005584502355 -0.9712563306629337
Ni 5.828949494134746 2.278142402000553 11.583110436792705 -0.889654401419726 0.8136790743346761 1.4891618679708676
Ni 6.876551985628256 5.378280777538241 4.415935297320533 1.3204777030961712 1.1001066513701443 -0.289786723315688
P 3.1073067841600848 5.890678994897243 7.519098796651379 1.0110958312573746 -0.2138803017953607 -1.6610622257900167
P 9.074172031829217 3.5595254269452172 7.771777358702429 -0.17349161356566895 -0.8795391673625949 0.5311829711431303
P 4.887913653860427 8.586268183701184 4.540160958763829 -2.131855640101496 0.5322605204780253 0.29044621127655784
P 3.0624788594545143 2.226930257518021 9.100954387338637 0.22663760146102901 -0.46982539397125533 0.9689770477104538
P 2.106515753863543 6.52550292965549 1.2790830451897564 1.5976881324087453 0.04202056740615989 0.5474817083031539
P 2.6250583214703154 1.4641359289357427 5.641032014665138 -1.5457983855179893 -0.6031206378236968 -2.6871272767627143
P 7.657945428474052 6.508370709820494 2.5700590061518835 -0.62615695081787 -0.34753781408322726 -0.1041718441239238
P 5.127082025967284 4.261125348330119 4.444587712582539 -0.9470643067977623 -1.7609380136417478 -0.7210098315337131
Ni 3.365932265384877 7.842783352218878 6.525777857038949 0.014140038945807908 -0.46113917905116714 -0.8792499182569503
Ni 7.1916482894755624 0.5864025799903543 13.072484330499915 0.8259468359584357 1.0064902141645633 0.6400715040164332
Ni 1.6994110340687874 7.179811650785041 12.638436727126205 -0.715227420523981 -0.44236781198093494 0.7318182350031267
Ni 6.449538094910549 7.0461581942693785 0.5506647878660552 1.1383376698268846 0.30172255552132554 1.0310059399177405
Ni 0.849287590508532 1.1188990961703258 4.085521478884081 -0.7480326399794601 -0.26792848979001593 -0.2802394459468851
Ni 3.2935931508311866 8.422132845475868 0.6914082341195711 1.4151392937368144 -0.1845499282623596 0.11048030284045489
Ni 8.013395167732382 7.736917858085018 9.938372126452604 0.04569853047837936 0.21903047853773241 -1.8579377654972646
Ni 5.080362822281544 6.8432562498261555 12.167606976601094 -0.5529368178804541 -0.26764875376606806 -0.5090995089805297
Ni 4.0212373676356865 0.5608334107535794 2.885242032059744 -0.3100513871019951 -0.8178820566724302 -1.223739689542473
Ni 3.8184184549525697 3.4321823841975343 1.5760894962355225 -0.9736893655844586 -0.06784395622716702 -0.2073198749690236
Ni 4.80973463884602 1.7003981894389244 0.15694847810067267 -0.5674057009205905 -0.8387136487058007 0.31182570539359844
Ni 7.949543744211646 1.691956627161584 8.760116392708559 -0.39922752914803505 -0.10886950670990928 -0.08086016598117687
Ni 5.579033121969856 6.176704956956681 9.496560130933965 2.030657019673283 -1.800290033076809 -0.04392498351772436
Ni 6.770059140418048 7.891476866644892 5.019673063670584 -0.8434344512202377 -1.5826263529796163 -0.18342635618087766
Ni 2.4489387325365133 2.6750618925557634 12.422026437889011 0.8002278339257767 0.7603104289055486 1.8306591322869699
Ni 1.788596370172667 4.446120109844032 8.511407671365639 0.16129430016852866 -0.19320554705482856 1.5018615749257231
Ni 5.5381907217493245 2.6449859438955126 2.921227074314133 0.27728242020109023 0.07611596642797214 -0.5619500771226581
Ni 2.720480265333192 2.423660174460106 3.5948286861916334 0.28305506101880923 1.6066003472967103 0.023295994413463108
Ni 1.3791298580904807 8.92010198807885 2.0184550368215297 0.701936874062662 -0.2627374325073798 -0.27325607265051655
Ni 6.5375702121240815 4.640239139218372 7.2239946954871295 0.01449870783680729 -0.5715140666620092 -0.2341940736520483
Ni 3.032854972599279 7.469131205995309 3.7060377353758054 -0.7383287824281349 1.1086589118155294 -0.9798412441184674
Ni 9.206921364734846 6.776480263199501 0.9151659115509416 -0.5339229957821128 -0.270757731708695 0.37493060427388336
Ni 4.4067353783009 4.07172067777952 8.788863833207131 -0.595555166771613 0.0018802477418483749 -0.07139927767859316
Ni 7.078835804746252 2.752078462928701 1.1458438248995066 -0.3860645094035157 -0.07243260403911396 -0.9194727703327392
P 1.2842614592949706 4.031487177133092 4.338577374156053 -0.6458767978443006 0.3059949576444343 -1.384912890752105
P 7.765056399009486 2.0313351079640376 11.005176173757949 1.2287636251196257 -0.6991837367975572 -0.9003003111693463
P 5.35996766155953 8.706322883061874 13.225133608577375 -1.2208970778873556 0.423175041102568 -0.3030775268873232
P 2.128592976300347 4.05045532144152 10.859237707047196 -0.6920286138100146 0.34193229497099176 -0.07143167357842536
P 0.4514215378881245 8.726582632527492 8.432456460982255 0.5825757237928095 0.11321209994932115 1.380719164385732
P 6.203561118475084 2.366995611064013 7.262193918010985 -0.30695783577833585 0.2973768769581201 0.05147039996515007
P 2.239191280760191 1.7244589483671253 1.5260619381971552 0.7457088769422899 -0.6947179877167197 -0.3342233563625083
P 8.527195699262048 4.408137692471562 0.722985212487498 -0.9491255602021654 -0.37743460164265963 0.6622920059775304
Ni 8.127490031867758 7.208162383985332 12.225330656226081 -0.2611829435360663 -0.04501153171368377 0.5982229434117632
Ni 5.648724445951309 6.899302687897023 7.170496409876374 0.40817419681836153 0.49026772098600724 -0.13277228146943587
Ni 4.27900485400606 5.758215660276419 1.1849545516342928 -1.0992224489929778 1.7478148459962286 0.21850365949998496
Ni 6.310496799739185 9.14190749657264 11.080548715280809 -0.5316390848439425 -0.2669666400973789 -1.1027775133340878
Ni 8.972098321406818 0.17310922634244016 11.484512066818258 -0.08137001573805987 0.2621262812859421 -0.9755001935409524
Ni 8.687769897553972 4.615265030929016 5.915747205848052 0.9651175647550475 0.38766090735635816 -0.6949355030441645
Ni 6.7586561120302955 3.618597911384355 9.636071016837475 0.2652673980180851 1.508645687727092 0.12343737722175514
Ni 1.7591846755932559 0.5143826764255124 12.742569625199206 0.2618935964498457 -0.6522263942114122 0.7287969316782997
Ni 2.998894982716339 5.025128250309481 12.927977700363419 -0.09130244436042341 -0.260484631917461 0.07368087462391826
Ni 8.892009575909997 2.1633648322820913 5.959442208315746 1.0143804155459175 0.9250363804634456 1.5306687289654026
Ni 8.848510159366105 2.4799557078112873 12.787318208445122 0.6508649950875114 0.5802529891969039 -0.4411884469608531
Ni 9.11757919086188 1.635467353036824 1.5206067515582573 0.8105767812602684 -1.32454287430448 0.2914330006698594
Ni 1.7906721641752916 3.49895837082419 6.319980871893399 -0.12096526153217878 -0.34442960747154877 0.10041854772907867
Ni 8.446479602688877 8.526356155909875 2.8949096966613013 -0.3081294874889339 -0.8428757505032904 0.23519140456831106
Ni 9.181633580907317 3.7725664718723704 10.320596840619455 -0.40539920517638567 -0.1992198715697085 -0.48301566740928426
Ni 3.7731569199442285 2.1592870502858243 7.049713798752096 1.3403790700057883 0.5584482346169866 2.9392632796051634
Ni 2.1688910572046343 7.00366438459787 8.990298883221831 -0.42568598044987976 1.913297987435124 -0.10231422208989477
Ni 6.261415803766015 0.2539840058349229 1.680426283408338 -0.5549697891500829 -0.007609436916141734 1.154713797192063
Ni 0.6309666482138137 4.820510316157423 12.50313831918535 -0.6183312841258641 0.3157021576298692 0.11157507856653043
Ni 0.5896260574326524 6.322711694225741 10.591894813586494 0.03132040737983638 -0.3612078553711521 -0.09754765393918684
Ni 4.510432820920907 7.97328160185055 9.970806177099837 -1.673905400301272 1.3968186410507555 0.29204080945718736
Ni 3.2244738234193453 5.112311598419719 3.5435178261720877 -0.4825999200281043 -1.7381608678462324 -1.6768989357119575
Ni 5.124295849128205 0.3147567962059881 7.272469559611533 1.7009636899706448 -0.6569592809107072 -1.1521720046068158
Ni 8.682575799671847 5.5605447167198125 8.392271856816778 -0.9202394732954347 0.2552120706646121 0.5939451419720158
P 7.553482248510854 5.564797787987412 10.839104350371962 0.3369723798625552 0.1673199375373183 -1.8355272590125484
P 6.253841462094216 8.472293254330404 8.769581090785415 -0.15657426898504004 -0.5520904107197588 0.6631993482831482
P 2.4916908632394588 8.090568575874407 10.968272246691729 0.737085396939337 0.9920002480785045 -0.7742524929079374
P 9.098592595051207 8.954670877535893 0.16281421066453394 0.3841359249222352 -0.5730135340256711 0.1501591094873156
P 4.945177891079501 3.89527818755642 13.261645441220875 0.30258104686687887 0.05132898929127934 0.22336175892323468
P 7.912161000662156 6.654571187863132 6.199590355191841 0.14044908128840328 -1.2066688501031155 1.7729964874681787
P 7.629290245486708 1.3438044570413699 3.0555263334083897 -0.931725105337531 1.7048123742927734 0.7294962717381696
P 1.0126553462404324 8.138090419907828 4.3261410616425495 0.3837402321457133 -0.4147839888253953 0.034734061047075666
