# total energy = -340868.26550552866 ev
CRYSTAL
PRIMVEC
9.31682003063810 0.00000000000000 0.00000000000000
0.00000000000000 9.31682003063810 0.00000000000000
0.00000000000000 0.00000000000000 13.63610787343509
PRIMCOORD
 96 1
Ni 2.600128773741084 7.6871217420095865 0.5486852243640062 -1.231125440483583 1.0904884115540896 0.26186351454285867
Ni 7.0680283781723885 5.87706861044157 9.180755173637623 1.085132546558815 -0.15603099488706032 -0.34261775107379056
Ni 7.195724711371573 8.693655060325705 0.49388927995442766 -0.12428944080940531 0.507898289583577 1.219794588851796
Ni 6.730787449176993 0.48930633625818665 4.591372623181402 0.023653377752881843 2.2648526359872285 -0.3198254357696234
Ni 4.606384815045101 4.478315809050938 8.35238833346256 1.0295280698206333 2.0712202858076263 -0.8043385136600405
Ni 2.6596166686394342 1.5888345604691214 11.176890353512027 -0.20110089064250528 0.14757052282453295 0.8216939742193525
Ni 7.300529618139239 1.4387405922917635 7.08609835031888 0.3153108357287215 0.8978359087892538 -0.0739500691249049
Ni 3.991828742486759 3.703407949633471 11.98759809329706 0.5527444993639901 1.6446840415423092 -0.06896444298485542
Ni 6.470913392419013 3.853790739226937 12.367608815608095 -1.7286902093516356 2.2594720884016053 -0.3695027483900926
Ni 6.799983470384518 6.243983610737083 0.0539499771649788 -0.3662780708052079 0.2158752207382024 0.4526817923124333
Ni 5.886590400353256 6.899105117028771 7.313616955016877 -1.6261389315502703 -0.37640256083371953 -0.7154223101436066
Ni 0.41494879684021685 2.333071448859905 6.910752073553818 -0.8698468797754955 -0.30198660781598957 -0.2526815909332745
Ni 5.5652160156040456 4.3366442460400805 1.01462031796714 0.6510200326081368 -1.4295840084072347 2.1950093899418452
Ni 2.586433048525645 3.319452485787593 3.0667467902410146 -0.6439397287225878 -0.9244571109212079 -0.02238659522531628
Ni 8.186289000422889 6.38513343183497 6.681024450863591 -0.8282831974010961 -0.6887255175787106 1.3840304881471517
Ni 2.966018923850407 3.9077910272192375 0.7182168738454251 0.18295327319920104 -0.2711868488263136 -0.7992844961759008
Ni 5.311546960882449 5.918947715777215 10.904181445695007 -0.017908504849304643 -0.0028672942454660297 0.41185421677311007
Ni 7.6255841467388565 5.178390971236838 4.380149136443816 0.8393546247239093 -0.7253292848446734 0.593775706273687
Ni 5.281332514029614 0.689472621168778 2.4124861581057253 -0.09575533792545445 -0.44288048995129536 0.2722448577771827
Ni 0.7747261814299149 6.177377665454654 3.352668812003975 -2.0951009490799657 -2.1264992608855895 0.008344001089321115
Ni 7.727873512140421 7.585260950322245 4.607599728356728 -1.4265948438719238 -0.6541871174822088 -0.6049052405279453
Ni 8.200804605787278 3.602413622194454 10.74042529285376 -1.781934670498073 -0.5856235094801979 -1.932739641099504
Ni 6.251315947978274 8.44849226214948 12.121504086942565 -0.2311470592956084 0.38198262602465827 -2.660582693504966
Ni 2.7275456023440348 8.065617549409037 7.78306728475864 2.186256840560196 1.121400527751914 0.7235107435786958
P 9.03487427140749 7.038046851816414 9.058548310708462 -0.552624428846358 -0.5536312728443175 -0.2537113177493695
P 1.948035233908591 3.5168572652873977 12.164676366876781 -2.262396461137252 -0.09444921751952122 -0.4371710982713439
P 6.3298940067993685 8.942097379097737 6.4343886634652145 -0.2227431515026293 -1.775652694144103 1.6633692766566384
P 3.973660943731585 7.957719458443054 2.273371130468417 0.2863311606669198 1.310308218762337 -1.5837697225554404
P 8.137944022094377 2.9702021759740336 8.602407058157349 1.0797877373071338 -1.0977263240634256 -0.6327004083633426
P 8.0552758793484 2.4880194801918503 4.914943914057008 0.599420306153974 -0.37479716401981256 -0.6731528599514341
P 4.780041020684938 2.3242856877183007 1.1375510978005448 -1.140349815160907 0.16349722135711842 -0.1900538887997243
P 7.135873460498119 8.814540798196667 2.7216713474131953 -0.32184966528850373 -2.063527030928427 -0.2994044489111101
Ni 3.44137239066462 7.010217510851438 11.813627910827453 0.7369974652112211 0.08862309775604738 -0.08267690747494148
Ni 1.7358446612680372 7.001375848790587 10.021053133343903 -0.9146288119768764 1.2637763937493849 0.15883478288444258
Ni 4.699525063329958 8.35183025595208 4.167398622928808 1.0228293176442191 1.365771284826648 0.7268151253615804
Ni 1.1785777141176765 3.1601348659345314 9.705021944792687 -0.41065891091342827 -1.1925509226444948 -0.013696266540169961
Ni 0.11654409980947047 1.7288477295423266 11.431803203686862 0.5170491028449096 -1.0598701724476005 0.49753648673327866
Ni 7.657317235231226 3.9366731688300267 6.528477364013291 0.23436736600511895 -0.2624132163987416 0.4649732080852766
Ni 0.7531176810951075 4.70977356519185 5.641939095588137 -2.724435269184553 0.05347920286506274 1.0992278483096165
Ni 3.5955564427668607 5.890419613321654 1.7705805608059415 0.6050080846543968 -0.33733387696703193 0.08838938447868648
Ni 4.240932555469876 2.7157598252028583 9.736467143550938 0.6456068320123657 -0.9691783650879824 1.7144995196735504
Ni 2.6828621342261822 7.10782983267603 3.6901352080403322 0.4887913935507969 0.4391004540835728 1.0095282296599388
Ni 8.761183370775704 0.6207843666444098 8.841242803956836 1.7167106683922564 1.6051425318042614 0.06464653233579189
Ni 8.529380892299438 8.576188595348665 10.801419717525809 0.4439223009522483 -0.9318626593566597 0.4882200944283592
Ni 5.312935167043742 2.805685770631031 6.377389291155329 -1.0089438179113783 -0.8873164973151686 -1.1616287791443414
Ni 4.6183662454036405 4.285550805848608 3.715075403162242 -0.4845673281671203 -0.5899051675746873 0.06404720818889614
Ni 2.2114589990387348 1.077024377486193 8.24721354894588 -0.0747810496666325 -0.338699646966307 0.7316338869064626
Ni 7.083475665524223 8.379827299674798 8.699740807067695 0.05431044051710646 -0.02836852384036405 -0.16576956233106288
Ni 0.13840322259890048 4.683351064027916 8.203073251426707 -1.2267669064045712 -0.1929209259348742 0.8311875155320845
Ni 1.9405165602699115 5.720620571109838 13.018514460906598 -1.0424913148495207 -0.8079102901716989 0.5320913418900126
Ni 0.55621694155051 2.9431088637791394 1.2613744289779214 0.5617078792048648 0.1198414323403807 0.48345301205701896
Ni 4.207037964766634 0.14868433333035388 6.292190700131452 -0.599809828282909 -0.29592111834820006 -1.4811454254242944
Ni 6.498286209210142 1.7392266668824616 9.905732331983947 2.978467460608451 2.6838437209154358 0.3343783938831338
Ni 8.452973652509089 7.20776204264936 1.9155325760945916 -0.25107336590589013 0.18229044280422155 0.9904773836760749
Ni 9.308332251542414 7.715053567993181 13.498437827869227 -0.31357097021947933 -0.7078918060945163 -1.0322135870725964
Ni 3.636979023928657 6.843241465061581 5.8430584911718855 -0.7917097691524365 0.013487235853157418 1.0408170124708913
P 1.30882685596246 0.03245980044257696 10.08649261277805 -1.2068223449618443 1.0143482767564014 -0.06457942654328233
P 0.5111021046724703 7.213631639170263 5.789168141654103 1.283743580899931 1.3719912975944306 -1.6293731222168517
P 4.648235969921121 5.479231084982764 13.290732372316231 -1.7671711390356535 1.9365407600131488 -2.2475974484512062
P 5.646048744834757 4.833659319062385 6.490392067730522 0.3766090204175707 2.2407588282628184 -1.435519142944747
P 3.7822655130507994 0.2747930804229327 12.809827944220823 -0.8891139555352235 -1.6815721728179103 -0.23136020374767896
P 8.127872539810099 6.108489099302985 12.159453357655165 1.4104634855276998 0.42694273567511637 -0.8766335636800257
P 2.8426735455325893 3.164606939474267 8.274321768052573 -1.2745331180452566 -0.42646322493553646 -0.14486263697506666
P 5.5220977732250995 0.013952869443973379 9.97134883099571 -0.49722641169202747 -2.275263546907907 0.6440456581728328
Ni 5.1660927690025655 1.7092358237066134 11.977098037298557 0.9016090026784408 -1.0353153659263719 0.2601151643931843
Ni 6.9275214176458375 2.220542898416322 0.7398505295938934 -0.46051260121076176 0.1272194699720067 -0.2095994150318197
Ni 2.743710284826202 4.938352423991558 9.887187202023858 0.5722841120588144 -0.34144224270845064 0.3202563526594549
Ni 8.715148963776056 3.8764678788013436 13.136535276666166 0.892721984601456 0.6245343276127825 -0.20738440965837188
Ni 8.807282995514473 9.233406386112103 5.898693881052152 -0.2883998702704904 0.7232613465720512 0.8626228512232306
Ni 8.054046059124973 4.901159679052762 1.73891734846263 0.8812798042027855 -1.5141769019579665 -0.3586894598246726
Ni 1.4386474240930192 6.378332153326624 7.582220871997213 -0.9467868847666598 -0.10864967738961934 -0.4268113523035746
Ni 5.115772624860672 1.126040166845664 8.059117204182636 -0.3978108513061665 -0.5259746874693135 1.0730357632952812
Ni 6.55646974932607 2.928397605197386 3.043688592733743 0.4182477790042797 0.21078160826537892 0.5810580015967025
Ni 2.6595794013599363 2.25618905125596 6.162634729685327 0.12649904686621438 -0.2699187807471674 0.3071349847861485
Ni 8.84768072649008 1.034893718013939 0.16094992669506472 1.1636720348266152 -0.4916216639107404 -0.5109105940473395
Ni 0.41580780763264097 5.128955924983017 11.048069480153995 1.4897275106663506 1.2247257076048261 0.15507840116580388
Ni 0.39313253142220933 8.447122689627935 3.8003559822010153 1.2526957104551908 0.8033170143740617 -0.5267753289937379
Ni 0.8888935604894136 1.4964769250537182 4.260942289514228 -0.6719549829885911 0.6708031287723351 1.399724758953957
Ni 4.870693678063318 7.7077119139321155 0.12091648337654895 -0.4242716166008564 0.3178225464069817 1.0497654799134308
Ni 8.274351581876171 1.1688043700693806 2.6614958712081105 1.346198504901043 1.485047845802494 -0.13531973048163792
Ni 2.8260896061560716 0.37047495716953915 3.530593052828297 0.6738719975056459 0.32895130933029154 -0.11359905097509468
Ni 3.4350369531499956 8.89527104240876 10.038739252511567 0.5904798091312347 -0.9059081442744269 0.003392570621316738
Ni 2.6205512429058735 1.5886948081710048 0.5398389038932179 0.1122762183986131 -0.6991389996025508 -0.3846899976534923
Ni 2.8417418635451446 4.592623872090541 6.745536906720231 0.7623652545520483 0.8353059085758324 -0.8063344610441467
Ni 5.370857836203185 6.305288285510951 4.483170803887512 1.7166625887631402 -1.0828002988812127 1.0519804852868786
Ni 0.19198891210678834 3.6317522879790913 3.4881167393387007 -0.8435912885130763 0.5009192871625824 0.46008245565187866
Ni 1.7084625276570342 8.648207612978148 12.172380445230964 0.08873262675071815 0.8972013605290484 -0.5579224440205036
Ni 1.8246246378516522 9.276124005236447 6.0307188087650045 -0.09252886056835678 -0.6921934215226532 -0.6052777933760156
P 7.412629594868598 2.036572973175471 12.250106015033545 1.3350311754303137 -2.0045520950561153 -0.1452650146198079
P 1.220615205391186 1.0627044253391664 2.1557462795535107 -0.617335238761182 -0.32571249067801966 0.01938868893925693
P 0.904163828263634 5.135095709280278 1.3526364063760898 0.5853540578688952 0.31885638698813473 -0.17381120168861677
P 6.049504312677855 4.123512674592208 9.956008687072432 -0.16194864592307595 -1.1266867158515177 1.3099333519214216
P 2.4311868789577176 4.941781013705355 4.575895522005969 2.2431599815051433 0.8150008784698932 -1.7889897775726415
P 6.335903355618387 5.453293058452301 2.7377214330109068 -1.1300669451776602 0.0012151033540237137 0.30051850791089535
P 3.9812075678298884 6.663547960143101 9.11397873055149 -0.4869551116730066 0.4919242827528238 0.45688297487797447
P 3.9579434686033914 2.2164807649510623 4.510620018601611 0.7076177264975233 -0.504833277505008 -1.0283443339251774
