# total energy = -340865.2746344356 ev
CRYSTAL
PRIMVEC
9.31362984831847 0.00000000000000 0.00000000000000

0.00000000000000 9.31362984831847 0.00000000000000

0.00000000000000 0.00000000000000 13.63143871914924

PRIMCOORD
 96 1
Ni 8.627113013730947 4.491777473620178 4.826088359537284 0.28199602362667564 -0.061448337113468365 1.543460481413432
Ni 6.844707759954022 8.921190880798951 12.85758169605484 -0.5937422819325903 1.0693251472129133 -0.22951029502313378
Ni 4.4701884792935385 7.025652963482041 2.887370590841096 -2.472880078546238 -1.1289189476161463 -1.134989065069626
Ni 3.8123015973906846 8.347285000554123 12.66618287422129 1.5654254157202976 1.6035445911895223 -0.8685325318394461
Ni 0.5626457015817959 8.40591430136784 8.779696351200517 -0.10704839434077049 -1.525245501067302 0.33720763580181284
Ni 9.289591515220959 1.4049983391504899 2.120765706015524 2.1244570336445796 1.8876959705963037 0.30681822487667804
Ni 7.341692370076454 6.903290492617766 11.86393193331878 -1.2761269448949377 -0.41668686227506296 0.7414873826617746
Ni 6.563752797547896 6.077478861918836 2.9491478985928636 0.8880893709254511 -1.1694547029466633 0.07905396601037352
Ni 7.0423616156917 5.547617137916752 8.02594613849299 -0.7262893347650975 1.0240081684436686 1.9355107760867376
Ni 5.681519196343883 4.191012420216312 4.345293632433832 -0.48445265696612705 0.12127559368374598 2.34290592864723
Ni 1.753616823464741 8.892644604866616 11.176484521177219 -0.1979014098686011 2.090795893946709 0.5435018977197994
Ni 3.9664701146852743 1.8288336992981915 10.220035259364137 -1.0012644469892495 0.1309714808152712 -3.6296404738546846
Ni 1.6449547023219884 2.817168173396542 8.553701119390379 -0.2890866119248699 0.5231698710306667 -0.902577023018665
Ni 3.6382298527984123 0.5837801907647165 4.3016052568568695 0.2321464470944002 -0.016232916919094623 -1.7071042556507436
Ni 3.0338218343224614 2.7450434227211775 4.730136549247664 -0.4402818759861836 1.362594429760563 -0.46234116977906825
Ni 3.762781026711331 1.5468542375927 12.73582647386619 0.10618887455395261 -0.34966283084603 0.04239414869549473
Ni 0.7697882835576019 8.406910859777222 1.9756593507053255 0.619380551325985 -0.7168233042561913 -1.6640953561893854
Ni 1.0431079320944527 4.64208083446716 10.283652940402765 0.5656113280243291 0.7878520859692432 0.17140310646775644
Ni 6.406603918655151 2.6575325552953353 0.19448349608764018 0.4911560371282315 0.7197494767640507 -0.49557087836647556
Ni 1.9637509433946954 7.248211465824306 13.112013302963382 -1.7372974914046724 -0.875356496739815 1.2078515575573068
Ni 2.537712705419488 1.345940611357039 6.5364796948357755 -1.3286928919171117 -0.4387147886093799 0.18545238547197093
Ni 3.9743960138103693 7.928572136903252 10.073428478261867 -0.717290473700597 -0.3842379977177382 0.17431205258443527
Ni 0.1477039267155906 2.3196526863644387 4.729904639860808 2.087594613400592 -1.3651033122253458 -0.7768264242827008
Ni 8.648292208337839 6.917028096859265 6.605795454704877 -1.2193060792511516 -0.552190683743049 0.7614625402321208
P 1.9790346102152367 1.4980880709428797 3.2436551240036025 -1.0148722675806714 0.650280583338951 -0.2719502093548994
P 1.7678759909859163 5.104772658950814 0.030882134334888 -1.5791407084238611 -0.24010426848889613 -0.44097658806036316
P 7.7058087347011135 4.13623896222021 12.447889083053386 0.5740358046425985 -2.2301957080349912 2.4662872558200686
P 6.238418388219236 8.204553620892456 6.25437636185136 -0.4033695763408666 -0.3248128616818858 0.7227386412993617
P 5.130189555205085 0.18203676096334306 10.939025142207175 0.8557119830360101 -0.03221515127996387 0.3188363323834767
P 1.7578824660021009 1.7618500723796455 13.105333567531515 -1.0195020530431989 1.1710603568708862 -0.3326590971991819
P 8.761471440027796 6.488964348694181 10.207535436548872 1.2809966142824132 0.2730696676713233 -1.6402316621979105
P 0.42731586367654745 1.0069524204568283 9.797582973270579 -0.6680296797922559 -0.8445132861067134 -0.48798175316530795
Ni 6.772406050308767 5.291566822115213 0.27965198556993204 -1.0687476774428886 0.6932360038545545 0.9868683261685778
Ni 0.24549238484007235 0.4662058570804796 0.10281874968436866 -0.06361114909274206 0.07667003915922925 -1.2241837190584273
Ni 4.901754152336456 6.8519071959395665 5.128924764251868 2.0168296268718877 -0.6670236071252447 0.7383807187119928
Ni 1.493803801145531 4.239117319136541 3.5986860425688842 -0.021853605539981717 -0.18012840215589623 0.6287229117728333
Ni 7.226287180817875 1.4797309062242403 9.529847777278272 -0.6544324007237955 -0.7445688498005757 0.190587135595375
Ni 1.707654059443186 6.088794922361833 6.193703650616909 -0.3078052713802957 -0.09309938835984612 0.9594953334722637
Ni 7.240071353209344 2.2775457651604976 5.056350165247782 -1.1962661667125527 0.3033037839655164 1.853128259923763
Ni 6.006676646702654 3.4804942152160296 9.072677072655202 -0.7632432862816275 -0.09239002099764733 0.1866294364992076
Ni 7.367379361600556 1.0346418424296921 3.0399604478516626 -1.435220637867722 -0.4700776191913776 0.2553781639288311
Ni 5.070898986661778 0.742092342043742 0.9964298812893404 1.2533348867010867 -1.652772989198031 0.09511256213513297
Ni 3.635929386189836 4.24883143522053 9.096327173299565 -0.7046511876700317 0.9257043530647477 0.909639586292401
Ni 7.917488917210111 3.560749764876362 7.451748741629344 0.20192390076443292 -1.2867808250643582 -1.1086974783629486
Ni 7.34344333251537 4.670431524169614 10.60374657013367 -0.1149769051592278 1.5436790251821415 -2.8395299308685678
Ni 9.24489540487862 1.492732733696194 7.109422545739199 -0.20836374285250567 -0.7567833895888966 0.22939922336656624
Ni 1.7302861803291794 3.3066646250036076 1.3020044932222297 0.7613810362619081 -0.9341792233049782 0.24001350854730275
Ni 4.791657732174591 1.8133078780977998 6.1469743748468275 1.7496683542651994 -2.178672600455035 -0.596164775331154
Ni 8.22534164303959 8.95071508788068 10.786407344306626 0.9003314215175978 -0.1707042806285189 -0.06869010627754622
Ni 8.644054506690463 6.654793530741554 1.492847291345123 -0.27311671885917477 -0.9196753732618482 -0.595916920986406
Ni 2.641699384305134 0.5719285965970511 1.3062980766495726 -1.1081768299727883 1.2583631931536134 -0.0831240223146891
Ni 1.7373459118648105 6.196302153385301 2.3484653321146074 0.7233202248344446 0.534187562297409 -0.522076637966488
Ni 3.3224419142138437 8.385694410650352 5.809937389430409 -0.23501759799460814 -0.5567731609074089 2.5872656299783703
Ni 0.2856434437452241 5.045724244787357 8.096993302178022 0.5426256657624332 0.44698834147208183 -0.171794171258588
Ni 4.922272079213759 7.063168265098823 8.06839393855472 -0.915923362418584 -2.217294426592291 -1.5665315043002828
Ni 8.901259712611285 2.9962227100357306 9.900555397849852 0.0024114376549700407 -0.22843171724697434 -0.4809963229864104
P 4.806680617355294 4.694451375924749 2.476150542520587 -0.2180424035928503 0.48539342361284143 -0.6288465818348912
P 8.796378925246193 4.71749329653049 2.820712940972348 0.03937104559845478 0.5153058949015578 -1.9854161455576127
P 4.391087819752491 3.5609267238462525 13.383524244555352 -0.12728888975736144 -1.9677812060846689 0.5903972767197573
P 3.5659933385631173 8.030286290070304 1.1858216158591317 0.2772875624074128 -0.495859613251488 0.1340660605801949
P 7.146394862727317 5.3045034541772065 6.014245833798969 -1.862092925316219 0.03266895098793083 -0.6465717670287962
P 5.024237700390654 5.70826794168733 9.915113532893843 0.5883437366248383 0.34802092436723286 -0.809098396942529
P 2.5663986858017354 7.2818802382534695 7.938377526561183 -0.3969626443732583 1.1217095743519006 0.10099935993321316
P 7.899075870711506 7.682263878075685 3.231101282134371 0.1803261199889991 2.3084593169335856 0.8211653554093923
Ni 0.4188395290187932 9.158362468602173 3.9472831055341486 1.774820428050795 1.7280268647360242 0.4285579026810361
Ni -0.08852884718421224 5.818131521099338 12.281027019439652 2.045543964087445 0.21172726000809988 0.7156017731442644
Ni 2.4856495137517083 0.4595829347915783 8.84011107488413 0.402034659579527 -0.4422472272426706 -0.4140208854071256
Ni 3.5379686259104606 5.022486737951739 5.362389527317383 -0.25796006572339447 -0.6518908652488643 -0.5080726103779121
Ni 6.738672082469644 7.287161066460201 9.644734197346173 -0.6877654676582865 -0.0800636382218105 0.14892652263179512
Ni 1.9881526539795937 6.769854115690347 10.734103860984996 -0.4335360726219179 -1.2569359737887835 -0.8405183060147072
Ni 0.6176892548477313 3.6245108758169025 12.432881099680674 2.1235512340008587 -1.1409486250871705 -0.6654868587657442
Ni 6.806717463207533 3.58125837812367 2.4717749991492948 1.0518814978151692 -0.7685184186376378 -1.0043626262985992
Ni 7.655366114652331 8.77366298169025 8.061074356742251 -0.21686818077909106 0.4229852936892651 -1.253139739971145
Ni 8.25898247457877 1.9910119383878242 12.036479036680996 -0.8556284221832684 -0.8334662842639324 0.15410755261210235
Ni 3.1253096217558425 4.722345697757487 11.689695337475609 -3.4890124437862555 -0.3658052449338474 -0.11289174049542494
Ni 5.231885081112148 3.8563550672634213 6.777237961549777 0.6837658595805902 2.33095826936705 0.5428382959938716
Ni 8.945583277753855 4.022044544860881 0.7767455651632962 -1.7630902840980605 0.53976814170898 1.2172257996833553
Ni 8.031701961829429 9.032516700120055 5.253284077386905 -1.770409443467293 -0.02862511993586038 1.2452665078706555
Ni 5.747254796843201 8.782427107514827 3.7308157172081136 0.7802686171950304 -0.45719716368428354 0.6988448654008996
Ni 1.858488297199839 2.160678335992823 10.840702081721025 -0.44135042646001404 0.7807638116638941 1.5920923834885223
Ni 3.791876806813325 5.512439557428522 0.47228206928871924 1.0336822011983229 1.0203780278902492 0.8204963543668257
Ni 0.9523186669106394 8.554513267925877 6.31443716759519 0.5147273966902683 0.7418941311818901 0.4763382553891086
Ni 0.23379074011531414 6.894340094193306 4.502641823008454 0.5496656033283501 -0.5979030981784993 -1.6070906566695677
Ni 5.215493092322292 9.19856940928729 8.273275171167926 0.47307706813933365 2.5682183835389316 -0.2519513976354693
Ni 5.537418713073063 2.2960985161090157 11.482469864192856 3.87385567918816 0.9102116567457872 1.22842861037771
Ni 5.221090583948829 4.693203349505522 11.823064656267071 3.8304672849001964 1.4514453272567003 0.36666682160319436
Ni 4.0622421719160045 2.5871401397988993 1.8686382911675576 0.32128042304859505 1.3538002285077009 0.7801889129970306
Ni 6.0284612272591716 7.599530902836885 1.1720225416596715 -0.13084626809131658 0.5274057634888852 -0.5388625991755751
P 5.420495402125423 1.789604689762469 3.9506909627490394 0.3566991688675211 -0.010996351110503642 -0.934920472346377
P 6.913246763081606 1.5936552283137362 7.368924492816601 -0.24564988089747372 -0.07641421439468131 -0.3789659506855215
P 9.028688798192423 7.902326327579495 13.125398851991097 -0.5963642929364696 -1.681577057913917 -0.28080303175983895
P 3.745094443352277 2.5752838888162364 7.863254718390675 -0.07566705181601162 -1.0241508646691202 0.9302935150973268
P 0.9311180509547599 3.47688984040826 6.422697871285191 -0.09152227368071336 0.2871485143618926 0.43751999697033034
P 7.48006497090082 0.8730531561186944 0.861531264452825 -0.9658755259669948 0.6219123166089031 0.16133029561278667
P 2.719375058457063 6.960336476332463 4.369789410681673 -0.883506379540459 -1.0409427394154782 -0.6575223525030288
P 5.334362951938728 6.890139647065905 12.755142011111237 1.1321533953930436 -0.7631322146250599 0.4885769635471457
