# total energy = -340855.16381073877 ev
CRYSTAL
PRIMVEC
9.40783039775644 0.00000000000000 0.00000000000000

0.00000000000000 9.40783039775644 0.00000000000000

0.00000000000000 0.00000000000000 13.76931074517974

PRIMCOORD
 96 1
Ni 9.258772751505688 7.484465342760304 6.146221222439028 -0.5715791155719898 -0.5103464940137534 0.6337571317626312
Ni 2.31358306388726 5.765381898560521 2.5903379151683765 1.643566125887782 -0.8876484267332906 0.5393917322061678
Ni 5.29904515263875 7.5009854929719015 11.264714116071003 -0.7108717146584467 1.7667026840396671 1.167282634996009
Ni 9.14865409647907 6.101175589621178 0.05416746518981167 -1.12280409296766 -0.14498245038238255 -0.011415183815477115
Ni 5.3697449982197005 0.21917892913136103 13.122704176372283 -0.3940693819858632 -1.3954865525028932 -1.110765673745887
Ni 5.218062548412427 2.772666372557811 12.354500257438293 0.6354725717918411 -0.3841323253778094 -0.6204326467395831
Ni 6.301016723331163 6.655964757120072 0.8034955131758801 -0.7708156993122467 2.5491292281179647 -0.8544058626300769
Ni 5.255797356213518 0.08969143284299418 6.210551026044881 -2.257115672354287 -0.20181385754912984 -0.023191864735431025
Ni 1.3062113985357038 3.5779108014081413 2.205389250963886 -2.640135738504524 0.11958226514172308 1.1521275245221254
Ni 1.1089386025294583 3.880852348653939 6.653661720234082 1.7272331651901351 -0.44810702845755734 0.5608025937817761
Ni 2.65575526397039 9.178909679098943 13.167481686023256 -1.5189344712476098 1.7945266482304705 3.2743212160538255
Ni 8.005518030385176 1.5558669943017271 11.851549176318054 -0.08303891880005053 -0.6716942731280366 0.4147986441134147
Ni 3.2578187793128337 8.315788277525524 5.06450417722008 0.07056161226864621 -1.1083007571451622 0.006443441632498581
Ni 8.492138058685192 2.278802314836991 3.095753847857772 2.295318922896886 0.7878446297700754 1.0638510114722193
Ni 7.727695390351772 6.127677447904815 11.1537195920326 1.070438691992066 -1.4325132662388878 -1.0164743219604688
Ni 7.45485890043918 5.273559340040109 1.9736790917175782 2.1262020413601443 0.451763394263222 0.6082145074068365
Ni 1.8342070650080453 5.16261279593683 13.586151777573104 -0.7905342607870965 -1.3754360616099215 0.5473544386966702
Ni 0.6817798255946885 0.4955791052057708 8.199775616742892 1.7873141896424316 -1.9456609771468618 -0.04545170457489592
Ni 6.779292006051633 0.9182983269669343 2.7359617221873416 -1.3787517562467158 -1.4045262941076586 -0.18701921573845856
Ni 4.006540963020072 5.249926870033542 12.885638139269787 0.7999354994963385 -0.27426240242784383 -0.4059373370680428
Ni 5.407893750559122 5.268987134457628 10.826630025673404 -0.9614773968992989 -2.3731559857810227 -1.4165310318780184
Ni 4.791793752235071 5.0282031227744834 1.7437178481457212 1.2594492271289406 1.9507029104461437 -1.457107410638484
Ni 2.4105777954826815 7.319696600843504 11.863418095171669 0.28981320567824925 -1.2099176960577163 -0.865780937236238
Ni 6.127263503366484 5.620821176378635 4.014305245462913 -1.067041236274743 -2.3717652760810832 -1.1819656909294805
P 7.029596742116402 3.2699360648894493 4.4256494594673335 1.1324526718010173 3.3906865169201477 -3.5953704969282207
P 6.504630397038214 5.901268601098277 6.791712223767663 1.4161132276143096 -0.9369806973095154 -0.7598090637890978
P 4.593561357526329 7.074359199238712 9.346277804559858 -0.599844023954954 -0.16340697563615728 -0.7970309242550339
P 6.902299388749026 7.798470498576054 2.827555418340578 -0.5174357967603669 -0.5302468324821061 -1.0945350708196375
P 1.732696574812643 8.711472217018429 6.496691128949623 -0.6016918757969703 -0.2996451041670065 0.20480070809159567
P 8.888781596880591 4.043588999200748 0.7536895181672165 -0.00855637421044333 -0.6527956364513209 0.3962946717719562
P 6.163747069722162 1.5168433137335593 0.6901151633438198 0.535910972746419 1.7981390481720774 0.6276278789364417
P 7.255356448624194 0.4826997853654088 6.289972871205085 1.7151572078622075 -3.3767105143560294 -0.5759723595436791
Ni 7.9825158850165225 8.914615499204649 4.30325358574702 0.8562853390409768 0.6808481717131629 0.005806322269131936
Ni 4.57849942102931 7.451001689968364 2.4939114165301195 1.8113416629052803 -0.2647282376851634 -0.13085192451827143
Ni 0.7315613602442688 5.310071129887037 11.443316131832411 0.18488571433522352 -0.3246907342817246 -0.08794998294842271
Ni 6.870340988823745 3.8100302012775726 7.916293225930846 1.2074674347450107 1.0830764353607347 1.3993619762978997
Ni 2.8117370922780616 8.69534719568433 2.687989313326878 -2.556170194125146 0.19696449987662853 0.6238277884640611
Ni 6.455182840368425 7.452506942835023 5.215910977596145 -0.8771956068310828 1.0870745007765343 1.039240412012391
Ni 3.9324919298108028 2.0043947172448227 9.65995650866015 -1.1488246854011375 1.5730788185004971 2.6146548206246
Ni 8.448401055078294 4.7032942915058635 6.365855490562554 -2.6721308033538818 0.27946502967470577 -0.403612288479292
Ni 3.731032649269158 0.15014238796807083 11.409526027325015 1.1510782573220046 0.6952594620424865 -2.0229336828870967
Ni 1.849720577365063 9.366078465237731 10.10433349682343 -0.10547719319890866 -0.8659737699733344 -0.32843914558056336
Ni 2.194442299491099 4.695184741686731 4.846618824771005 3.279586835328139 -1.0645650068201087 -1.6473376771150727
Ni 3.0304691494646327 2.4024964691547988 13.017548151890436 -1.1005985034048982 0.3082688412802756 0.08901236277466605
Ni 5.2074317000416395 4.232818100200777 5.974820900861548 0.3311318619213781 0.12892488269888763 -0.6419782341208429
Ni 4.2125065943312805 0.6853980771729232 1.7227882478178518 1.6102019486050398 1.2579790703413174 -0.4348735604864188
Ni 2.633411666730902 7.889989872868999 8.312836100340787 2.5856630613779408 2.3149508381952 0.30418284413636004
Ni 8.726901058901696 1.744493994155093 0.6933853251966393 -0.17717960394021742 0.6333778940463414 0.004887409999288357
Ni 4.707386697737095 6.9926521920703095 7.062196756076098 -1.4030101145734482 -0.048162932858471896 0.19450601103380694
Ni 6.605783389677785 3.295544179283507 2.071978689391786 -1.3209096484272669 -1.604707758259688 -0.1962674738096039
Ni 1.674706708124556 3.1176797374267626 10.400800575176504 -1.6123125671901393 -1.4212785738653329 1.4771075079094949
Ni 7.2896385826623815 7.870129942859501 12.387215987712112 0.8467666009172643 1.7378968155515682 1.5579180515996587
Ni 5.3744018742759305 2.126978747573469 4.0768729624317315 -2.1859333957825062 -0.16449378094243286 0.8606934954110016
Ni 6.306454449311973 0.8419039216348003 8.18646071435424 1.0179539918297886 1.957171548889623 0.7545444729560489
Ni 3.7865388487272558 3.65204450509116 2.995954642015154 -0.20217021244728406 -1.477195696747927 3.4173370296281407
Ni 6.8347699820184795 8.086265438851083 7.570050257626441 1.2650413765047375 0.002392154381260396 -1.037739401986832
P 0.4524188016034124 5.599559479637058 5.151925500583542 -0.4333661227029569 1.605997423605389 -0.2539681709551819
P 4.223777175170399 7.589259165771109 13.263123571604767 0.5394326127464322 0.23303836278105028 0.1539064923448898
P 0.3826776139419168 9.168645736114403 1.6673394361252956 -0.8498051306332719 2.7443726315384285 0.6769897171990211
P 4.197642222273011 0.6292653162090781 8.307259138469812 -0.7782742124728209 -2.3990755338602616 -2.3456896620399537
P 4.776797670550967 0.04070109673145218 4.123770997058616 0.00427240212310877 0.43052916747479403 -2.310123077789254
P 3.414082842533004 4.675644677911397 7.1575771039720255 -2.5234212818288992 0.7043328850986644 -2.1182771300861134
P 1.3878149195695242 1.2246078775018838 11.642379237966942 -0.2542453358759686 1.1031924893843192 2.0790657499939744
P 1.2114933619011061 2.4956057667881537 4.367501541228248 -2.2698135795369296 2.204851829953564 0.9165260289995893
Ni 7.502631863294811 9.18254110163976 0.7755796579806236 -0.17326432804621125 -1.6821725254060709 -0.03596999033670579
Ni 0.8429773550853373 7.396408050060678 2.4645825052062857 -1.70899195959176 -1.1577713530714644 0.9604114175286298
Ni 4.696944005974641 3.8801091300510255 8.427617276121882 0.4602133248027881 -0.3916366041746545 2.745699063659336
Ni 9.319867202231261 0.4861675116569774 5.985712346134877 -0.1485370005028603 -2.0912057277906175 -2.3542637768622097
Ni 1.765840361370419 1.387542092487442 1.6546717924693075 0.787100038294567 -0.2648609066082858 -1.5070888847629333
Ni 7.078526868113277 8.369168307309465 9.871177354042088 1.381171678542118 -0.30631917375307244 0.3982919047076431
Ni 2.8562455379791225 1.5593290758950458 3.7673798020837954 3.0118714899901935 -1.1207209851863862 0.20700080106670804
Ni 2.558704085392469 7.1594248018658515 0.7695323045888158 0.14231338819065167 0.6743047141676903 -0.2036480825443912
Ni 8.299032931553512 6.462351607145894 3.9436684323457554 1.31279781795341 0.1947906321537613 -0.06659774252489176
Ni 8.691029001523098 3.902424503799264 10.104292102369598 -0.07009032905918251 -0.49225852616379084 -0.30058355682087584
Ni 3.795043527423886 2.2146126879043466 6.689530014480513 2.600559004653167 1.0950256373028109 0.5333367842613396
Ni 5.8159678027107224 0.719986906482693 10.40790536870714 0.048557854304045404 1.5140912842226957 1.6432578506187439
Ni 1.4559370196163182 6.595679379810329 9.56028054539599 -1.074609535540304 0.19713007892021536 1.2814784390148384
Ni 0.4096555084446356 3.137549075266678 12.733156023877102 0.5365293230567083 -0.30840922351288175 -0.7697515197137904
Ni 8.88173513189854 2.1491247803742084 7.251180312702253 -0.005518615825384044 2.3645003669885534 1.521232780363483
Ni 7.418657568996 3.7819572353143585 12.390396775175974 0.5272041890010404 0.591094045676466 -0.24346315765880006
Ni 0.1954307428106702 8.371567304065705 13.609311033709714 -0.04811870988409778 1.630422903637605 -0.17617635948668367
Ni 8.489654391455202 1.1870141871570434 9.536776021883089 -1.5869460634008927 0.6074043528007151 0.9725434249054734
Ni 7.084133935041588 2.438773063241312 6.168072790147727 -2.7282926952574305 1.0769878059644937 0.7308748972532508
Ni 0.7084500840427836 0.5135762847927777 3.6377276687631377 -0.2672918846472816 -1.106053098761566 0.632535343540388
Ni 2.1257557296193075 6.466792103102542 6.645688583955991 -0.05733714315857222 -1.243044560518672 -0.900911462390784
Ni 1.8621483213454266 1.4931449889140767 6.3296005344860005 -0.7815006898299185 0.23278896577440553 -0.8928955340648428
Ni 9.010010899629243 5.792608159786238 8.469915822458079 -0.32149331039034956 -0.12215722495775092 -0.45699301809327747
Ni 6.631730185966842 6.243167974099325 8.898678634478884 -0.6470595052984921 -1.4704190401457256 0.8652883138705356
P 0.2599383544113963 7.354778400467105 11.915341792807116 -0.8639037748181831 -2.0474406668895258 -2.398241210884424
P 8.96294352405486 8.013580541052225 8.822961592936746 0.37111277318968994 -0.016734539145861503 -0.04125643554662572
P 6.709928072389843 3.0033557822039145 9.936829898604516 -0.42698335910506463 -1.1839791218150837 1.0494605470785023
P 0.7550357786998357 3.120878399768416 8.574672954930259 -0.6897806983161023 0.12673327436420753 -0.03959781689728019
P 6.2570727474551 5.57311406833592 12.774973830079007 0.45736197139692203 -0.05581839252120064 -0.18802734528799875
P 3.3863767819560384 4.050296782287803 10.680551820445316 3.3025244179609183 1.6664967665420267 1.0165074891912493
P 4.017858583011273 6.193306472891203 4.137333325387225 -1.2489069328367202 -0.8509395013480312 0.3814771471431495
P 2.9964222111868604 3.923996658944589 1.1687470028370792 1.1787968062831957 0.10245691831534613 -3.751327701154552
