# total energy = -381168.76037651714 ev
CRYSTAL
PRIMVEC
9.21824448215930 0.00000000000000 0.00000000000000
0.00000000000000 9.21824448215930 0.00000000000000
0.00000000000000 0.00000000000000 13.49183259407022
PRIMCOORD
 96 1
Ni 2.5620081781583743 7.797943237488209 5.626768333904268 -0.4769764031937399 1.0091356222072105 -0.49201607113568174
Ni 1.148123098721422 3.2321100048720077 0.20057885404755998 1.1083894602042266 -0.6451468616568115 1.8536447945488657
Ni 7.923154648659178 6.921592414710431 8.168724065421973 -0.4695672552138623 -0.13650012394298427 0.44724802289137167
Ni 3.7058171385872236 4.205307701371511 10.606415002098222 -0.41909752859908467 -1.694959906978726 0.7872404205271732
Ni 3.6801535466929454 7.219479976514883 0.7370345761335916 -0.14399051878275848 0.47978507628712863 -0.2894002865105467
Ni 5.709743593731414 0.9508065813015146 9.60089537590802 -0.31569444432038535 0.31191338001139834 -0.8010667848873043
Ni 1.2354567444133726 6.194217636689632 11.421038617964195 -1.1436236008161724 2.2805062833640855 -2.859843188504623
Ni 6.817481564547364 0.452671100416817 12.297656769824206 -0.7052276289987919 0.4359331120991847 -0.04318553424853853
Ni 2.501702424504507 4.10984356428202 3.5169297836774196 0.06979439508531851 -0.279315391470719 0.3408722291375936
Ni 5.922906272956732 3.730024247895548 9.508814334445397 0.5327906819498823 0.17105266510687314 0.4382375918626453
Ni 7.272632372657989 8.347249192009809 9.951278994867478 -0.20298859458352134 0.41727410223710076 0.9292727871422964
Ni 2.198837010824009 0.5928861258719557 4.193490834112432 0.37422817889022003 -0.3433659420937248 -0.2307202561708349
Ni 1.2503165540877894 6.205076728374783 4.22163505552494 -0.08998938197595469 0.008939211471158798 0.14191049632527816
Ni 6.8603279636582135 2.9015990767910287 5.3188854298976 1.137692837154034 1.9090322701802351 -1.88193361419123
Ni 4.826045830314362 2.141296730434611 11.62116301257196 0.22006329067762098 0.0546847931373897 0.011175042780213014
Ni 6.430352180498478 4.244254783179459 2.140843192819238 1.696919087587626 -0.49479440521176726 0.262823821573599
Ni 3.5591548731281852 2.23015138642202 5.088336220258562 0.919824754355519 -0.18036674341894746 -0.22373122644751145
Ni 3.3490065597611385 6.219263606221511 9.82870492336639 -0.27379831830723167 1.7419123644688645 0.18050224055554723
Ni 7.296203423115485 5.770510259596026 3.981979142426003 0.6732225368471051 -0.13677034688523543 -0.8152916702374347
Ni 0.45503650188236006 8.233735732747546 7.287397234416993 0.09421113336678613 0.3326246444168207 -0.7783886265634982
Ni 7.649059375173379 4.585256073176992 8.061950064505222 -0.9150931532078046 0.09401341553368324 0.8359723385152377
Ni 4.460689939101066 5.074099563893071 1.846411550770951 -2.3147196960210006 0.8721729568055109 1.1314211452127094
Ni 0.4604669695493569 4.079819742874095 11.796097633038093 0.5529157348345316 1.576139459703692 -1.5948372932235115
Ni 4.133368523518442 7.069277905277323 7.072095000709396 0.858037031624761 -1.4706869490951318 -0.3802093361743194
P 4.857268023470224 0.19135692253497527 0.6832267628268062 0.23904291710391734 -0.0753772884897347 -1.0798371024878306
Ni 8.789024327764615 4.610403443395236 6.13723229460197 0.7923191206016613 0.17990728728402564 -3.0255153060258735
P 5.831839238357747 5.828585198149888 8.099254455194075 -1.1085388412978971 0.44216546616214175 0.7523274107000721
Ni 7.1900829957135715 3.9873054439333715 11.615793385316781 -1.570311283057689 1.6475991583065757 0.7899462494941105
P 1.5142441042045547 8.119069992958421 2.5473659190474294 -1.2427396276837435 0.5349956600210012 0.47743225978423587
P 1.6490977988243083 3.354242522475201 9.605739563242949 1.9152792795312112 0.3388122612847714 1.000772852064812
P 7.174531817723037 1.9528389457052215 10.662594669641502 -3.1319371225262382 -1.5462015344936788 1.7960441133162617
Ni 8.679318003363106 2.892242558912906 9.890174019440177 1.9484547378419153 1.103485595144706 -2.3815832906127694
Ni 2.9382139428126064 0.9040396629260689 13.101877597093665 0.14812665243831907 -0.09499352005876542 -0.6361539141295818
Ni 8.424664006926529 6.908769837007506 5.814966164146797 -1.0419950919393925 0.4416957256145748 -1.1163357116344967
Ni 5.066936988138096 4.187064796070227 4.1443539051493365 0.1359619920513271 0.41298447372281133 0.21040468454193442
Ni 0.5684015474127632 2.1987356101376454 5.348661280536144 0.17355177737964303 -0.03154075092075859 1.0957231775904677
Ni 5.325941995844105 6.751285352840177 4.694145661141062 -0.4922384715591329 0.5097865077452253 -1.0381014133119413
Ni 3.84634005339914 2.5663223164509468 1.2976771273906744 -0.7295726335020596 1.2404084084474056 -1.861097394172169
Ni 1.1216298648478031 5.803871085409745 8.721160535678953 0.5003132781474674 1.234968468378757 -0.05972209845098102
Ni 6.7942792438584645 0.6361888280714424 1.4666300291857597 -0.18807002560047612 1.1195303073123946 -0.18883235768779738
Ni 0.6091987308346405 3.8266959749771905 7.834828198065283 0.5327156057375728 -2.1319471713740374 0.607903918144953
Ni 3.343567795674348 7.1538829506816635 3.0953499773486133 -2.0168532810209716 -2.1894995158672095 1.427517098575877
Ni 6.59173598196871 5.375812697046707 6.069637675247383 -0.8343725981282855 -0.13955048073353385 0.9469169825866208
Ni 3.6944418252260385 4.726092408292215 8.126076780386164 0.1871979074081679 1.1195657885360204 -0.5715078960144222
Ni 4.986083768129219 8.41036651014922 2.8167303896021423 3.6255153959427173 1.3806127207148546 -0.4782226168960151
Ni 0.9236865068212826 0.3614040299183692 9.230059238508966 -0.9322226137992397 0.4649143298228832 0.754384550339417
Ni 5.7437957878612504 7.606904344378647 13.093769229482241 0.6668217755270838 -1.0460579491548567 1.0933420789528008
Ni 2.6413127331391477 8.410320418928146 10.961398524920915 -1.4478920626878033 -0.46933714148092714 0.33578273042982815
Ni 3.090444027777444 1.1058113577750368 9.733520099076612 0.7708509234255564 0.5258083370947784 0.1581143597786503
Ni 7.224208935797126 2.3473521433702422 7.601649023351733 0.20056738673653846 2.534143810452726 0.9984030662810546
Ni 5.611716784750181 1.1032947771043695 6.795390964110782 -1.5560858834869264 0.17322704705037262 0.49854718738598003
Ni 7.7189889757876005 6.840010953408577 11.754340830393446 0.8624814405493598 0.15752840536819324 0.7422558853966831
Ni 2.0678734152629428 0.8500825140630022 6.877987354100695 0.26606289733618693 0.29147619520296897 -0.382973786293334
Ni 4.967886954049009 8.464800242238198 11.231167676396662 -0.28446711087498755 1.1301574480089376 0.02478337759226699
Ni 3.4754624339011193 5.553936830011195 5.246744372496225 -1.0019013092423004 -0.7108501173918919 0.7128409225696756
Ni 4.9138772611939165 2.0000824473065775 3.112133634590679 -0.5124342297807175 -1.1138260578387658 0.9189773187535594
P 6.940038121384442 2.1201316417172036 3.2743461562158305 1.8596961429492682 0.936100094476775 -0.4244978736790495
Ni 8.911110754146735 3.835490179958204 3.777497283777855 -0.11873971463576971 -0.5427174541452912 0.30076224849058525
P 0.030228466429495917 1.6905338065702782 7.647035970568209 1.99803871941763 0.570107673232786 -0.9390270383155828
Ni 9.038414706754486 5.7131266893582815 2.466886959753677 0.18591569826163465 0.35427101904200275 -1.4920247913409594
P 7.027298021122675 8.358652160103638 4.404260457139563 -0.2828701987015128 -1.4459979309888837 -0.3844465141841185
P 7.01765573767389 5.663016313806092 0.037192849933851906 0.31801332226154905 -0.4345619427832709 -0.19358787009491177
P 2.9307471649985386 3.0408406556570737 12.409423371807744 0.7525418407037233 0.0636736268995613 0.3760973708884749
Ni 2.4056022285641876 7.845325012752787 8.37500071621876 0.9494983701605518 1.0479729067893824 0.5085698617293049
Ni -0.0915454614737378 9.259634131423626 11.79800027864405 0.05013136943875238 -1.7858013525423309 -2.992621640621646
Ni 4.9075443274182815 4.882240247048385 13.137955039477514 0.6084222525422682 -0.05505348933071809 -1.6012218565936165
Ni 5.251025325109623 3.57465074165343 6.567945537298899 -1.9090685227348088 0.7980925327503288 0.34434836061165214
Ni 4.752926717201785 9.049061778822693 5.105605678970753 -0.8890334800062754 0.3809850379980793 -0.632709407224407
Ni 2.421826338382409 5.466289764015938 13.04542783499489 3.1095911507308704 -2.0915553978205526 0.39339369607507735
Ni 0.21796722811012348 8.73431404834919 4.7015801751003785 0.11907884314274331 -1.3386404900481268 0.4396064471857139
Ni 2.416230864143966 3.4893912009098313 6.486265440783946 0.18791550230048285 0.8397410615290505 -0.051081649167163644
Ni 1.4524542132320888 7.9287132499207615 13.197588783128115 0.648120856683471 -0.18114193102207513 0.2717596906106481
Ni 1.3683561712595673 1.9054663886848568 11.280385725908848 0.45822560494879794 -0.4217097694109511 0.12303319980480101
Ni 7.817098748966767 9.478843978853918 7.887527056593016 -1.472675183169754 -2.698888273953384 0.8811497063828244
Ni 8.337256615280857 2.92879289722498 1.659212056376895 0.5342284428376735 -0.7420211436780575 -0.7732531051091457
Ni 4.307113990480853 2.6091318425849366 8.364625582354893 -0.9212272911300006 -1.729946193245924 -0.06410634356160573
Ni 0.3816814017178819 5.884272611452092 13.612988678535253 -3.1455601126263115 -0.32353425207977826 0.9756922549471003
Ni 8.141571727086989 8.108220119517485 0.1980078857360247 -0.3033459500573614 -0.9916927441404148 -1.1483431177790289
Ni 0.41853317661578254 0.6289230079812593 0.2687855648180172 0.623309711177062 2.5340070277645457 3.1085740223202656
Ni 8.452337176059654 5.364750803988829 10.155099905405418 -0.021366895711550298 0.24230898944969884 -0.4902129564886719
Ni 8.310956964535752 8.380250506299145 2.311460909519534 1.4633449069077638 -1.087931706570507 2.7905092779954908
Ni 6.248420912673236 7.925800284748854 6.637535906526012 1.14435430833461 0.30082189808392706 0.10238441320619786
Ni 4.937623458291497 7.979100172799399 9.058537212051188 0.40070925589988404 -0.7620718916813456 -0.7750546770942588
Ni 8.443091277112112 2.3132999492404065 12.370499335610335 0.013883957070943831 -1.782800360932478 2.0399466725053257
Ni 7.523774218048691 0.8906086811049614 5.571330735020288 1.653214447610824 -2.171158037245545 -0.751401556451693
Ni 3.1935685258095163 0.30943064721034863 1.9464129076630157 -2.229359328176625 0.25652333327686794 0.3536349281199006
Ni 6.5031302185751025 6.760208613240199 1.8338904096538542 0.03864033808001732 -0.3327228605575818 0.2328409020582635
Ni 1.5886629897514322 2.19693805251574 2.4632577370062716 0.4138388513033066 0.5426932857755751 -0.6541086988357896
P 3.9741786641713555 0.347678064282385 7.865347039187548 -0.5222455594441845 -0.6088932786414158 0.2439087298366509
Ni 6.266350397671214 2.8345640048602854 13.690971337295611 0.046005777306153024 -0.4404353708449124 -0.06927168981262909
P 3.8097528421102065 6.683448293662737 11.90320902169311 0.568724162621698 0.17888913043215643 0.22026949315115613
Ni 5.80342860968743 5.930179467642287 10.774684831996984 -0.9367313003028707 0.202488000798019 -0.6511493590971495
P 0.13654339878434446 7.612490600372875 9.859048617848574 0.371224873287522 -0.5537220327859109 0.27697620181458105
P 2.189120981421506 5.035263101015704 1.619694365252046 -0.7763659397065145 -0.1255891334574353 0.6167572547705248
P 1.1784695586768688 6.3634922552078175 6.447072231855461 0.5528110909358673 -1.3833074939381984 0.5094046989257743
Ni 8.992351140412637 1.1912368269145033 3.3079272980662853 -1.1818445919705838 1.0354148676187134 -0.5137349508700121
