# total energy = -340871.9433133133 ev
CRYSTAL
PRIMVEC
9.26346964045941 0.00000000000000 0.00000000000000

0.00000000000000 9.26346964045941 0.00000000000000

0.00000000000000 0.00000000000000 13.55802418467131

PRIMCOORD
 96 1
Ni 8.956043043055391 0.6835921969775404 9.225286719599573 -0.18322555302398122 0.04933895544444406 0.3128631455191774
Ni 2.0142674036944586 2.205020774142101 12.22166441412775 -0.7985255065226893 -0.6331626927117419 0.723353134954909
Ni 4.11314734068674 5.373877792212226 3.1278226258269273 -0.28656410261333226 0.7814171289771769 -0.36402629865655367
Ni 8.774164076691317 8.643882637201436 6.695969467797792 0.1749759114206793 0.5530797712162216 0.5535759941263498
Ni 5.663129637211625 3.441286401883971 13.350519183008048 0.7720971371278316 -1.102484150463385 0.18411721160031516
Ni 2.196424274153008 5.09306496821505 4.987115884890418 -0.371465014322786 -0.3910084836723524 0.3816537819303298
Ni 4.822099212632105 6.499231895849122 5.5714259177697825 0.777810642572841 -0.6132207023721762 -0.6258095947807802
Ni 4.930778240511464 7.166368465045815 13.360185613760871 -0.7691521955668947 -0.15394942976768328 -1.35955358605171
Ni 2.0745540652559025 8.172473921743487 6.053102263171601 -0.1829365610286527 -0.7641300597619549 -0.7201657383658628
Ni 1.6585501627664538 6.004340284408035 9.498698031213898 -0.03444018395574068 1.4808186382124948 0.4206687297409465
Ni -0.14253052562735832 4.521481090168678 10.167569648307097 0.3398103635319825 -0.4155792310331811 0.6026300713405235
Ni 8.006250219368171 8.398975022210431 12.33970047286808 -1.2394604427118396 -0.5673321673701778 1.0899978450709165
Ni 7.753839193826341 4.378369744983868 1.3394310383868437 2.019246463843497 -1.709137484030689 -0.6793371343852752
Ni 0.7751384374325145 6.524863916829533 12.42860013999667 0.5902085577477191 0.9681003015324552 -0.5738185464254698
Ni 9.127222701782177 1.5027571274037668 2.6480721557998206 -0.09197530205773193 0.24833642659070135 -1.084060910761191
Ni 7.577397884244162 2.703275025126335 9.539493425935847 -0.5693548542271615 -0.4372351187400599 -0.32458043395610553
Ni 4.006617437804655 5.614320414751999 9.830475687096843 -0.17767428418844886 -0.24724550751936772 1.8288393054694114
Ni 3.628603025029939 2.8393553967209284 3.626595631120848 -0.6533504805135263 -0.7135770294047518 -1.1662953313820754
Ni 8.061423445591275 2.6118538415138746 12.411490511246827 0.7723128526830635 0.13602678385099157 1.03353230588402
Ni 9.378058937455316 4.496997739445431 3.203815500461117 0.32916316823078146 -0.7362140500779772 1.0960407088308866
Ni 6.220086496418795 3.0657453355500826 3.051097937077287 0.9311239814184222 -0.24982509532108588 -0.008243213845398707
Ni 0.42265322112325415 2.2071050548506634 6.528107057612056 0.8201767662438777 0.5129785323199618 0.746075002032457
Ni 4.3312557375005385 5.195935800519881 0.5956800157313178 -0.8484758702988872 -0.27648794932425286 1.253143853736203
Ni 0.890711339548816 8.495852389544417 1.6603426441758173 0.7796194136468058 -0.88691129145695 -2.53806320011179
P 2.5739291960878523 6.629309539003056 0.3593272151152351 -0.8107387607594295 0.35796903671888025 -0.15660795043645287
P 7.873828918350832 7.905102392449086 0.9795443096947324 0.14416201136361623 0.548099544392811 -0.4494805117663162
P 2.8738062409660134 3.5159314416599567 6.425228814531373 0.8555227498433395 -1.0891483525864274 -1.0650316620438818
P 0.12536994779352684 1.0583606899287883 11.640566952580517 0.37194658194489494 -0.9310345070284094 -1.4754892555797816
P 8.694683505671467 4.518850264740982 5.4886271718619 0.661647430414996 0.21329820403964556 -0.5451980544752998
P 6.613469005617979 8.75697107671313 7.7307583324332105 0.8797808510597559 0.5800647844454978 0.44725059399453293
P 3.076287164200501 7.007323951777771 8.063133482119278 -0.08268487789474148 -0.35393009076281623 -0.6816372432733616
P 5.683546324685722 8.870819120749724 12.043173098675325 0.20075096350225427 0.7666492266393828 0.45287179683605233
Ni 5.761350207668908 1.32568590187411 9.058835135866788 0.30449369050855946 -1.8298098969127972 -1.548296983570127
Ni 6.745232600278395 3.9786880763099175 11.174333737708674 -0.6729178611224926 2.56569947377182 -0.1671687566714347
Ni 4.7700940930860165 1.9134160078094795 6.733090970390782 1.4450682200857627 0.8949377613058522 -0.09674007043622695
Ni 7.024025987855718 5.604964310238007 12.939615746999198 -0.8754120325680987 1.232589169513303 0.9108657453900184
Ni 4.001189044492576 9.188370866036495 10.504038325304782 1.7833042971520903 -0.6832680940085651 0.27377646393036076
Ni 9.090520834371846 6.930270409849668 5.093655051242319 -0.5430295860690713 -1.7417781528838454 -0.26214273634617435
Ni 0.7022358563288869 5.547280683694812 1.0190224390088698 0.3386122294588233 -0.5543748358785614 -0.028561870798092748
Ni 4.18867241009523 1.1016210939687305 13.087588561143358 0.17658362222743137 -1.3658450754873768 -0.4991470257535081
Ni 6.804555860978993 6.484678984768447 7.100974852574902 0.8353899836492064 1.028327621754629 -0.9499128319901513
Ni 6.848770402409965 3.448623069978111 5.917847266737597 -1.5061725435962512 0.8173310692649665 0.9977716033446429
Ni 4.59091079643835 8.51505556247264 6.516650924490814 -0.6923011507451109 1.1930805698957194 1.082321559472581
Ni 6.784787616392003 0.3885692102828765 2.8704371169939944 2.001714111386688 0.7492320596042 0.16555178989330196
Ni 5.669030467484311 6.9580793462368 11.038496069023257 0.1117871945773365 0.040754299099226586 -0.00033167230780588037
Ni 6.84293441642599 5.363928825630021 4.47797149879069 -0.049703023652082144 0.7306581532567544 -0.8837344363908651
Ni 4.50693744255782 4.2068936552229745 5.095336371013893 1.3314938517010166 -0.23068580338847366 2.4401761605553136
Ni 2.7615051963886645 1.171291650453614 5.969218764948284 -0.984237316303634 0.9045552297909584 -0.9262923643577339
Ni 9.068510830089426 8.562669797326024 3.4670990605257908 -0.6622143586620596 1.382417378023761 2.3889479585079565
Ni 4.660849993547893 1.1367666984500027 2.3064233464811217 -1.2281352475070075 0.43924983517724353 -1.0623335463864285
Ni 8.339651761509833 6.566234573027045 2.6237083038371964 -0.33478771350641057 -0.77057041607066 -0.7551121725340608
Ni 6.528485933527524 5.475090463420022 9.161035292956953 0.9531431660019907 -0.49206157966163644 1.0018856255130164
Ni 0.8973791851222528 2.87488080346465 1.096906914179453 0.4309580274820965 0.8984586299749171 -0.38921205389356195
Ni 5.175676592032652 7.502586102011491 8.816430510420021 -0.3006774020862628 0.7662229377352416 -0.6553194313144391
Ni 1.3471123075581328 2.6252488188675698 4.288159296876336 0.11738654304198494 0.9308838403831582 -0.21829282904075953
Ni 1.8004572568752064 8.813348554012293 12.874673265508315 0.258385069075955 0.17214975482579384 -0.26062270015722216
P 0.3089691405024012 2.6596440822937595 8.958153261479438 1.5423554212747115 0.39456689044757215 -0.8923882554111211
P 4.9367161246634135 5.195296621102589 12.011121493112542 -0.4122383395854061 0.008041125136921635 -0.16086544016122617
P 2.29797969374399 4.28447521493058 2.4167040282916377 -1.2210606000484132 -0.714973395531646 -0.15612149771833758
P 8.793024501236355 6.62920764083508 8.966328273591913 -0.5452317359267126 -0.337124074949071 -0.31893840517897976
P 2.4219063929402096 7.827622730909455 10.989320939505902 -0.12995178130150523 -0.7961271814938418 -0.5467756833750648
P 5.406596367601749 1.641681384231821 4.401545093769119 0.050655874483654696 -0.8161866712478782 1.3244392588470804
P 4.008757299332112 2.8535377690089696 11.72310817402752 -0.37936447167552084 0.17012886774102312 -0.36020306825572157
P 2.620830143765417 0.6097317730949555 1.1363554003901797 0.10251811057058473 1.6230183836434178 -0.8920406422637153
Ni 4.271608255356386 2.951536016190672 9.40810314910901 -1.3250002735568729 0.6951123949416609 0.48140975637474503
Ni 8.080209762377786 1.9694044193763771 4.614839265319629 -0.0001486097627223247 -0.3638586627304379 0.4734712182539588
Ni 2.3075581215335617 3.870722335606378 10.405390708888989 -0.4852517558286546 -0.5778693194560757 -0.3828801981382632
Ni 2.293690707219259 1.1922826730562923 9.874620752504198 -1.6022929781706081 1.2056447797139753 -0.029929697679896842
Ni 6.663084149951583 -0.025707981432901008 5.560294932439077 -0.23453140238680897 0.7395392577964683 -0.776108829390386
Ni 1.5313997760743236 6.505206833880334 3.193172699989706 0.29019655715959697 0.6971163127455672 -0.8425885582801746
Ni 2.4125688153658493 4.801274932486113 12.657079917616278 0.5756016064678215 -0.9122171172115903 0.14385296476362966
Ni 8.591395817224923 4.561147267920077 7.732887077796889 -2.103562192473442 -0.1687877803320964 -0.5556930404693526
Ni 8.906298210144366 0.7348766185719576 0.10366934340295537 0.11541450691727864 0.741864306385219 2.4275456162754967
Ni 0.7286071022006014 6.468940349551345 7.163314299047535 0.6054282029109509 -0.24599286605918927 0.7183628808291692
Ni 1.5326966618485403 8.718805581071896 8.378587977839745 0.3828452311352697 -1.2842323476108914 -0.07059683638195584
Ni 3.518497422798943 2.8653950103732364 0.8191816046718947 -1.5278058055953108 0.6089920090028091 1.0021535344624224
Ni 5.961830221423175 7.134529919288795 2.1952885727535865 0.2727958451846463 -2.4339024117314594 0.69021984273605
Ni 1.4990795298868806 4.0482104172777476 7.880872860798792 1.664284075161424 0.64320439321846 1.0138137444091702
Ni 4.637552366961072 5.3514416683182775 7.661789020613386 -0.4247691250625652 -1.028645410105364 -1.4187632636426468
Ni 5.7323462836755334 8.85911009490251 0.8591682984789214 1.5633873022443463 2.956572974528205 -1.1704360930233262
Ni 5.941978605607844 1.8288683188003676 11.35967168370198 -0.6279245842412541 -1.174016868396049 0.31320355957773155
Ni 0.33634825189007855 8.122414130858722 10.691220628138419 0.8439638413611465 1.2236332458715957 -1.5208630557288905
Ni 7.024794855850433 8.868123451033316 10.181493569787275 -0.37289660456299 -0.1359499078664691 -0.4486919544267498
Ni 8.041090129345521 6.489282929266917 10.995110608140799 -0.7086711074627021 -0.9930304891152317 -0.600797903227791
Ni 4.93274209611242 8.552026070507631 3.769279930347149 -1.2560417441092886 -0.4962211103559648 1.9827481118071466
Ni 7.5837989418869025 1.5866841639352176 7.086711888099463 -1.1967325648260099 -0.4090563423129987 1.6067520423832264
Ni 2.3051033020323657 0.5390088864389935 3.211001173997259 0.14996550541927078 -0.08906969837516272 1.349647639791908
Ni 3.5664544060355126 7.989159117557959 1.7707724678503682 -0.2863383597557714 -0.6282398014888277 0.39112906841061673
P 5.96882414113413 4.892770223857099 2.0502448677651923 -1.5914881742456204 1.7787359610551172 0.1732293610432178
P 5.974104318929155 3.5592288995791623 8.269852442794509 0.6421633535484553 -0.6131368844091183 -1.4387870150627415
P 3.2181386774903586 7.108481042166672 4.377913055921947 -0.28512428484301217 1.0780992938611174 -0.2687481574778339
P 0.7655414827033111 0.6473164491787365 4.968094275970586 -0.2749974808216554 -0.7694453013272813 0.1943409462108524
P 7.08527605027801 7.677285879268294 4.148904334175857 -0.20852006592471184 -0.9044909522119261 -0.010602458106194644
P 7.336556932502308 2.1275225856628386 1.1260414530972307 0.5956595535599613 -0.511375706609216 0.22926629733312773
P 3.3554696175100895 0.6247775007698322 7.988035458669298 0.7318354613943073 0.3372444025770192 0.5045419715168343
P 8.900832762953025 4.707593462238589 12.509351659075255 0.5118104801537895 -0.5002831962404803 -0.024597229723389895
