# total energy = -381169.27738927305 ev
CRYSTAL
PRIMVEC
9.24261987195277 0.00000000000000 0.00000000000000
0.00000000000000 9.24261987195277 0.00000000000000
0.00000000000000 0.00000000000000 13.52750844093749
PRIMCOORD
 96 1
Ni 2.9776023640491163 2.6237671538961105 12.270910443680462 0.10357431974924097 -0.12171602365527426 0.4478262639923449
Ni 6.040874570140606 4.41112343762018 -0.08312350031374388 0.0992540951073323 -0.1429350809350506 -0.5723951837153819
Ni 5.724351815735261 1.8144926151769134 12.042377428863357 -0.2396216724255228 -0.2181871567008307 0.5959048368015479
Ni 7.5828023302274765 8.10053691560299 2.733922544060036 -2.344776406197065 0.9060248723579494 1.9593752414091612
Ni 2.400650314225929 0.9435790456474246 8.117546108645453 0.4401782605287839 -0.5134097063201094 -1.4076157316662596
Ni 9.070365001211613 3.8447357021194044 1.4574807166314205 -0.10587725685080476 0.16363477537624724 1.2486493082999592
Ni 4.038766017579062 7.571988465173039 9.342137763792968 -0.7331184418717891 1.6591462397142263 0.2650066881575307
Ni 0.9436807144641757 7.067738861946607 6.028303683080316 1.8082882207909374 1.6583463695207503 -1.169198106851167
Ni 3.201920744280902 6.338939812995771 5.093620658898614 0.6347421213837198 -0.9771027621413818 0.08197088254685238
Ni 4.618509338553052 3.7776435256833714 11.417541214874335 0.3093412484088479 0.09998171730197619 0.004578106288985664
Ni 1.52581787394167 8.784148796817805 9.510460656806119 -0.8539826590497293 -1.067577054173555 0.7366768486470088
Ni 0.5334766152564681 2.68860413112421 7.2672888698938785 0.5961046115171797 0.13066500531844594 0.9369729840000315
Ni 2.253008707063896 2.3097953625292478 9.943299931670508 -0.5859492682507328 0.15212986006044124 0.2724847417021307
Ni 8.913221980993201 9.078147287002926 7.317489234557699 -0.23382897700314567 0.17693252092641787 0.04459552722218771
Ni 7.602784874028924 3.4097687761990065 6.235897542956543 -0.43597733507355885 -0.14148729274493052 -0.0603335067827348
Ni 8.442402933238478 5.303932773229978 13.285311987076716 -0.9518699557165221 0.48574592185625376 1.8755685912051505
Ni 3.7466160513348705 5.709748476601919 13.122386783971079 -0.9968712030175606 0.010020617460795647 0.24392441356593475
Ni 7.53463903894656 6.523062040132047 5.162611269421983 0.610842946168619 0.032898550500233666 -0.3694718951521572
Ni 6.997365555515423 9.30232702793914 13.0265842579465 -0.31089933692458716 -0.9030945860850318 -0.08647057018941881
Ni 4.814683941784187 0.5896661974888998 10.16423181604251 -1.6008559886137657 -1.4232706645946973 2.0046073737740833
Ni 0.41751870844196526 2.468833119787111 11.801060022470786 1.355532380707459 -0.45043747636294684 -0.7471268403357391
Ni 5.495550764946723 2.7910585705502235 7.049455111646874 0.9231054819893199 -1.1943424673272787 0.026994012090340608
Ni -0.13160011640264757 8.592595503438993 1.2070214350889812 1.6515447732178845 0.5980992733497054 -0.9009685408809645
Ni 1.7190348388673178 1.4075955252995287 0.2916933808307813 -1.275593698099287 -0.971612685561088 0.0211915464759506
P 6.999084682780488 5.200128911327087 11.631384009932873 -2.098567567472328 -0.8716247976115248 0.3915458442330611
Ni 8.190218054597182 7.2966415815518975 11.837218999279305 0.03104607067252718 -0.45395063172252786 0.8975862546722928
P 8.272985714052295 0.28893076180106225 5.131903589715264 0.0755508379531215 0.4154100524451684 0.2523933702688944
Ni 4.563460295592174 5.955121544520891 10.850833684731779 0.48399500060341805 0.7412487842884073 -0.05865817596284091
P 2.095468254198186 -0.21347678731823455 2.622754162776481 1.5308929291610667 0.20850206820258288 -0.8905468313270083
P 3.236432686258054 4.1398617919084915 9.461883296162435 1.82381331300973 0.6480586359869678 -0.041550569748276825
P 4.38638094467084 9.090208905717489 12.417643501325529 0.3739957511644397 -0.6406286620714838 -1.3419808672752693
Ni 0.1877416370126151 2.5968249174570643 5.070935573095529 0.595169244187104 -1.1557676923778741 -1.485385945868203
Ni 8.614981128363649 6.672117768108891 7.4583107126396735 -1.1622005924874113 2.1507522198956828 1.1273819421463294
Ni 5.394787724926659 2.670368442446941 2.5914373944312254 -1.263806732766688 -1.2480083322818507 0.14860667739853117
Ni 1.0471241141985863 5.454263982726063 3.978642776400332 0.7187495747446266 -1.3516538715886592 -1.7290835881353124
Ni 5.9423297588496595 4.354031775704575 9.589217943571388 0.6381087238631075 1.3067696094814591 -0.4247680966213007
Ni 4.462493917938609 4.7225627511879695 3.501392713855114 -0.26086232697185396 0.27760586497878 -0.4715549750678524
Ni 4.866784589059283 9.2588867153273 7.896141926406542 -1.2329018156577156 0.7522006553142206 0.3529900954470502
Ni 6.769941655062876 1.2643811329760215 1.2787053449942836 -0.2652519713991174 0.7079200882292904 2.249681841784061
Ni 4.0456332840196145 5.767496364516554 8.035204533958721 -0.15985345395694406 -1.7123696178147414 -0.4882221513108882
Ni 6.906575302156674 0.5458922263057205 8.700136156488474 0.2504784126343686 1.0392913198549842 0.19109801379352248
Ni 1.1116283571173184 6.305056369158535 12.399571407017033 0.7877569551522756 1.812836245172936 0.3473976889609372
Ni 4.3438464087900535 0.4559587637935927 2.9451552233139826 -2.6102057837143113 -0.17802241155648693 -0.2964114277210572
Ni 0.1618928024846285 0.5133702203509787 3.2807723057671576 -0.3209965732595891 2.003205094109918 0.5640051598794739
Ni 6.540114673487121 8.705373949075097 6.33830022371221 0.43476505993301257 0.14772710300705524 -0.9841046473805116
Ni 5.465234972315479 7.4464829322036366 4.0652867905595755 -0.5803082679148716 -0.07982375429686253 0.15476729768328829
Ni 9.001165507482918 4.760318852681453 11.169907402175607 0.30914095947258374 -1.2164349283509437 -1.0394903232396677
Ni 3.3362622216879476 7.17281820536874 2.7765753854730417 -0.23404597810995822 -0.4942087079116263 -0.6185994501855864
Ni 0.14001644590569923 4.958194097938243 5.973598465572451 -0.3400551325529369 -1.29086373688448 0.9920987213295817
Ni 7.6840921995707046 2.444183053034817 3.4936686565679405 0.14832514160237037 -0.12948281208488668 -0.17395466924501654
Ni 6.078131570170039 0.6574414035211067 4.154216504571779 2.077607677391209 -0.4738406857782355 0.9559302418288247
Ni 1.1202702065411636 6.430275380917095 1.1683179650757716 1.944729723581844 -1.1137615231494173 0.4258471886180924
Ni 7.9355284260159245 2.520878311343979 13.24152322770201 -0.6866856043305464 0.36471458297282994 -0.3932108906403099
Ni 0.847377238451605 7.623950473152566 3.6665906771461247 -0.23862228462673096 0.12648439157819508 -0.07824946783120716
Ni 1.994806882994874 2.7517589515660643 2.0309658598033944 -0.08532077285569177 0.7112188135852203 1.1385708688836134
Ni 6.787687484895799 4.339086459642161 2.331019190157029 0.1773310419164172 1.2416253115736424 -0.8653425641472388
P 5.525450639691256 6.710197361292038 6.186156536492043 -1.2812334128835676 0.49068938190445816 -0.7792250064218644
Ni 2.177163769767562 0.6185188834208967 11.644587092180963 0.6104140861613164 -0.09956879813427368 -0.6018502557517054
P 8.119114581209331 4.694687010158754 3.965088474603467 0.49255497435828716 -0.25687737418217693 0.7459500464188186
Ni 4.859445949013794 2.432269316235527 9.150439361284793 -0.9954354990122986 0.4488853013844785 0.1465593079511992
P 7.309479580321653 2.911684000315573 8.517473339003562 -0.38731303709863624 -1.3239229813322944 -0.7600486906037298
P 5.332778989328181 2.5490405735840387 4.805985712380144 -0.3366977860449298 0.22506048678189625 0.1999068703344041
P 3.089031387208342 5.118368697419778 1.833139600431039 -1.1414263360545374 1.2714390525009651 -0.1852181579739778
Ni 7.309969439165998 6.3922050303536535 9.924280468842284 0.694272672649185 -2.5566985558247906 -0.941754721659391
Ni 0.32799839103063516 8.963011973342136 12.502934395960013 1.3246282349294347 -0.038710529196320426 0.7088464566983017
Ni 7.5231504626536845 2.9202426661620766 10.726164608845647 -0.2097094582471227 -0.22025612341471748 0.11614495732539996
Ni 3.2040095763341525 7.801454984580314 6.991638828346424 1.1033063892543644 1.370354019101324 -0.8592955866222104
Ni 6.228924910651357 7.431999747126454 8.338044514153307 -0.5566152951733059 0.1855950816974223 -1.3135298110234281
Ni 3.074492746412932 3.037799546185483 7.5681943697842815 -0.24943043098582848 0.8448187331622741 -0.7894860220282403
Ni 8.007408279458966 0.4855832084709276 11.146693638525415 0.5960986979799089 1.7412297365795433 -2.1734476046106694
Ni 3.9880147927808443 3.566763914502143 0.819101291989178 0.7633312180097435 -1.0072124370425686 -0.3936970862481091
Ni -0.1885670029522401 1.498395021277982 9.09750595397431 0.5747413153500553 0.41223268315845135 1.0582426641465066
Ni 3.171623436889069 2.211934505096444 3.989397488688659 -0.3296699326638709 0.5790682248601834 1.3840721400183646
Ni 1.673459481103703 4.074128280569042 0.021685958613013537 -0.283568253209802 0.9273642572656738 -0.20197223750386506
Ni 6.464269736190786 5.262812358164003 7.345977761273334 -1.6150186532673927 -0.6918982588797374 -0.8940918683657892
Ni 5.26274765982607 6.098428363041444 1.5714366720178967 0.0095660464218803 -0.2243331216975685 0.4296061414398924
Ni 8.319864281194267 4.779793052399144 8.332633884578208 1.531599468309788 -2.921976210389942 2.1164624454748777
Ni 2.092427432315357 4.741408452765745 11.157854101818776 1.3554030542184463 -0.7568175852609417 -0.4977331761251169
Ni 8.530503584263174 6.139474837149782 2.3157605492866273 -1.2770587126805877 -0.8491698110421182 0.414531506494957
Ni 4.138660251346888 1.0506085818272382 0.5279412103153549 -0.256283706462236 1.4190409427840656 0.7182818910795888
Ni 5.324747152804843 8.522795239429499 1.4059142927752533 1.0371516478041622 -1.4646512844240132 -0.25205938396824334
Ni 1.4060057947103293 4.749486502387606 8.409497358565993 0.764206164415529 0.5670999967547136 -0.18179370567346112
Ni 6.300370360968279 8.229674798116319 10.652587810424832 -1.4707676817343962 0.14517296912663386 0.8444415523285135
Ni 0.5998515644034209 6.5081906650272705 9.939269225217311 0.09645082133058228 0.8002597156049767 -0.35123428909820803
Ni 4.39932985487705 4.263999417161608 5.831654933458332 -1.369394740511848 1.0465076350977653 -0.31560779814385
Ni 3.902067672147331 1.0010958680694437 6.164701643371646 0.38362607516535224 0.9792473192882104 -1.0781856829273366
Ni 1.4978774345745218 0.3937115686067353 5.987802523534553 -1.17897318396006 1.0908784479036566 0.1270729170918134
Ni 2.958386957683155 8.612725929155715 4.751686245877312 0.7161856706721924 -0.2051074406987371 -1.672887757670035
P 8.97719939458877 1.7219832345531003 1.4647047481925726 0.08023898745741019 -0.30106049645729444 0.1990002993597347
Ni 2.9394395872886285 7.703233664979029 11.434193642796197 0.09490790232349461 -0.8171284663358573 0.3998885597708016
P 1.9400351186251352 3.806563682739212 5.1198373496908465 1.8862422688689129 0.20046505683071927 0.7356774608482168
Ni 5.711347449810823 7.223587915406367 12.990993702249815 -1.6123830154167584 -1.0280162611617973 -2.4575401057550583
P 7.365619252407679 7.470208736985466 0.5953060440326755 1.5747230389721396 -0.9746414450850828 1.6210836285145502
P 8.343950548144576 8.246949254344305 9.478468252960454 0.6917303658433054 0.8083777167264207 -0.1838637008286124
P 1.7404222608638713 7.017995082696196 8.122497380021231 -0.9362134801261877 -1.038892541754669 0.9283155654353498
Ni 2.5873142617809823 8.105259894272065 0.44177319107090024 0.3807559527064088 1.0295722927950075 -0.27109531755377186
