# total energy = -340860.35392587626 ev
CRYSTAL
PRIMVEC
9.39121084626964 0.00000000000000 0.00000000000000

0.00000000000000 9.39121084626964 0.00000000000000

0.00000000000000 0.00000000000000 13.74498635165774

PRIMCOORD
 96 1
Ni 4.440023478956964 7.061748945233299 12.523248760774676 -1.1145637073357386 -1.8401295336712502 -2.2041787151459395
Ni 1.2494442161539605 9.175334791176073 5.640763938087713 -0.9537998257493832 0.5963390961254891 1.0519257207895432
Ni 2.5925094102613713 8.533220161164115 13.388949331514464 0.6138858467600008 -1.3627540952668789 0.30939035647922847
Ni 2.0725650382689174 5.832777568074075 -0.01899466245447371 -0.25355859422158916 -0.17370732912090084 0.2436511052998901
Ni 7.824531239577074 7.9076058880850715 12.37953130927374 0.6402103435871427 -0.7200688077766825 -1.2556802470048114
Ni 5.79506246651313 8.693424821903198 9.155067619692339 0.1797244818492582 1.027591514919553 1.6234960946107848
Ni 6.096886582316715 3.4773210944664292 13.243253151951054 -1.1405755580184678 -1.653836911686171 -0.8888622445357337
Ni 3.1202109221665095 5.390939894209703 8.874972886854819 0.23353561413244295 -0.6848284965171496 -0.31932638464601776
Ni 3.788386161449289 0.14611502755385156 2.4125475207713145 -0.1405300710379838 -1.1957563169556698 -0.44115965060544665
Ni 8.087344266764084 6.390915993365424 6.456170819858507 1.6076802106244508 -0.07171398070553456 -1.577896808714431
Ni 6.4039509936061085 5.141969511370509 5.531188232534191 -0.20637062368187684 -1.360662759955489 -1.0287860494482863
Ni 2.3960358943857436 8.023202298720944 8.974307477305699 0.24437589928105655 -1.6940991016403277 1.856422357294003
Ni 7.241421585438477 2.090117210783212 1.6964339081249897 0.7709041452609949 0.020740574981461056 -0.04754792498229231
Ni 7.648521171485634 4.487777784593767 0.4950614205243566 3.1808595592585545 -1.2491894970741455 0.8474271173193987
Ni 3.496319513405122 8.597784733681918 5.583516057707892 -1.7496963792896578 -2.6331125131091553 -1.4330724811764675
Ni 1.8442271450037766 0.3678208479299637 10.519449922622755 0.5513833573504052 0.5144134649942754 -1.145812895158007
Ni 5.176923597030329 1.2562152789591001 13.304940257556936 1.2175754697132901 -0.3413712802611992 -0.5907168648427052
Ni 0.8101910034324101 0.6827710587165495 12.524114630387206 -0.17566368151632328 0.9853076665496774 1.3904880708470375
Ni 5.547651024624913 1.855787725188419 8.543099714660658 0.03153535160411988 0.40761035389509154 -2.202852540135348
Ni 5.750200653725124 5.695290245650711 0.537683429596654 -1.1286317553930305 0.5341677648030672 0.18399199887636056
Ni 3.792377425932208 -0.043986551964928296 7.844111913569746 1.5687549943141625 1.7130085369503207 -0.664930729151958
Ni 6.700121600659771 3.971871633136972 9.06997292179546 1.255361173102496 0.2654016096031042 -0.7826402027510004
Ni 0.7204814646722202 2.6422640437449085 5.941380344214819 -0.07479956160939377 -0.7960266513602355 0.7879724135971913
Ni 3.027247328951422 2.1744596727151944 2.4231445627537274 -2.9871978985029135 2.737616286651201 1.9702785185852263
P 6.889824053730259 6.611806656665965 3.87921982811208 -0.446170987777109 1.2756728880766546 0.24662767142971076
P 3.811807840556111 6.7321644110496965 0.7455869878303061 -0.027036692402817954 0.6546432311830209 1.5881190006630714
P 1.6374045151042047 0.3037286533027281 7.743114139730808 1.279340052515597 -0.26949634849776816 -0.8222673302243194
P 1.7544377809539284 3.90519403824586 1.3789245924640618 -0.8248654299687987 -0.9644210529086553 -0.5266380320849253
P 3.8446582950531685 3.126587554128631 8.68280336277336 0.478468414358234 0.5246935067640448 -1.3569930244133854
P 8.526665096201581 8.146677935006625 9.739422548349607 0.660813621659791 0.7342296726580968 1.2001423618385074
P 2.352563980758848 6.548547462414341 4.581918096490524 -1.1979368695467563 0.2771165840471873 -0.7264484860507812
P 8.472872242182385 8.611758854977406 6.179374280165459 0.06894207438735224 -0.4825690667901689 -0.3913206155961325
Ni 8.528918986733112 2.272701126258282 13.251018743953233 -1.180128894831058 0.9166281017950924 -0.5864161805848224
Ni 1.340961562944649 4.837299858770867 3.2845157854308673 -0.2885163412436967 1.3607200955559857 0.04155005552764457
Ni 9.364746116719571 0.7968526670910233 8.872374338896174 -0.8957733698332703 0.3875971439979583 0.9114884665756818
Ni 4.755305199475894 7.16103282314722 7.896343009274802 -0.7469432635700232 -1.7050322036130636 0.43801467721856174
Ni 1.0311267445435828 -0.004329348062648265 3.4218002577063933 -0.04940631834726975 0.532993799099624 -1.6564208703632635
Ni 7.67374596301768 3.4416344943838624 11.323944217736722 1.408121981878717 0.22403667350307221 -0.32435494820886074
Ni 8.057498999642402 0.0812020411247169 0.25596589557643135 -0.2398582139163611 0.3969665010280002 1.2628191720424382
Ni 4.528159989950356 6.278935198790547 4.636568368032756 0.1029539125564227 0.5508645087324577 -2.357460943643269
Ni 0.7148007214117083 5.092449658150674 5.668486791625539 0.6881771012744085 0.2990653204041365 0.49794477791529085
Ni 5.951163168242717 2.375844791707449 4.381159371241824 0.2656417506383683 0.41947316677094854 -0.3079394829653148
Ni 3.676827971349075 3.3591796657720363 12.804004634834778 -1.2370708594337405 -0.563477569510778 0.05308608119170212
Ni 5.033416508645669 5.464003512273485 10.016658596696304 0.6357435660650407 0.4028998357932997 0.5770409100175095
Ni 0.8170559783430302 7.492429860966595 7.433659665356936 -1.4740383820658678 0.4461331925606381 -1.0252060454065117
Ni 8.522035229401395 7.800386437258053 2.2477308365320883 0.3580798512651317 -0.1222919507634023 -1.223949491560434
Ni 3.3033958751166552 1.8813036442474542 6.1929680574337524 -0.37382734390737554 -4.011294255785014 1.5184148512987141
Ni 2.1807799574140283 7.349270247372213 2.3790781854991407 0.13428383301795582 -0.2672438050181656 0.04491331557292265
Ni 2.7596260019638135 3.018598024036674 10.475177877857165 0.9799026934840219 -0.4216922859094544 0.7638492952967425
Ni 3.2798145454305168 5.763554955124443 6.380724651678687 -1.1889907160970619 -0.21494216740097175 1.961936317268118
Ni 5.736142011534702 9.266072667491274 3.9461171773300165 0.22702712358996383 -0.6831369677473397 0.4255566539608671
Ni 2.436249057952468 5.178050542296094 11.219564668979434 0.1810347160202495 1.008759212704398 1.2900235003713718
Ni 5.569861237571036 8.881108164705857 11.965353567836523 0.5216012409919663 0.35914711618738143 -2.7394505116464627
Ni 6.021559682510854 4.135419564831158 2.335094450897377 1.4235357453306259 1.0876951650796687 0.5543511817294776
Ni 0.5242962589604174 2.6748139795044286 3.577421068576975 -0.7886900084895062 -0.32054097377940927 -2.017238689384848
Ni 1.1914910558619813 3.7125897011160265 13.075728981710828 -0.25635749712296496 -1.256366731548875 -0.47727747937392634
P 4.167856806064101 7.567822499246293 10.227176667946532 0.2024844012535932 0.4399363197213068 -0.13163225432772166
P 6.3432743822551965 5.625494768857648 7.653922995792869 -0.2438961314311606 -0.10610505659089468 0.0036926183602388023
P 8.0661389133466 5.734198030951258 10.13175915141524 -2.6168903948233386 -1.792320127497455 1.341221877622058
P 5.982830330210722 0.1926062153719432 1.8733455324290418 0.6756272896338558 0.9500473006854864 -0.9985694166555898
P 8.17796005734216 3.6352436910423362 3.915025696568607 -2.803007410462502 0.6916902566339894 0.901965357576595
P 1.5803998670775776 -0.09799822118989351 1.3153470361748592 -0.3823958023026769 0.7568443247338191 0.48242508501313697
P 8.178720745396552 6.450954002399069 0.3089670705464271 -0.1813141949338813 2.028442014299836 0.7740784292239185
P 3.2214106070322313 0.8309944130384371 12.19019417429357 1.0082323936666506 -0.5877757799365103 -3.5740167138427936
Ni 3.4897832308636834 4.861078403878514 2.0826812502712704 1.1312033727749486 0.6221771402345155 -0.010685761848620306
Ni 1.7422667720836633 2.482500769901584 8.137031283531675 0.49118200527016054 0.18623605771553087 0.612776415745906
Ni 3.0049150302681737 1.6222283188585656 0.2161058415263136 -2.914744468528193 -0.4890323059170093 2.8948227899036016
Ni 8.028912154734154 0.41435335707446674 3.222622073192929 -0.38316353370663686 0.8770516250540508 -0.0006692581528827183
Ni 4.436004040842401 0.6942264573430537 10.153228397849123 -2.370955121474962 0.8375155146326415 1.872952236628226
Ni 0.5998203741877869 6.170344631223515 9.775007723358256 2.470910099304061 2.7080617129225364 0.5170228775926644
Ni 7.899191363434024 1.3130321027747662 5.4652675692132515 0.4493079907441939 -0.262921780604044 0.854290420098135
Ni 5.803768118691167 8.099393189897224 0.2947778905293874 1.1560672258961637 0.5940119906542093 1.4654064174224828
Ni 9.391492284360401 5.692726445171096 12.45620115218797 -0.5284336905327673 -0.05411657933874551 -1.1092633781687475
Ni 4.899253674756313 7.474220303713938 2.482372110317076 0.73816706003929 -1.1355372242636121 0.32576648384440676
Ni 4.928385209876345 2.439845891592369 1.432653586251531 0.5655974440672581 -0.44108534572408553 0.11269890775832848
Ni 2.752657723737165 3.657829552410382 5.121848842771326 -0.4290099026167902 2.8443263238159466 -2.17897110553206
Ni 0.03128587881975365 4.076123461430808 9.149102322752222 -0.5022840287205931 -1.7591971196912413 -0.18037702783159257
Ni 0.17436097151920338 7.094449140361588 4.337339982824651 -0.09268184120645327 0.5540516482111877 0.07063437448811062
Ni 7.307282145011908 7.6979095477577975 8.073585204190145 1.1271903949608135 0.07100281357112288 -0.5707489063612106
Ni 0.36820400932032393 1.8070097776018785 1.3691821506415212 1.1328000278381072 -0.46634283473929367 0.05641488845461897
Ni 5.908057511827195 7.598250021421955 5.884406687183001 1.3611260727451526 0.7304133842358 -0.1414196727317887
Ni 6.659917828303595 5.6667409655846575 12.000128281374874 1.9154836822325336 0.6271931053918682 -0.5821707750449071
Ni 4.686937186686135 3.5419232318264235 6.273486418430572 1.6768032906743573 1.4928174624455839 1.3756314654501793
Ni 8.292936648081863 5.550017609683019 2.6497854642728367 -0.10900166141239938 -1.1513574791253205 0.4037788959641433
Ni 5.427255705398989 2.9481921185579885 10.798267450825742 -1.083004701582535 0.02195722099738154 0.24191432511444144
Ni 8.33865306102974 3.9414347197507618 6.75046506304467 -0.8635836724746031 0.34252030626397784 -0.09454074879206299
Ni 7.281634749005201 1.2898733775632898 9.865518332378194 0.03525933742292637 -0.25884606787277353 0.6972536096543798
Ni 0.9801982097415401 7.840308473297788 11.78536350471482 -0.5565772428465189 -0.8790537430857441 -0.8368627115399909
P 1.3676138184799977 5.4489494017649704 7.831797219178096 -1.6208530005609827 -0.8636831741669447 -1.2773075954666002
P 4.75763421969181 4.841112690253373 12.113896223317042 0.15012362826368986 1.2454647399243903 -1.075831066652231
P 2.097047924167668 1.7771363368485509 4.3825473921608245 1.7873794956627282 -3.0633735145242276 1.3352160377476103
P 7.203612571772052 0.9618196106990181 12.020072395215754 0.014832437027142197 0.3070550234778325 0.6702287443261038
P 0.8073651881785037 2.3782113767655564 10.539408123279458 -2.0677310417074453 -0.6262579951721086 -0.02208063394912326
P 4.6531570023448205 4.231200521210658 3.9469276388003127 -0.2717470922051578 -0.9845278509608592 1.2188695059343655
P 7.789455068180129 2.171614135919137 7.767030735633511 -0.27268374508681426 -0.5134778405538835 0.42493033323077783
P 5.1068088190786325 0.26895206152226653 5.899155583348705 1.8357267766178642 2.9044243175491076 1.6130792701528347
