# total energy = -340886.6132732179 ev
CRYSTAL
PRIMVEC
9.08791309825041 0.00000000000000 0.00000000000000
0.00000000000000 9.08791309825041 0.00000000000000
0.00000000000000 0.00000000000000 13.30107943962704
PRIMCOORD
 96 1
Ni 6.684205568932129 2.189223752826067 11.301820594013966 -0.26250783299507696 -0.2568346938696996 2.036284650272706
Ni 5.121838802160857 0.6118782875840648 6.012340692951181 -0.14870566487024067 0.5099312608532056 -0.8542078876866579
Ni 2.838155279947117 1.7296025447462546 4.953388878987665 0.8892417393623394 -0.07724853737051857 -1.2513641361279613
Ni 3.4231624258989446 4.430930204152598 4.574892745315487 0.03207631170925443 0.3298221419710191 0.21111508034539767
Ni 3.8574374441748107 2.8212335856427253 2.545374525619815 -1.1491591859224208 -0.31837919024140005 1.003442428477175
Ni 5.348445916811775 4.5875058599906025 2.7755095681595425 -0.8669456469683003 0.8707627067215454 -0.16330156040654456
Ni 5.396475537863713 2.8973902979256483 0.5894056959213904 -0.5099083780350702 -0.5807654100569482 -1.952744623466521
Ni 5.952410449615891 8.05847979702564 11.92485702137619 -0.7061786800581517 0.3975141460013541 0.6942500469413656
Ni 2.333358055547685 6.64618174026963 0.35975867431836867 -0.7400835603357124 -0.0063567954559632465 -1.060332713906316
Ni 0.8282587735557486 9.08845843504295 13.227484868488212 0.5507259262720645 -1.2967289374160054 1.6894865425689805
Ni 8.005224625906555 0.33139984130179817 7.021254457054342 0.7470201395545457 -1.6373687388278189 -0.6021109656122599
Ni 8.441299050988151 2.5024841194599996 1.152566407427285 0.35303071887699844 -0.9878157776835118 0.4297976886254082
Ni 7.230761754302926 1.3313338384113125 4.694616004497348 -1.916198963132003 -1.6984756334414686 0.6296490231315285
Ni 1.0362765618373675 7.799601502742663 2.247589966306478 -0.6332467677851159 -0.2958460421358905 0.28108611021789653
Ni 7.799892315963791 3.9670467648006262 3.48412505616924 0.41508017990957546 0.2650771363841499 -0.3503783688558159
Ni 7.998472306428487 3.9817600962070765 12.439568250242143 -0.20235713164710956 0.3650642530027648 0.32106856414810514
Ni 8.478659461989952 7.140918644800662 9.022082134903092 0.05863066515901515 0.675775642286262 -0.7449169771686138
Ni 7.06841527360816 0.6069998957996409 0.08145133049008654 -0.06559141274756446 0.7969545624911436 -0.08531434509778854
Ni 2.1843889830248124 6.459779553439675 9.001678861067008 0.2141304701329538 1.6210077809712922 -0.9861049656399921
Ni 0.4749716021987964 4.665716440647743 1.1699034193631006 -0.4208453645281268 1.0007641103140636 1.1611541535007681
Ni 6.672963820352897 2.3438545952477776 6.995969156268568 -1.0411635971770328 0.308183737765637 -0.8666875082109073
Ni 4.042112927504318 4.87621068526553 0.47920838731410653 0.4275505444624443 -0.14604354465704525 0.4084544470629417
Ni 6.618100088604447 6.044134757142328 4.647663301154899 -1.1667141640870489 -0.12389477647414793 1.3777891352231304
Ni 5.399983472343571 3.1123830595577613 9.48660899850681 -1.3479867071497171 -0.44932444580442615 -0.7594717350543372
P 0.42072766612787627 5.637823247660561 12.462778780453432 0.5468003659654131 0.7261965179409752 -0.8768050562608836
P 4.440690622886709 6.3719903123116275 12.316799631360281 -0.7008392701231092 0.9638965478637529 0.05805705204373228
P 2.812218375787754 8.620412731463585 1.1689428269420616 -0.813053010714903 -0.03283735824499506 0.47075613331564087
P 6.825858871360999 8.144887675353328 5.570625400171016 -1.0006787496891087 0.11399397242066818 0.575890341352834
P 4.822882810841164 1.296881559620792 12.447589242397385 1.1284679761216565 -0.4471557202878815 -0.6041393088961983
P 4.643596460015686 6.426081571441455 7.7735628139559045 -1.2880501786950849 -0.23739586841879762 0.6569628804551331
P 4.830025910585123 1.344738510322686 3.9215972022948833 -0.23982890334032245 -1.1366502548221327 0.2423190167520278
P 0.24098237568780567 5.834149435661514 3.1074383260072675 0.7122467406291024 0.4096780350573977 0.1158009437224199
Ni 0.8334170730655085 0.4864096497022912 4.451378917554483 -1.5348172039161374 -0.4773363576363199 -0.22506768587074785
Ni 2.106551006807243 6.704907835111187 4.433954661652329 -0.318069115200149 1.3642687321391924 1.0384953063162503
Ni 6.155225407613264 5.9098335764601035 9.431622579930698 0.5904399570322347 -0.157869847868012 -1.7505810958874561
Ni 0.05790182111792208 2.8212335856427253 10.570328102205965 -0.7840779636387916 -1.2515891076545733 -1.0702216908852535
Ni 2.7766482836785227 5.705855365578218 6.604265558400593 -0.6248523730738336 -0.6880025233697571 0.9092192109255309
Ni 0.7316251753401429 0.30994055195649195 9.063834734335245 -1.0943023859835412 -0.5828006953194221 0.5751714609089384
Ni 1.6557814261455168 1.116250197647597 11.407643890017221 1.6281361644859573 0.5690671477834135 -1.4474727157621974
Ni 4.48339472682674 7.02785591717395 1.5680639795314357 0.5703542420259532 0.5522459624610166 -0.4525403816385625
Ni 5.863830560042901 8.256614479745483 7.770637414709619 1.0051905215165333 -0.5233171952418084 1.046499150457333
Ni 5.48961755984315 3.2524278013572654 4.763648701653948 -0.03820222210133421 -0.39107481813391365 0.31982389310772663
Ni 1.0882503372008563 7.895760711891304 7.219347335373648 -0.3352654244737774 -1.1638484125034794 -0.892439934584663
Ni 5.4924166370965075 4.520028104775721 7.150288283268883 0.7068417675634471 1.4043265193920265 0.34125866594273485
Ni 0.6146410131847819 7.299866245973493 10.952494844003569 2.826602167063306 0.6540616476479381 1.143814890891372
Ni 4.5756461333164715 0.4469553835083674 10.067840116540552 1.017082902078745 -0.3012906101902295 1.0157572412887863
Ni 8.591867596227228 7.50855199587239 4.61184329143376 0.8247942104112311 0.6214538889152459 -0.8201988777310648
Ni 7.685111972749791 6.261481288282946 6.959989199275809 -0.8376157876559316 1.0450613895695422 -1.0599964136128197
Ni 2.5019388446703843 5.447149741645286 2.5515061406290385 0.12234440126789253 -0.7341954769860517 -1.308752958460075
Ni 2.4874254473534596 5.592065604898686 11.160776181766835 0.2524252519480943 -0.09216376391945418 2.168672294709214
Ni 1.2878299981131798 3.439457054195279 3.7675707060983292 0.517613974209444 0.4369690095628668 -0.7046900113277671
Ni 1.4068725725993383 1.304851659462334 2.2916563484292305 -0.4786234518788595 0.31962463261272694 -0.4554840376479188
Ni 1.3764280635124897 3.529790911008197 8.35052443038696 0.4919975591929203 -1.0006442969067477 -2.1542327222451156
Ni 3.931276738601869 2.9792905713258513 6.639353991112332 0.5408384919550233 -0.7882300381339522 1.5499687148455952
Ni 4.539176337804375 7.218511247362904 5.665368712449288 -0.2249797541426319 0.5537004355193561 0.34102520977569006
Ni 8.506232190518162 7.2600248346789416 0.22517758591080908 -0.16628918227995879 0.00776138911297373 0.3597896348673868
P 0.587310931937952 5.696167650149388 7.697734175338067 0.3130577780284866 0.23055236313440294 -0.4287612769410938
P 8.621739566784981 2.119474019321123 7.968251360005381 1.4988343580636252 -0.6287591643274074 0.7865685912711292
P 2.3215255926130354 3.4478270222158725 10.39757323456876 -0.4661646572902165 -0.9315734102510149 -0.16334938292534448
P 4.294547891356675 6.3686277844423325 3.6728001300805753 -0.6770308548496018 -1.056216377745097 0.011941231522276208
P 7.121788587598328 4.088906592366463 10.136340261985962 2.0841673328865973 0.15614206654362786 0.8624624143859663
P 6.778310909706553 8.199669615883336 9.92785899013317 -1.2890284834479544 0.1149535081204601 -1.173792925310701
P 2.3856771716112637 8.72717753527024 5.562538066249707 1.2652072126586404 -1.4703329081898224 1.318733980932187
P 6.971765317148867 4.027408684011029 1.420608044549745 0.2856775862433209 2.1369225131014424 -1.054118357565488
Ni 2.8368466204520404 1.5762894497327808 0.3850394311475614 0.581854786466385 0.016072222971514255 -0.6316303152276154
Ni 1.4534117758929954 1.151911168888431 6.924090124710178 -0.2381232335031254 1.5416853917908802 -0.1065891953161648
Ni 6.939530489169447 1.3360595532546442 9.22026861872795 0.39677881049722635 -1.6067327591095166 -1.0035414159488845
Ni 2.6758996783839537 1.4716148659529829 9.058860010671323 0.8379495168462666 1.7345096442468904 0.3798874340585264
Ni 6.251321001369783 2.177972916333674 2.5168302991747753 2.473050542685831 0.2767152348437105 1.4228819137967108
Ni 4.268683690502595 7.009725530419244 10.160481394504858 -0.09935822478536437 1.0239274358044044 0.2144400309535726
Ni 7.640354000435544 6.582975304240068 11.208447739040261 -0.869575885502296 -2.0664496038918605 0.9578781095838149
Ni 7.9238878031222875 4.156457050886626 7.977628268804129 0.4618686010180239 0.3086246819577975 0.7491484987514582
Ni 3.520312217582053 8.640151678847655 12.382081746755645 -0.1009808479904519 -0.8270133295497369 -0.5913285302847752
Ni 0.5830559709963213 4.983475324296001 9.863203031954548 -1.9061235811738722 1.1935505675536024 1.155358372754597
Ni 8.925403097121686 2.674754601325762 5.52214229225238 0.605456485045725 0.8762831223191424 1.9201083254887386
Ni 3.7716202802025385 3.1743444514843686 12.069692002202466 -0.15605670591867318 -0.1389472999318962 -1.0879913561638488
Ni 1.455147567306604 3.6706353891658035 12.535256705489083 -0.3189831423739861 -0.8276499346924713 -0.6774342609356075
Ni 3.4774717949446186 8.690989465066112 7.679564710556773 -0.783116885277103 -0.8814695516160884 -0.15884275330424258
Ni 5.573262712570121 8.100556834957613 3.517125086436752 0.8752842487409829 0.9709377709812503 0.7859085890896271
Ni 3.02731110446463 8.981793598281058 3.2987870639703494 0.5738468285602439 -0.5085611199785564 1.1593212140570872
Ni 3.759578795265203 4.698923675335307 9.330375048203631 0.33015844226451524 0.06311672595482679 -0.9295769486462764
Ni 5.551969732035647 4.671569056722945 11.58837976299176 -0.005012108502610723 -0.8673050871902482 -1.1264306339766537
Ni 7.698998304058658 9.164251630799464 2.598658778061013 1.543621946691961 0.26955599809110997 0.5140486254556889
Ni 4.8031893030228945 0.6259527386953491 1.808601047474389 -0.16265749906464244 -1.551973918201082 -1.8286811826249927
Ni 6.4846531717592875 5.803759454053626 0.0245800787245372 -0.18023098917203154 0.775445227664458 1.4454137763506398
Ni 8.300154671696257 9.189334271121764 10.983831786162755 0.27123647111732646 0.5806692507987161 1.062734638479589
Ni -0.019362707779235756 5.257348675293395 5.154687064278593 0.9127981865260408 -0.5678636143936155 1.2228482880764555
Ni 7.064543822601893 6.193994445154904 2.494018728351224 1.5851874288385732 0.5145582181022558 -1.9318292134700923
P 8.710128610181606 2.0000406645690734 3.4198935035352016 0.6784699012889734 -0.318972857961341 -1.840984682582694
P 2.4686861704170178 3.5687326188998827 1.166050144183153 -1.3699855800183116 0.3780123285230006 0.13906377090510244
P 4.766192408547503 1.4617453922609478 8.106276767500676 0.3608407018397205 -0.22892408350236057 -0.507814471620519
P 8.9539118807054 1.6705038454651273 12.459746143831854 -1.5112396737065135 1.6362906752722917 -0.163960277036466
P 6.652343345392281 7.9738440617642 1.2735719711560582 -1.6287102918218723 -1.2283458208559168 -0.6302087522897405
P 2.00134932406415 3.4092760945900773 6.05003553915728 -1.7713900622130072 0.8073629023086611 -0.3988243801723454
P 7.158658251289475 4.215237673207144 5.664677122257794 0.49479517654271554 -0.06202914931760285 1.4416383684686074
P 2.4867802055190817 8.343176852596896 10.287866673272129 -0.4088992479098441 1.1615547313732963 -0.787997610408172
