# total energy = -340889.94247963734 ev
CRYSTAL
PRIMVEC
9.06649616166814 0.00000000000000 0.00000000000000

0.00000000000000 9.06649616166814 0.00000000000000

0.00000000000000 0.00000000000000 13.26973358807806

PRIMCOORD
 96 1
Ni 6.5065166709158815 2.1793409151864482 11.337129580010048 -1.2666164343013413 -0.5345804268604536 1.0603165159563996
Ni 4.591572920838107 0.41682582085781816 5.709767482441633 0.5561715227676679 -0.7897621585077624 0.9027996805524323
Ni 2.8537159764973405 1.608768170017425 4.76392701550637 -0.5435404642672187 0.6872869853599711 -0.7275910842956566
Ni 3.5493429051360823 4.8592068251259795 4.55138567598713 0.11106754280249259 -0.7809836409841839 -0.28287122714277735
Ni 3.5307656542168147 2.5350830305204113 2.5180380174758903 -0.15070315491624367 -0.129415449182061 0.8089837257415358
Ni 5.036465894292692 4.215603452258227 2.3959304453037618 1.1997934631395208 2.077259035802539 1.1504524508125478
Ni 4.951095765129286 4.829142323394262 10.909393137504477 0.47036918228986735 0.29236965355151584 0.015099317535283673
Ni 5.810019358632314 8.166637475978074 12.586276080926622 0.20919755160771067 -0.3442809977088264 -0.7810065238023195
Ni 1.921380962450971 6.793398746849242 0.21006165278111438 1.28049010695964 -0.162938520640171 -1.3496646090727722
Ni 2.623445103462909 1.5258097288698917 0.5736689536555675 0.028532560222054085 -0.6840139710356542 -1.160730435699788
Ni 7.842537432732079 9.384276995601557 6.996851830477085 0.01273955905385548 -1.5238738175307562 -0.9749463779200113
Ni -0.06221701756138985 2.4186329520396552 1.4556495538998293 0.08932166648496875 0.26914076493056227 -0.22399990672786585
Ni 6.802483376142119 0.8882219762973725 4.724171335879286 0.4638426940252592 0.041732860962411994 0.04879542423614822
Ni 0.9954650277851974 7.370998026650979 2.273689595636019 0.6523855454970958 -0.776930811071049 0.2612575055277436
Ni 7.673202481331808 3.8033226659957373 3.6484469628951484 1.107188755027906 0.39502866057533903 0.5357307384148128
Ni 7.538438080324492 4.142056034270381 12.351812860002942 2.1835702948669686 -0.5899653313886614 -0.07502479024632241
Ni 8.054240121343543 7.543052926941333 8.977598397403009 0.2638934004886939 0.49664045728157047 0.21459326870198528
Ni 7.116274813094702 0.9263873924733881 0.30564065677863295 -1.0683440142465666 -0.1851878189566746 0.427459784520851
Ni 2.0828552615589015 6.413503485371342 8.988678562531577 0.02302937101563776 1.2338533809377072 -1.7410878116850403
Ni 0.46737788427927174 5.118481419824997 1.1197440258212423 -0.6897943251628571 -1.280144807805079 0.42546255158516405
Ni 6.283952319736686 2.173810352443279 6.86671587583106 0.6313981446121513 -0.42185915050462186 -0.0338179769907095
Ni 3.2790253179433275 4.699582091263306 0.10545695171667022 1.0691135454227394 -0.31562451031439837 -0.8208635078982572
Ni 6.073246945718251 5.5456221935236405 4.5798363413773995 0.21149097562757774 0.1751990831750789 0.2875267236369177
Ni 5.22303625515979 3.1673260835239168 9.093178092238938 0.8254025334191915 -1.5333164510008948 0.25236740212696535
P 0.5477877333167971 5.493371975345145 12.2370962956148 -1.2254232478924831 0.8409847041281645 -0.16839722976189708
P 4.256692813491082 6.3466290086605 12.19615925151979 -0.6690408946655897 0.41753789742144864 0.6962053708955236
P 2.763214210427977 8.518254335495412 1.46679681110102 -0.7883961313981712 0.16480668419716132 -0.6888728417898523
P 6.647083629555374 7.940718521167777 5.678026585543994 -1.6099093570652854 0.205255279130511 1.31242989309103
P 4.765268856958811 1.345431784975884 12.694755802509805 0.3508185417170281 0.010950585474232753 0.06562457997834505
P 4.31590610082819 6.112577406668852 8.159970881248482 -1.1068902499508808 0.9459047392720225 -1.1997631241222175
P 4.869261569522987 1.3502642275039316 3.6820455848847145 0.5726780050631234 -1.124517733224657 0.31344267217173116
P 0.13654868747920962 5.659189126180909 3.274969874148214 0.40658782616784817 -1.1311488653879294 1.1177829856039847
Ni 0.37453786881406687 8.935322231804447 4.82581763920095 -0.5044326996324796 0.7251361949972609 0.4705072505296284
Ni 1.6383521474452285 6.7782576980277796 4.585913613847474 0.2665804604025538 -0.3060594923337826 -0.15039642230910227
Ni 6.257532549517679 5.962001036113855 9.18005507308745 0.08371203360767518 -0.543063010410168 0.19078613898005853
Ni 8.614885053063762 2.514556482896584 10.451255826254448 1.8846381576065867 -0.5633608414272556 -0.31260654942368094
Ni 2.406610777945488 5.533772282859178 6.525205439739643 0.8182924047369714 0.12366671962374184 1.702965550892022
Ni 0.9081274689246305 0.0985827342218003 9.185030766257043 -0.6498244696381389 -0.13043206337203345 -0.25076097687179394
Ni 1.9048164737103652 1.1985726779039996 11.411612660416083 -1.0090399771696106 0.5000929346065451 0.47688718591404317
Ni 4.588091386258801 6.877671829960315 1.1999553185897918 -0.9799361178251188 1.577533254727425 -0.49555982262288206
Ni 5.647520545442452 8.067386540978944 7.730230743060549 0.553998169265433 -0.5077861894857448 0.5438870489733602
Ni 5.417458201822926 3.0758542023504236 4.882731663076309 -0.8690845476881742 0.4223155213157501 -1.0927748935954213
Ni 0.6409450761525118 7.671162519664245 7.110945526569398 0.6100747005440267 -0.26579910215183905 -0.7471031861866553
Ni 5.280182381340435 4.510192050046823 7.084604634868204 0.6410302683852767 1.74763409744399 -0.5050723900990076
Ni 0.7980910299266905 7.17876110559621 10.806088572009493 -0.1763445096334318 1.4116086548757365 0.607826013719166
Ni 4.689391349421794 0.6724012850663224 10.595258986991746 -0.2584768574588129 -0.42065715977672075 -1.165474635252993
Ni 8.037739098077038 7.091233150313337 4.4416846973523 1.376682532422513 -0.5817668547382691 -0.022873562164063832
Ni 7.2625808638922695 6.140511281770006 7.00584851475585 0.5445313674255784 -0.08499758518831814 -1.0153281241711676
Ni 2.700927380845075 5.543373702441172 2.2563190953743186 -0.2202196137498272 -0.1500873757091157 1.1287878213549205
Ni 2.331123129749383 5.42147465968395 11.021297274740274 2.2465875191294535 -1.2346457949320155 1.6727381194660484
Ni 1.2535247119799773 3.4731390037322556 3.4076145283205244 -0.442372182856309 0.2718450512356028 1.2008283321619384
Ni 1.4568590245062865 0.6777341981901451 2.806787791647108 0.20841747890857654 1.029499016354911 -0.47577286980394184
Ni 1.0828297861346652 3.7054679714268492 7.8467252473731754 0.24886633095224237 -0.8350200019042973 -0.17724002486450766
Ni 3.9117126292655477 2.810196794256012 6.888610557746599 -2.208635208255396 -1.3646965637052304 -0.33194278785844766
Ni 4.457089581216101 6.889712137047082 5.801593863620466 -0.3793086787369209 0.48878676556510664 0.3692281545724673
Ni 0.6332367409980164 8.746557778832683 0.2517466828208973 0.03951399893422227 1.832728870331805 -0.4570117871463549
P 0.18905458085337293 5.712436658952433 7.962955009993836 -0.010011875710047273 0.36657169078622676 -0.07735755214455708
P 8.958051938029241 1.7265238239654208 8.034744434349058 -0.23365285643659758 1.3213937871525372 1.2031736924656635
P 1.9867594672722673 3.102419036510235 10.291913060426712 -0.955744865290896 1.7114967282914848 0.14192129495855557
P 4.569287472932027 6.333328458587993 3.200858520090491 -0.6447491119977605 -1.5576851096532465 1.900496464795082
P 6.934545961251953 4.026530738412253 10.22175560540554 0.16527668185504438 0.7316606263793399 -0.17766811354086176
P 6.346792205593904 8.262851134716612 10.350631317065826 0.8976528462441702 -0.8403031046801076 -0.843265015521909
P 2.3957400488814558 8.548880959997748 5.57380539727305 0.7025426259674611 -0.09147676515475858 1.1621540555201921
P 7.275827014986973 4.031879971229417 1.3589671573025672 -1.2190713375325262 -0.7077205706239746 -0.20095382354167976
Ni 5.287916102684571 3.257347325289366 0.375099991584684 0.5124887371677368 -1.4786535122403761 -0.8487057269215061
Ni 1.4437579373523863 1.1203378813289104 6.6807266773768115 1.0203888265235266 0.26489355961843414 1.1465227767408384
Ni 7.0030252078079425 1.1544369739142517 9.141293988104508 -0.7369069623799439 -0.6942814143999333 -0.016376898696126636
Ni 2.7422796704706376 1.7325802434940056 8.930332032240775 0.9881410222334144 -0.2683596637901637 -0.29033282562714513
Ni 6.6652347551485285 2.042736015430177 2.464255561422648 -0.3445170249790324 -0.19261085089362312 -0.34810808476440047
Ni 4.274245550328418 7.200158036864863 10.066618787211501 0.21773284277223148 0.644945801389599 0.530000520799255
Ni 8.102555480127718 6.986252189652432 0.35252260249773454 0.6357854750465696 0.14412190215430018 -0.6820748450314124
Ni 7.63723569050861 3.684986756284524 8.08462467039466 0.9327556034845742 0.5206761580745356 0.8178157222108688
Ni 3.4225751538656115 8.455514181097495 12.354613500710098 -0.10007376279515023 0.017586602733511647 1.67362592138764
Ni 0.24133018522150923 4.804354522509305 10.077726151828973 -0.9421537568700226 -0.16151721481261216 -0.44364462181082953
Ni 8.851729135915894 2.5473137340294847 5.74933729889456 -0.8210823087772827 -0.30137931324929385 -0.2260339064387591
Ni 3.8683385109650232 2.9164017319174547 11.459582585691217 -0.6426012124168223 -0.47881319929216254 0.2528947353853451
Ni 1.4139200980281752 3.3305592829141015 12.478406534544447 -1.2317144802178337 0.2752216810173196 0.362769286321001
Ni 3.17953865404039 8.68683676770276 7.866577247672263 0.05290996062515403 -1.0841565557987909 -0.2931389276173726
Ni 6.028413121513383 7.970837421877296 3.376231758026746 -1.2186540474894496 0.3454801602232502 0.8728244743465806
Ni 3.4605003078896694 8.323252133069058 3.627786231126078 0.44334740228538483 -0.0339861271374576 -0.5132585254542258
Ni 3.234662951546073 4.325453121432381 8.913837355521682 -0.05966064908542629 -0.18656593025112383 -0.1621939291646626
Ni 7.623599680072993 6.438898741508417 11.29428222514457 -0.6594738198024449 -0.018375674293710287 -0.15711034399416812
Ni 8.327032862026273 8.682684312397233 2.53603229268305 -2.0241991798630816 1.3930517178091557 -0.25241753863861044
Ni 4.774036158881179 9.671684928320333 1.5283546943813795 0.24986700430261483 -0.9550547812024068 -0.11729835420355282
Ni 6.0232452186222245 5.53250297337714 13.245954351734767 -0.24602629040028598 0.570215916675876 0.14296979082772798
Ni 8.208288959981546 0.012413846734339068 11.198367760783942 0.23109820833554393 -0.18118178312107508 0.21298452945396867
Ni 0.35319261657432505 4.8846564802408565 5.592861359196973 -1.449637584624 0.5282938225207935 -0.47076410373544086
Ni 7.175660363861515 5.967368401923619 2.3394670262945274 -0.26753613944760374 -0.2726814310939691 -0.006301516737995599
P 8.568872584339857 1.6017960343625122 3.668537412046932 0.84804598185032 0.42943799129314425 -0.7171837729194036
P 2.029643994772577 3.4813260498914054 1.4252622848998215 -0.46008734074788504 0.25325828937235095 -0.8468933563031158
P 4.939345585924127 1.0476336474969903 8.068369349177894 -1.2401654391986643 0.6750595900558438 0.39438974143975947
P 8.818255631575273 1.6127936943747478 12.633131733806453 1.3601907054150768 0.3589517123471237 -1.3077975365253411
P 6.535855852943578 8.031637346066953 1.3348956096253322 0.8891982877189137 0.4484559271565438 -0.27325118755451006
P 2.0595543660671902 3.4570278398066634 5.671006397458689 -0.03338911698340701 -0.07894880789107693 0.2840793885182656
P 7.1108711812997365 4.059523718448961 5.8969634315534485 0.6886818088249688 0.527505265181227 -0.24911855617236453
P 2.5889470850403558 8.56794780171723 10.4346024858501 -0.7206694174751589 -1.0324100193541188 -2.409590831569289
