# total energy = -340884.785133945 ev
CRYSTAL
PRIMVEC
9.11802894158847 0.00000000000000 0.00000000000000

0.00000000000000 9.11802894158847 0.00000000000000

0.00000000000000 0.00000000000000 13.34515702050767

PRIMCOORD
 96 1
Ni 6.650006234353191 2.0258800742789966 11.252622964876995 -0.7299359303787494 -0.3076381496748121 -0.1624199291325396
Ni 5.4009639637343225 0.7808524716681985 5.533742520325552 -1.6346801362520622 -0.7962007150442546 -0.5561998049024421
Ni 3.0236568297981896 1.8517804355188558 4.739479252140729 0.06504865287021701 -0.40919466766307594 0.6971929316197735
Ni 3.534567328313272 4.710829494366128 5.002511583194106 0.10695377774443514 -0.4538758126205344 -0.6252758337644974
Ni 3.2531484925170537 3.2203053533731327 2.8371138173596178 1.7896996591554728 -0.8521072964038875 -0.1119723140049491
Ni 5.2808065823799115 5.091352183398125 2.721331266144366 -0.7218660088864213 -1.7555883192940602 -1.5345495520770474
Ni 5.2381433263959005 4.775950454878589 11.517043971691509 -1.3884162759196734 -1.203698711731198 -0.43810595138078745
Ni 5.778796834318943 8.266979196458873 12.466031067786712 0.39578662178728613 0.24516059996588102 -0.6343266311128559
Ni 2.0566716569800025 6.067200080049709 0.2664360911428893 -1.8605219812846732 0.7267207658755613 -0.9039854733304173
Ni 2.86348042076397 1.7980478927717358 0.17573267768870188 0.6402124004696715 -0.841887161337776 1.8158279808114082
Ni 7.734285727534344 8.695499188226462 7.343679410634699 0.6580121476552538 -1.0653368519891266 -0.9222487904159795
Ni 8.667187709314225 2.856714843516666 1.3242040042643903 0.3579474394523255 -1.4712381936129113 -0.27232661885771164
Ni 7.710551498996968 0.5632735133611981 5.079673812322186 0.4541902585371598 0.24547864542693207 -0.16863248570115474
Ni 0.9261911127043889 7.570908890449176 2.0455184843534493 0.6023428791174078 -0.7147391680336529 0.1548400599027527
Ni 7.826751655923712 4.169236829493662 3.392525766431563 0.22486045495594822 -1.7687554528036378 1.2876637418899437
Ni 7.526914402284428 3.894775049546087 12.482378781326727 0.9028960969209805 -0.40332123960143446 0.8808871967500571
Ni 8.340680221917038 7.1589837107976155 9.556306741193696 0.4993149187899401 0.14924225410000105 -1.203592782280953
Ni 6.981127444239779 1.042929233320608 0.3096582822822365 1.486997256219381 -0.7744083017595115 -0.5613060157807559
Ni 1.6974304467825163 6.547966375896884 9.208971852788029 -0.2893704617138758 0.177542643706591 -0.4504400474661081
Ni 8.99351283613871 5.238644817970835 1.3195620158862198 2.1310861089253232 -0.40129906696508305 -1.3748979297182644
Ni 6.664978037372158 2.0360831483217643 7.036793920860421 1.6876001241795455 0.22111847141501273 0.2501822215501885
Ni 3.485229675368309 4.226206272406272 0.37376075899614764 1.1612073753362067 -0.21104283234656557 0.2872732128652149
Ni 6.288512871082816 5.917399987602325 4.60510686414407 -0.06772388570953497 0.5163603043080011 1.4156871958204844
Ni 5.190592807063433 2.3820302727691565 9.193064540031093 0.9029516327492643 1.4040087310412919 2.0301708240654843
P -0.019427783612979598 5.5732673508533335 12.277010686967962 0.9354179808080857 -0.2335908928504106 0.26617936830939315
P 4.051121886553531 6.1467548798916605 12.772609279995985 -0.12731151546518074 0.3287037120958597 -1.5500566465737111
P 2.4953400146185474 8.864684209552241 1.0804745398316915 0.2201807900920918 0.12253620556372444 0.556515536370648
P 6.331695854699031 7.940526417233497 5.542630774639125 1.2626985873041736 -1.1242235990230056 0.7573027524274764
P 5.0144507298890115 1.5265859442451348 12.554015485101889 -0.8827219359659507 -1.670580706803413 -0.19029043029056258
P 4.186889332931372 5.9884111946131116 7.661907728031142 0.1961263202460493 -0.6458662563213392 1.5813814248289215
P 4.840424035357952 1.342547654272647 3.426702873164811 -0.7576272256464306 1.0823948359126778 -0.4456919912581615
P 0.5487667298026256 5.740491996022548 3.561809262466601 -2.865426596129671 -1.0294090277442658 -1.2528584612853004
Ni 0.9838717618505423 0.2172798869677664 4.569902155583637 -0.75447865271512 0.5616392307504585 -1.9737286819173556
Ni 2.0080360922399483 6.723461073038207 4.551071602846262 1.0316844540420038 0.9368449430625995 0.10664601669602922
Ni 6.089192765117765 5.808138650466954 9.321311436390637 0.04892552205610929 1.2527090801916296 -0.1756449124632459
Ni 8.64421027715357 2.2895005181793424 9.916185301592781 0.6528540004930822 0.8598362896170288 0.6661679439931688
Ni 2.187870971011618 5.612055444667392 6.7711055080656175 -0.42172776713308013 -0.33901949219957095 0.810385491185069
Ni 0.7989253162259903 0.029714743519190505 8.89293186226403 0.06089092194810158 -0.33905317365098386 0.6039588174542759
Ni 1.8097463235106725 1.5056783045846656 11.516710251843461 -1.7890255159065833 -2.488659709977998 -1.1928070045193586
Ni 3.8913193166933535 7.225581791948975 1.317270655290199 0.7933331636884725 0.09819402927393411 0.6188976981522953
Ni 5.497113575692303 7.860059814528027 7.833860071047698 -0.5646211961969179 0.4912172293834701 0.0698455600382281
Ni 5.498070968698998 3.2505225002701215 4.537927052765786 -0.006940435873575144 -0.4044777218033809 -0.6050502507462417
Ni 0.9138088298178135 7.828602615736654 6.321013172350053 -0.9188721606342628 -1.189918370117654 1.7953861680172885
Ni 5.770417366003211 4.193034884231484 7.866329371017577 -2.0546418126236548 0.6691519663221572 -1.8295962382400943
Ni 1.0783254204823796 7.316625307871255 11.520433142935204 0.07629311543578472 0.5504197078855554 -0.4300977363643302
Ni 4.648033631155638 0.04260398879788199 9.853703098567342 1.0620365839713 -0.04752247106099558 1.78367222201447
Ni 8.543674893422066 7.4445603676514756 4.372673725387497 -0.5169202905765292 -0.05964882201088438 0.1927975129831325
Ni 7.057609468431676 6.327027424037819 7.067888222112114 0.7393178858142816 -0.7138323399486673 -0.9728892382806663
Ni 2.3672134762369876 5.403526129780809 2.5262246012116316 -0.1728742916966442 -0.6245721228292533 -0.7029442322812538
Ni 2.384756563331076 5.184839330994634 11.345558471741073 0.4995753715401783 0.4750686446480657 -0.860758287210666
Ni 1.1073845777427005 3.5073500128372572 4.1286707200957435 0.7240095375919853 0.22810364448359427 -0.35962354160316773
Ni 1.4839226882611243 1.112408611520685 2.3867415581649545 -0.21248316433751796 1.4292014282568353 -0.024511354877802947
Ni 0.9836711652205683 3.17049356293914 8.363996844742923 1.540898634223527 0.20024625595169385 -2.041949304757651
Ni 4.467113706976382 2.7322172805319083 6.708570420474094 -2.465159827083845 0.2543872607704715 -0.5927043275863793
Ni 4.041593546629767 7.044406562967934 5.774129315460593 1.3422593177476367 0.618651129359128 -0.35301914891277264
Ni 0.6882543318636206 9.11113540553254 -0.0651191369067338 0.2333939463482561 0.9019722995551304 0.07614501989369468
P 0.15935396285132672 6.036672920179123 7.6284655344058905 -0.05027535121578438 0.6583918995921758 1.524091589968517
P 8.781956335745246 1.4354603660651386 7.5573759123488395 -1.2656730965514653 0.06711916224600054 1.6439703033047364
P 1.8853986070967672 3.234611540301731 10.319569623821767 -0.407785188910059 1.3572869015047204 -0.8911638960857168
P 3.9424714573367172 6.567524547319346 3.389309837731935 0.6123249300307841 0.2774865657920963 1.8807251957054254
P 6.84745714444803 3.8330095235713726 9.867888927517955 0.4937376818124787 -0.2979363490060159 0.848337802059126
P 6.41916510339632 7.784735779972799 10.313056615967659 -0.3450176187645348 0.6921836513306402 0.10608834442034633
P 2.828731613635296 8.842627698283739 5.619245010246232 0.03559872304021611 -0.39545134993505443 1.1298404309891508
P 6.911857780698312 4.282692459801216 1.2959071141979703 0.07115348021637423 0.23631214843631562 0.4759122235952835
Ni 5.4607782315811075 2.7417456204556716 0.8672886477211214 -1.042314165841708 1.4329482968937775 0.9156441406152682
Ni 1.5710728059561818 0.9335037716698038 6.775736554809425 0.7557626616338661 2.697533559697703 0.7672778613623172
Ni 7.119767069637703 0.7351684127973526 9.23475490235973 -1.5402738561553344 -0.9985532187056736 -0.5677849386368802
Ni 2.9929655454121717 1.6567640390696103 9.114955859530681 -1.345354668843509 0.10260629940901685 -0.011096109913161536
Ni 6.804958012979452 1.7188304599892856 2.62004090964187 -0.2802898395688463 0.7245430414979522 0.8051157581456972
Ni 4.0141118083233325 6.814778129819541 9.877911464593748 -0.23808106741128032 0.6279189278142991 0.5636390347893067
Ni 8.218817769207847 7.495293078977622 -0.32980821376312247 -0.7987412220779212 -0.44155611471291695 0.7486486762969041
Ni 7.964725665231266 4.193518139749149 7.948121735086603 1.9808758344850983 -0.16262433183386185 -0.272093419800983
Ni 3.3975324759551406 8.403229898354379 12.471862958901774 -0.621540277981465 0.07683278998933865 -0.6588896651642007
Ni -0.052239921459541 4.794998016697481 10.06603827860625 0.4809338451795911 -0.045057554460270786 0.6587109734944915
Ni 8.85274871006879 2.8198688898019 5.962803211191207 0.033493760882071344 -0.2976162466624358 -0.582964474590796
Ni 3.591409118824989 2.978568178197221 11.615317172518623 1.6950861481439454 0.3731336602744606 -0.7499221436926892
Ni 1.2765787170971141 3.581689300299886 12.669757916991147 -2.062648227867899 0.17917760820685272 0.11444442969452548
Ni 3.1043605012481743 8.554963012872422 8.006159810955255 -0.0867104541143668 -0.8688114965324456 -0.7044850944058124
Ni 5.80394435729477 8.428660080217897 3.353357450823417 0.7768469931079911 -0.7787948608629813 0.6323239988605304
Ni 3.3639234224058647 8.766027139719585 3.5913680876961305 -0.03715501178374246 -0.45712800100924494 -1.5865136038491645
Ni 3.8343225196948385 4.4912947189168815 9.398886712215893 -0.9187258648643855 -0.7332318275212018 -0.4204751256729017
Ni 7.132222296753359 5.928460156336798 11.367724399353198 1.8970141626734363 1.585084841822438 -0.7096183018673199
Ni 8.342731778359955 -0.09620249652406493 2.360918389267259 -0.20164570740238177 0.6329243514486906 0.36645393426143985
Ni 4.978261274235979 0.3284177143962574 1.2907782230906812 -1.3040756075890636 0.1898741686887504 0.26394430833128735
Ni 6.120239652620556 5.984417498070903 0.05590628077374717 -0.030752450691508327 0.1749031492012149 2.462566612435372
Ni 8.578724595495702 0.08195648858445855 10.920675661596057 0.10361442895855705 -0.687210623596081 1.5542339178798523
Ni -0.12012820366277918 5.2193328333215225 5.616429363003688 -0.4092041807447727 0.3527697519061279 -0.09389283079541894
Ni 7.434439355866425 6.18453999055585 2.5323099735227514 -1.1533030328874654 3.1880424501602387 -0.6315107589306157
P 8.700814998920771 1.92539028069067 3.6754563713754944 0.6818416459746838 -0.13706988040352522 -0.31812645080064567
P 1.7153564910792816 3.4125589871459185 1.4364989095266856 -0.24957621253507342 -0.2684157138390797 0.2208765306075357
P 4.885111493698973 0.8995637336810706 7.8283354574976425 -0.36035347779065685 -0.9487656057595854 -0.8725673640304521
P 8.545990872695404 1.7051442990078793 12.381355583063243 1.4762767844780833 0.8990972920001805 -0.102948513239784
P 6.728357454415299 7.960531372059084 1.3520249332360539 -0.3342855770590114 0.0002900204365930489 -1.1242477673927218
P 2.207857689779934 3.2358971823392917 6.309817144988916 0.057697868932100625 0.6546702277662144 -0.27732587184451596
P 6.941573436020366 4.168589449460565 5.861873016819801 0.1757953219981811 0.05121894607597631 0.46292892396173824
P 2.529286435227325 8.653656554819618 10.367198558200498 -0.5279292400925231 -0.12032968483070888 -0.8006533514989694
