# total energy = -381174.30696540914 ev
CRYSTAL
PRIMVEC
9.20026830440614 0.00000000000000 0.00000000000000

0.00000000000000 9.20026830440614 0.00000000000000

0.00000000000000 0.00000000000000 13.46552264087378

PRIMCOORD
 96 1
Ni 2.8500038396078784 8.107027811755644 -0.023042071369120495 1.5597576759115588 0.5931447575579074 1.6697700379766596
Ni 3.455252674540584 2.822081026030206 10.80326757119099 -0.4853900811787318 -0.22326971343006063 -0.4488176813713367
Ni -0.15365183690213916 6.536781260007483 10.749310759069415 0.2714557862169841 -0.38145452143533015 0.26803750456405456
Ni 1.5492975413638583 0.9175077731168633 12.187065170438434 0.022635992231961017 0.5386592249155174 0.5446614652455395
Ni 4.650128289231403 3.7592019306083153 6.466695457940928 -0.12507234172201687 0.08269027721138018 -0.2108183750405853
Ni 6.852893270457318 1.8818872319183428 3.905634317159746 0.25196785269570154 -0.029487725046471798 0.6152007089166825
Ni 2.6012929930031934 1.229698629317339 0.901469865825727 -0.8171832308331926 0.9545852977651561 0.7262821356762459
Ni 6.401693724007165 2.9242776036976807 9.922446787010642 1.6502949599711836 1.0998336002144153 -0.8225120992452738
Ni 3.3966285664295697 0.6682329500797854 3.036973527281083 -0.32641800138547655 0.6422481999527777 -0.9548467789566586
Ni 6.302192824882773 5.748686297548365 6.650110162033767 -0.5538729565414784 0.10771199606669837 -0.8511958403332114
Ni 8.477909017997204 1.47562179469829 12.351465680521066 -0.5380537301210346 -2.430120833201841 1.2257142967703407
Ni 8.467650719104583 2.961980302228587 2.5911432572737407 1.2509337334587618 -0.7349133289886828 0.31065919588932306
Ni 6.254590637913786 5.441452545781382 8.965466183787141 -0.38912463638607825 -0.6983504422629844 -0.9227853796457398
Ni 8.98027125515755 0.7760076502751491 5.521914410171791 -3.263833172038308 0.5377968769152222 0.9372005266298052
Ni 0.5751483179040164 6.746703776449576 8.44426915784386 -0.21353114598605805 -0.37038180856093633 -0.37457219249320006
Ni 8.168642006987827 5.677503823528447 4.0252893235076135 -0.7746844382390335 0.40740338009060806 -0.3440112889872075
Ni 3.2034137367937543 3.4344048671049974 2.265789577552482 -0.17655354032044432 -0.2536213291387245 0.19466773342265184
Ni 3.605805861158387 5.421616767832958 3.4875833365482607 -2.3044514813257733 1.5653994475783684 1.1349857226355164
Ni 4.456195838686507 8.240238493070676 9.903528275788313 -0.37432305259687143 0.015202932992683495 0.5956197014609613
Ni 1.5985925776568302 5.555250661478986 5.257573228151254 -2.0140368946180995 0.27437578807725654 -1.868267429558047
Ni 6.991624112611428 1.8151852884461432 1.181695310660712 0.3390773420206999 -0.1864684854413111 -0.057121170493024204
Ni 2.204697037519593 5.592806155720851 1.1282371530682684 0.3452307632166054 0.683157793682946 -0.029954637380561314
Ni 3.6469402596775873 6.022946288569919 12.5331424539764 1.051063629899564 0.1357601604531662 0.5319766706890192
Ni 4.4468483663323335 2.959643434140044 0.42720892744351713 2.066407180689699 -0.5385455821557886 1.229733702342379
P 7.691102093067204 7.3111494225134255 9.32297572042284 -0.8665075309896174 0.4447645943478856 -0.47412119313313184
Ni 7.976908420510497 3.4205676639350404 13.186570332685777 0.04323258543639006 2.469014939163877 0.3799036320084425
P 5.303080514081811 8.642621417167243 5.8852274759029735 0.020397589819745515 0.2123085864328666 0.19892959402279933
Ni 6.179194441120038 6.575762795799443 10.829618978983138 -0.594353433154028 2.7828851857913297 1.7727812861335794
P 9.584655264892133 1.0656762502521844 0.8614836607610549 -0.26316732095594675 0.34371689767524033 0.003460704855090814
P 7.058758468682687 7.331399212524779 2.6695939430651126 0.39937176803538316 -0.055388246962317506 -0.3635943533254577
P 5.185859898663979 2.1209377970546406 2.575119150384702 -0.7954628084369655 -0.11750918466277827 -0.13487595807599995
Ni 1.9161214293886952 5.369892860770793 10.943699542910343 0.04585768176406296 -1.046982774961971 0.5426840298041944
Ni 8.970684575833683 3.334922368516736 4.784596647190936 0.26669487449323104 -0.4947013312773287 0.20741629133757183
Ni 9.061003607429074 6.189213533042966 1.7314775694823556 -0.6092609463934797 -0.022790772642270425 -0.07045079772239479
Ni 8.789374893074148 0.44919204795834106 8.089425858893437 -0.007175177592200547 0.5613785208899041 0.5341747067816026
Ni 5.3748426049898335 6.777175064281289 4.046806910458342 0.9924342502921296 -1.3163698515753846 0.22212300142012711
Ni 4.7521868628779 5.297514351902407 1.6008218026090113 0.5721465580396856 0.1934893968438345 -1.8577369623403683
Ni 5.227684317288063 1.1359294971975245 10.362823138108974 -0.9724007286800219 -1.1560219744805251 1.3970549254312778
Ni 5.394687583206322 4.04542227011454 3.7651085027061297 0.606726095786768 -0.5927452081266437 0.2559666894424495
Ni 2.5590361617800466 2.4093293998242356 7.680734310984608 -1.1538308803664774 -2.8227987341568155 -2.1507445065861988
Ni 0.7066459093053203 3.553741544177811 0.9216276531564289 1.7297399907723887 -0.38130591167260786 0.11528800864174338
Ni 3.275737044053748 6.25169255347327 9.3542023502627 0.7630388835803054 -0.7986941708900697 -0.8114902942134733
Ni 5.155995828524563 7.535681964642947 7.82053330426108 -0.8141431584552883 -2.5942037518591 -1.4675376048328725
Ni 1.5058078742199845 9.35814466512861 4.3900293508156985 0.6292674714223937 -1.829335785489856 -1.3103737818929495
Ni 2.662796785018594 0.833850655627434 9.84919425267607 0.07248891119834612 0.0936514042085742 -0.29533644948932364
Ni 2.7757392757861417 3.7391269456902 -0.6334347761770406 -1.9634252431088186 0.7703071351069443 -0.7234212691886831
Ni 4.869628284729297 4.566663457344535 10.94193493149545 0.2369073588181533 0.5743857317828495 0.1825619512980533
Ni 6.162275148148262 1.537668402529533 6.215657863542572 -0.5765032923464846 -1.1212038383600755 -0.3954878595999447
Ni 3.7885047843957573 0.238539950258683 7.555894953582039 0.9428435838481957 -0.6993398027594472 0.29380972843215203
Ni 0.13862319901774775 2.8990596689311565 7.220913193330621 0.505563213692497 -0.9208979328150398 -0.6091017951077962
Ni 3.8122414760037957 1.0614809280144848 12.475442972805931 1.3529203970059087 0.19736944862453104 -1.0020653456239903
Ni 7.478870309340763 4.7641748121667655 11.239563603402436 -0.04090393730321342 -1.2162490375923827 -0.5413342006445193
Ni 8.494993915794153 4.632712181784109 8.827471363078242 0.4032122248273959 0.4186568415172403 0.5054436573954972
Ni 1.4791270968311045 3.5415419887234467 9.391030103300613 0.48632159185406565 0.2849257956789609 -0.49902489835334696
Ni 8.11444322781614 8.25882303456224 12.08350143293648 -0.6488474504368502 -0.1233144784906457 -0.9530608907008296
Ni 6.913707042367833 3.340626534717117 7.425791202792603 0.09282865119696271 0.5236753499121756 0.450619767577082
P 3.5227274405302547 5.5832010758608535 5.935077288360272 3.166214812762186 -0.9817906545353542 -0.9903724826670943
Ni 8.725166222247598 5.122718458932984 6.37005400213118 -0.10347970315290565 1.0803168703377266 1.147737622984546
P 2.0773837280343104 8.104516138573864 9.092782253352842 0.6037644420552827 0.6333413843814512 -0.5404466558332434
Ni 2.4574008004645447 7.003363654662535 6.923998462225489 -0.26559855610525873 2.029532676260853 1.2874169159864601
P 4.7200503265263976 8.332618384712655 12.099458377868643 -0.762550373979661 -1.5167726877096006 -0.3110412618190901
P 8.509999553008381 2.438678254952004 9.115875846223128 -1.200085797568959 -0.9801214943630474 0.17621312626189006
P 1.5363711647323495 2.021547301147031 5.571036481425138 -0.10923357491754734 0.8318958544530188 0.42203244285769254
Ni 5.367785999383878 9.005700796089572 3.701241161824797 0.9854105106761287 1.1482886103920096 -0.22332139260360248
Ni 6.355213969742124 0.03831727643765743 8.328667789605488 0.6068171128386775 1.269253614813872 0.35695370808048843
Ni 0.48203884500447164 9.023383711310753 10.5407977236949 0.030754507574037353 -0.5234673476664274 -1.3537338940461396
Ni 2.7980039245037585 3.625411632405181 4.6181628778659105 -0.1762717474139674 -1.3560273180660065 1.2148644985400303
Ni 1.0731928692613963 4.739637697237062 3.1030084513185603 0.38608045024311577 -2.540826364679224 -0.4361624545011714
Ni 8.636181229521652 0.4228029190671259 2.800976531115602 -0.17063614639474484 0.42299223566780053 0.9769922047054463
Ni 2.307813641993581 7.752375878380976 11.371862538152213 0.6642918100163785 -0.13750233995525354 -2.417285372000069
Ni 8.188707791637878 8.267563289224116 0.9398763848636161 -0.47537254904172965 0.414857265265492 0.021171234760976442
Ni 7.771540036760644 6.1032830293146425 13.174236453317661 0.5919283686523032 -0.5601019681703256 -0.032894693845491735
Ni 0.6895784920176958 7.2029082687271595 12.946009083533184 1.0669119097857303 -1.0698139139238736 1.198394011688833
Ni 4.7577898261295655 2.164942679210162 8.358171209236751 1.3148667846672968 0.13970706091605617 -0.129631421847609
Ni 7.487684166147159 0.6045735352567247 10.337023746400735 0.1397425421396819 0.6340643785904049 -0.29939545005004564
Ni 7.458252508606805 8.13753590065962 4.724432414205819 0.09381826880374167 0.10441609892424598 0.13710510451683483
Ni 1.3955978630677806 8.408713801879355 1.7800614250538929 -0.3888035056012336 0.4303080526029234 -0.27203299887669274
Ni 6.381029921932881 0.2471192002294176 12.754838553461441 0.18711486077605838 1.2583210270617684 -1.0250193833170025
Ni 1.281459337451766 6.894368078894928 3.481201110591479 0.35580802451181953 1.9782743923065091 0.08510120064571797
Ni 1.6239577167123962 0.10635509883291393 6.9471996982321365 -0.6329660033199035 -0.32682089325085 -0.03757281604745142
Ni 6.025568364968481 2.583932087164291 12.314287397269869 0.08439954659300304 0.2876951308939819 -1.211513065569294
Ni 1.8937463774542964 4.599149603882512 7.193201065891641 0.5036102037311843 0.09174081744942264 1.8164301331717814
Ni 5.129600259445702 0.4657102092424772 1.1408424403443043 -2.00499278213796 -0.4868530388775035 0.8420172591577371
Ni 7.010125851690406 4.271951270414194 1.8728387682762866 -1.6167955426621574 1.9659176705133692 -1.059899225913323
Ni 3.2997773445079357 7.9299410520380045 4.711693723042839 0.8402370273288625 -0.5327264043708503 0.6278515649114735
Ni 3.6752034831736697 7.517971448617569 2.2774775981024242 0.11607270932656784 0.17371812775417825 -0.43257730825307433
Ni 1.3407734656676653 2.0687814773934132 3.1001398077358524 0.4006907439571228 0.5083428333201633 -0.2746573238734173
Ni 0.077136887511671 3.0167862990925727 10.983840312478508 -0.015247413077373742 0.7215621044927574 1.4886797861281265
P 3.555517195914381 3.8650878157699076 8.709500005786293 0.7369450147067308 2.6337658304224383 1.5170189993924519
Ni 3.5504110471382333 1.29579335509724 5.318073270920749 0.9030339080504255 -0.10694837842779646 0.7156444534567417
P 0.26607451252400693 7.259931530194842 5.541398737880125 -0.41508480789526575 0.8493500453737244 0.24195366299280913
Ni 5.924236612499129 7.456375653921517 0.43956212737456846 -0.908181770799952 -1.022321267659549 0.5927477792298049
P 0.6214578672098532 4.877641718214027 12.570684147816165 -0.6886381000712269 0.1738888490040876 0.7567206546717613
P 6.009348292369655 4.9002283763139225 13.122367182020065 -1.215177658905075 -0.7559207844782851 -0.1722816524179678
P 6.94509835700606 4.198349125893146 5.339442733555629 -0.051511023395098374 -1.2297846101849723 -0.4800522139055861
Ni 7.82564681325168 7.579723647870729 7.154770626156782 0.11380653900021044 -0.005785753443841649 -0.42522112499831927
