# total energy = -340876.0956368833 ev
CRYSTAL
PRIMVEC
9.20091409149987 0.00000000000000 0.00000000000000
0.00000000000000 9.20091409149987 0.00000000000000
0.00000000000000 0.00000000000000 13.46646781555691
PRIMCOORD
 96 1
Ni 0.7108837924608506 5.949798764030924 4.041017590091742 0.7421373575409477 -1.7725840825211086 0.6434974989788466
Ni 5.992012558336948 3.288866777395069 9.756469069690569 -1.0783736305684268 0.4445776751480601 0.1318893646438503
Ni 8.886813381866991 8.369482780591806 0.1461418004534252 -2.261407614861422 0.6740077517525617 0.08890797598631785
Ni 8.978132455207728 1.3237723282443368 5.206688769617838 -0.17276424848134117 -0.3589853937985366 0.16009128099936298
Ni 7.73382842282676 6.856410843792073 9.912087811760214 -0.3293719418074779 -1.7824380924970529 0.2526353110763713
Ni 3.9528599508668627 4.60191083969328 9.47200348557139 -0.31160279074951497 -0.159447476767777 0.17467432101986047
Ni 4.407633536560823 3.741110111686641 5.616729350700415 -0.1102584166376359 1.1143521055455647 -0.3842379977177382
Ni 7.987920869111673 6.915480712895099 5.017888770702988 -0.22545617955841818 0.7351447282731984 0.02849733610874447
Ni 3.18338749711515 5.640307613404996 2.9944172812877747 0.3560517650915094 0.6756514580035718 0.2900587460301521
Ni 7.190017590511308 5.009088096279772 6.770482586075554 -0.9564429197991849 -0.27352243893802575 -0.048517487984413216
Ni 4.895999659964307 8.306392111987531 2.9627302529071033 0.6137920014946138 1.184495913550502 1.2034164046040887
Ni 0.42040817119243395 5.957205499954278 6.6650667921035485 -0.9351840104204088 0.16674401042919024 0.23777202081129375
Ni 9.06425301203083 3.4158761968807636 6.83011187076136 -0.5580021482185035 -0.38561456635029073 -0.49691633665077645
Ni 4.250849958754663 7.6106833873010755 11.946050183535435 -1.415930679289858 0.6649644106033709 -1.145730105636214
Ni 7.321673471663207 1.0588228032146307 0.38548978174805837 0.3695413149375119 0.3259135509452322 -1.1476129244812237
Ni 1.887135103214606 3.716893305537239 5.577501253049207 -0.25657244134724844 0.03989503642272484 -1.315275075849309
Ni 1.3175433093373665 4.876926164847395 10.39150788629627 -0.29613246302805774 1.6971006074708126 1.0796784654227793
Ni 5.584356854212551 5.556275664103137 10.92589790257207 0.36280451043431067 0.31547795743420504 0.3244292530902219
Ni 3.8129508496860836 0.9428360789291579 1.8775891547419596 -0.48118041397275835 -0.9811080266460328 0.9163627639488476
Ni 7.316300137775953 8.700918111562082 11.74228857805541 -0.6694509856198149 -0.1723544146374322 -0.07484892679009045
Ni 8.430880480985028 0.31497949594056257 2.966837541001744 -0.911327001297153 0.20696197740897262 -0.11631619279594162
Ni 6.718203911736538 3.6980130296183282 12.829652617088978 0.07383076993822124 0.47623052616665085 0.06297917193569799
Ni 6.971284257460496 0.3319082579596679 6.551921310120103 0.6008218144871911 2.4341602933785373 -0.21095387217718506
Ni 1.3510254360766047 0.1640835831249048 1.8899515030483187 0.3961674021654725 3.856654741928842e-06 -1.4239928874727024
P 5.951776960581881 5.8645798967984915 8.605126473833343 -0.32744310021588124 -0.33511475782852607 0.5035276713197069
P 6.568735060711826 0.24990327005397747 4.180436282546167 0.4332421955305829 0.23361994631613314 0.45619211945853694
P 8.220759203616526 6.649095845251674 2.7933359021114406 -1.1867638836490724 0.3401420358397884 0.4722044357263932
P 7.48877127427692 6.413754862087005 12.091918716837403 0.21689903401702648 0.15758445541710925 -1.6626251994017622
P 2.10644809385942 6.853705775020066 11.224570618292804 0.5822839035840036 0.8757411337727433 -1.0651820715788172
P 8.852411163708704 3.60353804271025 4.520033744494838 1.3466070531933712 -0.6821992864244186 0.42597291556267924
P 6.37557106819642 4.061320327344505 1.5305987582412204 0.8696442768463861 -0.46523623193867614 -0.6312711321159837
P 0.1763548423807778 8.192503196137492 6.360454886272844 -0.988366250870343 0.09798628413850222 -1.0840351997295783
Ni 7.343820072119747 1.9335629162198809 11.399594088390215 0.3111965564500318 -0.24869355281980393 -0.636690246249026
Ni 4.924761717723817 0.9873685036111894 11.905569841462903 0.40264941034539037 -0.059876364640658174 0.06217698774937679
Ni 0.4222189111051248 6.158079858561326 12.445480406253 0.3371202182943291 -0.46882240662803776 0.6019191613164279
Ni 1.162563110712545 4.503589870653572 2.2500449214477523 -0.9080652998267459 -0.7791653568285226 1.6442266422899168
Ni 0.6677627880156423 6.851663172069775 1.5037872942900965 1.873390352606909 -0.6629247544655229 0.3237427685461585
Ni 7.1355113748467724 4.746567612596358 4.017114535116235 1.1151535184009376 1.250516186305369 0.07549401657325708
Ni 2.3873244013528856 5.32207559429809 7.870356188042529 0.004817218882985252 -1.3597783004680064 -0.5819152073906753
Ni 8.052796515068906 2.8863267815605904 2.478072097922391 0.23143682262188525 1.3528957144155604 -0.23240947094779973
Ni 5.831005760917348 6.102662752391931 2.496899008538997 0.3106414552775102 -0.26422918656155786 -0.2886312695550061
Ni 2.3979054526719636 2.719109367062401 1.1073364634668925 -0.5067693181854562 1.0921933100603383 1.0983523876831986
Ni 4.608480292425298 6.113041383598816 6.800337712440895 -0.3850774628998981 0.008961065848029729 0.5193862356185184
Ni 7.743995433007266 5.683561111014547 0.6155862438241415 0.6885470830193174 -0.4900502056585625 1.6787624712832572
Ni 2.1223288717522273 2.8878081287452617 11.610653859006149 -0.10189384672302453 -0.12141700435761671 0.3311951110591457
Ni 3.6378206489840617 6.990523369032836 9.074177118076706 0.5514391502890051 0.6684246012378294 0.9614131193202667
Ni 5.79991587186764 6.708579755493273 13.27730469519949 1.196162551255153 -0.33597916271135037 -0.37504733235740567
Ni 2.251298085960499 7.794950095794267 6.743293884642618 0.3699804593574596 0.14797624290338388 0.6985774706721259
Ni 1.6198117423237504 1.698415152253212 6.768717850733815 3.3371432935863683 0.4100048222691971 -0.5523320944169197
Ni 4.671037308006524 1.5661888144215026 4.3907415781984795 0.12692122200529754 -0.9863080827897335 0.7676105621113877
Ni 9.197353436710637 0.7086801735122253 7.712448258522289 -2.4454847172524206 -1.484771709322972 0.9044747542620101
Ni 0.4099347705693851 3.9145381432634205 0.1457498415089098 -0.8631681822037394 -0.28842635263305166 -0.9433254085806206
Ni 7.738152852496296 4.552106291180091 10.461776188060558 1.6035109097381095 0.32002392493367465 0.7599134505774461
Ni 0.9381712154345733 8.237817698525717 4.0406274713300645 -2.1910887147312006 -1.8023867677048375 0.79806322217429
Ni 5.180059483767686 3.806252584155398 3.2311577235008193 -2.1736309242660696 -0.9066707334720643 0.21122409511943624
Ni 4.918293475047895 8.828672805097208 7.795913431510013 -0.2316507384049043 -0.9217409975416255 -0.2682025693870091
P 3.243239443924368 3.1732204869346448 7.83821187422659 0.7779168291334022 0.8971262843167388 -1.0603437696499094
P 3.0859038112667774 2.7288991397610958 3.5697725278139445 -0.1562397684637567 0.8357777060059284 -0.4906924672282516
P 0.9024827094724527 1.202421470985801 9.602453126872913 -0.2769486910107553 -1.1839554676659996 2.2389135475239637
P 4.50519082972272 8.890410939315478 10.085280299933714 -0.06869396293228815 0.9560336001759084 -0.8362430756781212
P 5.270026022722418 9.061078696635105 0.4366450244644134 0.05209260693018125 0.8343229758372728 -0.601557664211951
P 4.69331272126173 3.460371817906033 11.86491468202075 0.09628935605205353 -0.8159958953933107 -0.9883981325495429
P 9.102666828776178 3.2573628472067893 11.632577797339279 -0.05125108486549238 -0.1907825394356327 -0.14177808451247195
P 0.21351457452195968 1.930581820022158 1.0989765128334021 0.26228671812320636 -1.0289143474960345 -0.37015915102716895
Ni 4.447372284949602 4.774943231959868 0.7260514995038938 -0.3926681307629625 0.693366873005464 0.6644219078363396
Ni 3.70500572440311 7.673387617509349 4.8368055785197095 -2.303210666940137 -0.679878608711042 -0.5826063199204289
Ni 3.3563462820682135 5.15851094273353 12.189954457537205 -0.6474994210493881 0.6569124868331719 -1.141203421410454
Ni 7.354410324353014 7.413894234594612 7.403406112508859 0.21076438187419833 -0.6595704932813092 0.6326664698016137
Ni 0.31420385887430324 8.252235531062235 10.945679868081648 -0.046970969432899745 -0.42800074462598553 -0.6659635412918465
Ni 2.740593501697224 1.0503303594167972 13.124001823231598 1.0086088031694629 0.20625209582614157 0.26088366712809263
Ni 3.741744974765786 2.1621320265403403 9.896682721131054 0.635444289657067 -0.30631994508402083 -0.061674337081345385
Ni 6.853162921082826 8.171175477043908 1.6974352548919234 0.779022146382439 -0.0912520507384622 -0.6283732417428984
Ni 2.532441219965489 0.2597151249467292 8.707822477570636 1.0356244125263583 -0.648652817927541 -1.9591564405301354
Ni 8.365185953664842 2.6723963257172203 9.094956462684536 -0.4594795319605571 -0.5908968420639953 0.12762467583022535
Ni 2.2551992735772717 0.6142143875183376 4.214519228982045 3.725359559225564 1.3494573781579726 1.5345552085040024
Ni 6.267846764854019 1.119502832300994 9.057560267048657 0.23012864533342303 -0.5952111531686329 0.9243182713504984
Ni 4.11527448815761 7.292672190134743 1.0250324458500109 -2.338950286433591 0.07758818009812443 0.30567074153579615
Ni 5.798765757593827 7.861711929160553 5.589244379830546 0.6753236423505079 -0.3853857381689363 -0.7705310781922924
Ni 0.9823540053773656 2.1413287595556145 3.264083194931532 -0.3825649808906895 1.917969681879181 -0.34755504047440794
Ni 1.095111208781972 7.013985700218617 8.93389722005405 -0.3482636365056582 0.18247042002551156 0.5261130128193907
Ni 2.502455440618642 0.074616653810717 11.004003543043824 0.15547563660422256 0.03776076368854142 0.06571251170646102
Ni 4.728607428096498 2.4894637497816525 0.49497606015794127 1.3521750341994518 -0.15350282914856792 -1.2396561036624134
Ni 1.5734207329752372 3.1299485874967123 9.059633233015779 -0.2552076997892379 -0.8644002548386275 -0.9202322742065829
Ni 6.746883161268334 2.6519702962143055 5.184320427129308 0.12686851439049118 -0.4782367579634022 -0.828672719530031
Ni 0.4755455695704383 0.9961185730063571 12.154995584070392 -0.93297106192949 1.4660533069778623 0.4936276385971757
Ni 1.7901114630757586 8.238572173489338 13.104637579226265 1.6046241974069462 -1.3891161302001755 -0.5192044586250155
Ni 6.256069594690175 1.5700900020382753 2.376629258697846 -1.6635932197419865 -0.9848595232686651 0.8305164576069891
Ni 4.9686408774983235 2.1265152877089055 7.274330167695976 -0.5813590777768891 -1.605475232553332 -0.41984032030238017
P 2.1836161611751637 5.1731219944680475 0.597756712305786 0.8131514839659801 0.4897797256059952 -0.036317603484111644
P 3.628858958562512 0.42132642242864604 6.202331655360546 -0.7752562515821035 -0.3527085596508893 -0.17809337400373845
P 5.29569657331392 5.836820738685745 4.695515420118936 -0.15076511850243068 -0.40586380351762996 -0.10650332047057787
P 9.17576809201972 4.770342774864616 8.601194923199742 0.33314734968951015 1.0989663671181138 -0.010700674246955765
P 6.96456759010143 2.754201653784977 7.252649133497477 0.780251905024482 -0.03248665977379566 1.8627683541166886
P 2.4023034896550235 5.793880072158671 5.681421898465255 0.8106006925196685 0.8867300286840794 -0.6485198918941024
P 2.725945646305944 7.875715720558497 2.6185820187998106 -0.23267043791867026 -0.4140399115705192 1.0513150837887377
P 7.668593941216098 8.708058020973912 9.162032967316136 0.4543352687554562 2.137032042096113 -0.16838308869451
