# total energy = -381168.6668025545 ev
CRYSTAL
PRIMVEC
9.21070253820248 0.00000000000000 0.00000000000000
0.00000000000000 9.21070253820248 0.00000000000000
0.00000000000000 0.00000000000000 13.48079419673825
PRIMCOORD
 96 1
Ni 4.390833932201573 5.100684343325549 9.975935824797922 3.0959154530159907 -0.4463838751188635 -0.07312320234823536
Ni 2.379806017072537 3.6857730863158853 5.0181582921293515 -0.15778628701527017 1.0564770876056515 -0.4614322848115537
Ni 5.6372906533591784 0.8630317602873209 6.205088085936928 -0.12535927683481637 -0.2272968323115827 -1.0224565076858327
Ni 0.8267913306977585 0.12032953697987155 2.8784329169070095 0.02907377743750477 1.200267831672778 -2.561001811185834
Ni 3.8646541372636034 5.295398591666766 6.203066336764226 -2.0120165217539605 1.2763053794543309 -0.9335441608241407
Ni 9.181108394574078 2.0067817813312447 2.4537467725791022 -2.1359629774016504 2.8630264713286113 -1.1243655239175088
Ni 6.019912440981812 8.89977670103888 0.9825433868957306 -0.3174523075517565 0.6601523339267082 0.20788551766450647
Ni 0.9248650475136337 1.8283152119906863 7.437044398335613 1.358041520282558 -1.4769311302326305 2.0901801147395807
Ni 8.543138304833965 0.7151935395753832 0.5881954540714321 -0.7849253992407513 -0.10420269736185926 -1.4993588631085273
Ni 3.527837172583301 8.901020145860358 0.5387137187384765 -0.416294769042967 -0.9589811128400064 0.5547802988470961
Ni 9.259334889898673 2.5505816499246894 11.311572408551998 -2.6014473207953905 -1.2106381191635087 -0.02127716421122142
Ni 7.4504542599325845 0.1552998107110492 11.510966614773164 0.7234973738422571 0.1856526744082351 0.3271656781847785
Ni 3.112784501876021 -0.03309681686681611 11.358310275645556 -2.08539580597706 0.09003823293601912 0.7657259434941651
Ni 5.555168030927282 1.2374302328239069 3.810414153080455 -2.2159463972048288 -1.1084771348220264 0.8450822712363059
Ni 7.478666641326583 5.491079963758021 0.005466551863316551 0.47518151607684617 -1.3058468405568737 0.3419469502590111
Ni 3.799479207213346 8.70226239917374 5.357833337758579 1.3979237011894763 0.48534225865993186 -2.7482159165439186
Ni 6.8416820967412715 6.805078765477885 7.110863031695026 0.70094879911778 -0.175365176439298 -0.3827472721048247
Ni 2.6122288809628995 6.469468402809535 1.3386742733994343 1.218385624319411 0.3504932971671254 -1.6333233651138517
Ni 1.4112638188666589 8.876740734383185 4.8791844513892 0.3886476967496597 -0.07288923196055834 3.146571327499645
Ni 3.0548676053022477 0.5172951514209427 7.206886446160818 -0.34818958873461325 1.413527212054688 0.8345376629512401
Ni 6.375620556246212 6.2437232981456345 9.436569067260612 -0.10530775750057993 -0.7457574707920382 -0.18982197529457634
Ni 7.843972308472326 5.159946002446996 10.934972578146274 0.2254687779639085 -0.20159968465579475 0.25337527456618947
Ni 5.635872205192454 5.306027742214815 12.308558176781645 -1.4082628783319555 -1.406320924114236 -1.0531837615663602
Ni 4.858231024541924 8.267084343763266 7.5783761788853825 0.6191026150742499 0.8792820570464663 -1.8641534073896733
P 6.675502604377401 7.509034327077813 12.515097124840008 -1.249044743966165 -0.24403625655345068 -0.5196924540050275
Ni 6.7993773407038445 1.9020376738508136 2.0973819342349125 0.8145928443981971 -0.1085072382744841 -0.824202085353187
P 1.5214790835615972 7.2577847875200225 8.620576364034719 0.18699736136158762 -1.031282847728211 1.066467366049144
Ni 2.1674532736710828 2.6442637038451484 11.812140924448453 -1.2478823482269474 -0.27039957703832784 0.4099282033949908
P 6.77412159477425 1.5202724815496436 9.769895175738393 -0.3400484476847176 -0.20025371215086157 -0.7824851652303749
P 4.729566722977191 6.260661779824892 7.9470630948753085 0.41463126529761496 -1.1413738855500473 0.25209923606724327
P 3.5551837479534556 4.401776246630587 1.4854753690232347 0.6148662083953992 -0.5418900731479894 1.7720279529073224
Ni 4.321790507151158 4.346438346723585 3.913501255202486 0.008603168287978732 1.2209703543274522 -1.3894184919319426
Ni 4.684379017094409 1.5721287359565048 10.637842687886627 -0.24469985827937854 0.7569224862699222 0.24854288617455259
Ni 5.9971804275047 4.6052222408293 6.182534760086014 1.1976537910886986 -0.23078684774271221 -0.5100875839254118
Ni 0.4237954694076336 3.5371399819884393 6.204454389613093 0.3623936481491372 1.2130022485203111 0.8918704352344382
Ni 7.616164006475008 5.6380367202520665 4.737002523009634 -0.6316205450356025 1.928551828270401 0.7089490437144371
Ni 2.4480020575038695 7.445950226468116 6.659511903973182 0.6441590438222455 -1.0528901415853416 0.7796687788275024
Ni 4.343242232997265 2.9127004140464923 5.823931721063164 0.6442017241347228 -1.8594768278496103 0.23304581898021803
Ni 0.9859688471113456 8.043687968206601 0.7611798133546259 0.5632184023121203 0.35967933454176765 -0.6737665822760331
Ni 2.100463835251704 2.5255193287451028 2.389875156915802 3.2595432864137024 -0.3632588243629099 2.3464568792232816
Ni 2.9728186684894022 4.7245008366674615 12.988529069380604 -0.3999767486092337 0.4312753016121992 -0.20127881098126627
Ni 0.7504152654815711 5.945480755038322 5.638342515571126 -0.7256858968531438 -0.5372618303473586 0.3637501621770316
Ni 8.222587440559082 7.6002755448672215 9.45490297035064 -0.5696297051551028 0.6398046235082917 -0.12663685799565932
Ni 0.9321046595853553 2.013395065641036 4.684899421778955 0.9562901962714048 -1.39612367186626 -1.3724754363197007
Ni 4.961925111950884 1.71088796733117 8.318323481110577 0.5153971690637834 -0.622391827348483 -0.02956382970004586
Ni 0.9098976561439801 8.416500357793122 10.316892079128394 1.5286784380082512 -0.47659665125681794 1.81038469830865
Ni 8.852627115548875 0.8908011068967784 9.571201903968442 -0.14665572431974744 1.0536838411312306 -1.1784875025728931
Ni 2.225876758875829 1.0869641987225773 9.449214440559933 0.06083101524444362 -0.07833097180141993 -0.2772942472756321
Ni 2.7992706142204713 8.172223319937995 2.8963081270184476 0.7671691036985949 0.3368703070670521 0.16266932613918436
Ni 6.523664175621254 5.507069743092001 2.64677822559525 0.5316658243168199 0.6164392093094739 0.47859619818535
Ni 5.153885360280084 7.811900642780551 2.8244554377417295 0.027155991589501615 -0.06674583806698181 0.635388496718467
Ni 5.810783443413821 8.562241301572833 9.67791618068824 1.2859614144868563 1.8644588544452343 0.18302886363214282
Ni 9.194491545134145 5.981006434123094 1.942232257972679 -0.7861446163598332 -1.4011141831023162 -0.24394112573648308
Ni 2.686559249180194 7.063356070952627 12.446520682400326 -0.2994867242122713 0.6368563395132452 0.10576849918708237
Ni 7.1939730414222005 0.040681830277837484 7.745753983629063 0.6141686681077422 0.4316735654918824 0.09242344533874405
Ni 4.849959813803494 7.128871796990994 11.11076251737482 -0.24118798847137815 0.04628859865389448 1.5193643596961768
P 0.6871248451385327 4.561158240637039 11.208524912450207 0.9876499415296086 0.8644851012429499 0.1551560484812747
Ni 6.376025827150991 3.4058966837569353 3.920497704731341 0.8424497187094654 0.3029525712736847 0.6507642078435889
P 2.282402839390022 6.797728624977588 4.496505557411803 1.0596919949985233 -0.029127513493575643 -0.2675515660665715
Ni 2.475772325183565 5.762436466614244 10.396604260747099 -3.6204462089499256 1.1277619511935675 0.6776744019708716
P 8.128868543829098 4.744736749799233 6.705603179759572 -2.2827845378753007 1.1270880650549944 0.4213909526189517
P 4.157314994727833 3.623435052599076 11.611749199159389 2.0318826645502686 -0.23232976674979985 -0.654577410942092
P 0.8151213707806193 0.5225903842199666 12.254378983234213 -0.46652435462248043 -0.712353955630928 -0.9906709877441195
Ni 5.086223540586869 9.211991879658662 12.322605418983406 1.5538749918785368 -1.0863479070231548 0.04464823483699407
Ni 5.269442832356191 6.4049382219259705 0.9059960026152507 -0.9035707543905018 0.7371761568809304 -0.4058352642725398
Ni 8.869031376490016 4.01349908774582 3.979665414688498 0.899566004106483 -0.760261063724852 -1.6546879468325568
Ni 0.18295770782169274 7.3706435237984005 3.52815309967498 -1.2113744831089008 -1.0174418280800608 1.9453658145039465
Ni 7.391192600811137 3.587365942073806 9.023329062781977 -0.4675386548196077 -0.1484058742416347 -0.22224332904807528
Ni 8.873397249418764 5.5772552952377 8.51264995888154 0.10389030832776303 0.25295438497868694 -0.04031386912769831
Ni 0.5907615557548694 3.392633272327827 9.144413877357117 0.17298896289763757 0.37138119635972816 0.21649511371038846
Ni 7.24706352994816 2.5363879575550667 6.744993669563548 0.686218949106773 -0.15764847588582528 -0.16994194854119765
Ni 6.632912316566152 3.000791571621487 11.361357175993298 -0.528268882820129 0.5970312370965073 -0.5446036154244105
Ni 6.769442557964537 8.364690156898169 4.594631775231252 1.2907045855987966 0.7750184245396846 -0.5747230605176101
Ni 7.881146703283354 7.4837877918506 0.8155957219532575 0.18354771225009034 1.396357642253937 1.3394413886828676
Ni 4.602191919745844 3.9602151744698535 7.970600123740548 1.0846694908794674 0.14726327599675929 0.6937769639596891
Ni 3.549113895084162 7.976634054870553 9.38627218476691 -1.934981385945829 -0.2749895104018555 -0.30124741565711993
Ni 7.931980569725888 3.116542468447602 13.305826713574401 1.5392209894107878 0.16065743791547815 0.19239050735270094
Ni 5.347632484871261 6.744684189963535 5.017942761693628 -0.6687711859439708 -1.078678306293039 0.004920577230068945
Ni 1.929826362935272 5.189088664781509 2.942978755984623 0.6325633685648461 -1.1900795782858664 2.930732616426333
Ni 3.7786906519386947 1.9736508848656176 13.008993407931431 1.4946218626441745 -0.5520842400721717 -0.1672960262779183
Ni 7.936834609880847 1.3991056917233096 4.356777360146623 -1.509803455480619 -0.24136950835456497 -0.21055869362129542
Ni 4.327381403496623 1.8026265630491698 1.6007095454457572 0.581570936677379 -0.0872555279845594 2.156528460257828
Ni 1.6525934319597624 1.2972997983025212 0.5190847908936342 0.4309217749275224 0.24784251767341833 0.18362021735923859
Ni 0.1785448603107998 8.073797754291153 7.252937194856731 -1.2293392951174376 0.9719379301109906 -0.8048193099512011
Ni 5.766848393054899 3.889891461788435 1.120753660408469 -0.8643755722482791 -0.23332581211448203 -0.530228577649661
Ni 6.185281391536126 1.7877052251914232 13.262027981610723 -0.747402462594629 -0.5964170005512761 0.10228311174164322
Ni 2.9241493171064796 3.2692190711204496 9.814436290314005 0.2733563456738067 0.417220623291346 -1.5473338483259094
Ni 2.0861688251558874 5.12445716617175 7.948694310267041 -0.3729225727049191 1.3243076183652223 0.03283915801720796
P 8.037544429718258 4.079972726831845 1.6996048569140467 -0.5843983788238452 -0.1397731382673012 1.7383192478009675
Ni 0.7208000941148959 5.585793616345189 13.326236708981181 1.1709104615565835 0.01003270164565369 -1.8588445935822502
P 8.946852600909834 0.8785950841010461 6.118487220007231 -1.6550175622578336 -1.8197409427125695 0.061606202847571324
Ni 8.85336397173938 7.06727061946469 12.165216620972272 -0.4893485516058475 1.971118497988018 -2.040811591608782
P 3.142535070567702 1.4601450164043521 4.031175346685822 0.6717495518460045 -0.3045050033624691 0.5819743427633848
P 7.849019773377292 8.965283216374864 2.454879688972005 -0.5511180195041604 0.10963646678292086 1.4591642931675126
P 2.7079188680024875 3.194759753069816 7.592248417741897 -0.7207833173452038 -2.563126313728005 -1.081773400278595
Ni 0.9476339038002698 3.9016903715389124 1.2331758093939729 -0.5172373075963156 -0.6205935977974795 -1.2513751918715545
