# total energy = -340858.31126525044 ev
CRYSTAL
PRIMVEC
9.33609954868002 0.00000000000000 0.00000000000000
0.00000000000000 9.33609954868002 0.00000000000000
0.00000000000000 0.00000000000000 13.66432539690073
PRIMCOORD
 96 1
Ni 2.8330860396884283 9.327211421062911 12.744934274117186 -0.5069719211145657 -0.5747014632510554 0.6093717609397311
Ni 3.809324608260574 5.272954245366551 5.031068047160967 0.6082731285589137 -1.801407177400388 -0.5726183554697816
Ni 5.379740550162836 2.4964636401662395 11.265908475510985 -1.771531215776562 1.024450655297726 0.45857938874379084
Ni 5.4056762342618105 6.059436593884101 1.7369411458504935 1.3126389237780425 -0.9208372547804334 0.5661342904073347
Ni 1.7896088833262125 1.9086628227179079 6.336038144052835 1.4474428909655266 -2.4881454893457406 0.32534148049184614
Ni 0.10727458279425929 2.6094211066577797 2.8939676774054286 2.0840426343832754 0.6303964428205142 1.5754306065621255
Ni 7.996126386963824 7.919579708084236 4.714643365054085 2.0153358159351806 0.5352216599888783 0.23721563408719146
Ni 7.4525320001161575 7.738907512733853 2.566870900088489 -0.15395122953989615 -0.8857481243867842 -0.22851399254813548
Ni 5.051333918101805 5.893748838050945 7.198598499260711 0.7263692960734135 -0.8461032563016526 -2.2063225009618197
Ni 6.026386802051714 4.503052809361522 4.875089834690999 2.423429280114278 -0.2585871577844321 1.822077561265546
Ni 7.99131829577917 4.289442855371404 2.429517272287003 -1.759368355161783 1.85848798157378 -0.9601383663729012
Ni 2.9090445443065933 6.480093223994798 6.667712410899554 -2.0600786673685105 1.6812034766245818 0.4937561937552399
Ni 7.047625369672477 1.1757790207850292 10.31476160765317 1.568593529035634 -0.5823263267861649 0.9176884247388066
Ni 0.25511078298823303 0.2838678363221649 7.381427333569648 -0.249091559589171 0.669899386011143 -1.0419043319977992
Ni 3.6166648612964094 0.6699220812723036 2.7855139452585056 -2.3372734129518005 -0.6881141092469568 -0.11927270432110428
Ni 1.776435647090196 3.0775611382542167 1.385043020510182 1.0781915964646076 -0.8239974255415486 1.0908339678189665
Ni 2.7224159175468703 2.157012402529583 12.06404134245442 0.11336045260172734 -0.5250951130778376 0.14341767699842398
Ni 1.490358889652906 7.8918795012009895 9.24858932728944 -0.14290062815268936 0.290696379614151 -0.7081394033289482
Ni 1.4493547411422156 3.2734325034077427 8.272997750404862 1.8440769483547723 2.759096053791532 1.5602240740250162
Ni 7.901262281085608 9.019026780275594 12.201682522117046 0.9665388705826063 -2.3831912585298376 -0.09200435552345446
Ni 5.35542001125793 7.369179304782951 5.027283192469202 0.54977718920555 -0.5362824971532248 -0.0050982404585138
Ni 7.512647144073428 9.281623247752869 0.8805034046210581 0.6453101267075532 -0.06868933494659783 -0.339605446610028
Ni 3.765640999225619 8.087396094577784 9.437962767269141 -0.4418237665520068 -0.8993428323520835 1.980969679750485
Ni 1.1645850376192008 5.701938676131059 8.212573581557859 0.3018043166018544 0.13802453100731069 0.30562857544395106
P 7.664050667843435 6.377097375549913 12.832823380142866 -0.4137930856670357 -0.2857827443626175 -0.7188629603940393
P 4.7742198160766876 4.27356215031296 3.340790593269976 -1.5824867420779585 -0.5531399350301958 -2.1576970266446325
P 1.6000207130605952 5.078903419593624 0.7559626396192235 -2.9550987039755237 3.5348526420488215 2.8934973862239586
P 4.7401337172122675 4.425936628419286 12.671256578579431 1.3472935377374344 -0.32570683425106484 -0.440474451612964
P 7.86902472989995 9.449346273252539 8.662608115611768 -1.9846453288298593 1.3820108866139618 -2.868375908565983
P 3.2605300140539692 1.7493236144683735 0.7275202128346563 0.0021566413316866087 -0.8916038118366129 -0.4982093444305871
P 7.047345286690846 2.4967157148497066 4.929979563820985 -0.26992597983601896 -0.992537094418581 -0.0004725687610443475
P 9.256957273170618 2.6582955869522844 7.128268728963379 -2.03846006065747 -0.8475029648626564 -1.6026997266907237
Ni 1.0216120115962697 1.2231130446805665 9.114172836355317 1.1735175601621273 -0.45612372811444674 2.4457384851344393
Ni 0.5391578724186413 2.3706036843209253 13.449412993663048 -1.6405653913882456 -0.7935910453355494 -1.8208292906807415
Ni 6.524402351688727 4.168745762487478 7.330746318043627 1.3195207384995407 -1.477197753630456 1.0913918972049654
Ni 1.720101623384935 4.553841190030502 3.0915811587046957 0.9231674455755069 0.6935861881051216 0.24568047702509302
Ni 8.555881561851566 2.8565383213502806 9.282612874287963 -0.6457749821591137 0.9115846258339139 -0.8605392292213244
Ni 2.241494765888699 0.001463900383988221 4.7271051905167605 0.41803566299347356 0.5055035640991553 -0.069005580635436
Ni 3.4217271060816516 0.3991033110642989 7.316822459416842 0.49765064371363976 -1.6358736423395313 -0.8764422736048262
Ni 3.5075538677525935 6.9662425913100705 3.1844436048741933 -0.05607575994764537 0.39740487411699943 -0.11601717349828407
Ni 5.268781008940259 0.9297205197630907 0.682745213781282 -0.6792589728491721 1.7939661477413105 -0.8527315602514475
Ni 4.267138913934237 2.583532103055743 5.299968248944803 -1.6964917702422202 1.5615759600672203 -1.206750096963012
Ni 6.92435151335755 8.934703130606069 6.477888037319428 -0.0967603821512011 -0.5541539781170068 2.092909597855602
Ni 2.8361669524863635 3.771093281268024 10.539936187954805 0.042857718595474575 1.090942725482689 -0.6398146508106207
Ni 5.644297598511523 1.522801835025094 6.5178418746490046 1.1947625855838329 -0.26779196421215173 1.568922887350595
Ni 7.310940716802603 6.332461484377415 6.318465737785344 -0.8312705621641941 -1.465675097702837 -0.37280507329044826
Ni 5.849869170928849 7.705101496851063 13.244311027044922 0.13026417033560145 -0.09033545246146378 0.6568690351897462
Ni 1.2754792261460637 3.8864781336003613 5.6958786140185165 0.7026873790754414 2.4293034795068675 1.391363017252823
Ni 0.7140696944468259 6.586618118008227 2.695930337193961 0.6519227469280644 1.261613324659795 1.6643977179211529
Ni 9.013714539724004 4.589290359405522 4.371914222922414 -0.05758062662794599 -0.5190458215599641 0.6985972681664678
Ni 6.301390945615216 3.841926267322352 0.5468022705972737 0.10283589892131967 0.07111388522769042 -0.12170856745610653
Ni 7.10358594940223 1.7980767254708383 12.865371823438135 3.0135419357140805 3.9415911348619215 1.0510505172734412
Ni 3.570684571812086 5.3420507169347715 8.724152616385293 -0.7653564759698883 -0.3049588030704361 1.4747330941400474
Ni 3.5368505476311336 2.1826306592493765 8.734905935660022 -0.5922852377710897 2.445994052788671 0.247364035375103
Ni 2.6580248400700417 4.290553851198538 13.013096924049396 0.8855066977999395 -0.7280513117615267 -2.9458525027869076
Ni 5.855937635530841 4.835968777426802 9.815522095386429 -0.6717043004303658 -2.6358471384314988 -1.9218211944147872
P 0.3683716727098727 9.223281962679257 3.691348988348156 -1.3186218808343548 -0.7177913245964154 0.044616096047477995
P 4.4290082051178326 -0.08286908538492506 5.22753318823555 0.2423634968367181 1.3189494393771026 -0.42727929307892865
P 0.2961718817051884 8.762806868680105 0.03488246814218872 -0.2912854193484016 0.3154843851921083 -0.8421895230695432
P 5.870539294973173 0.3698962577398809 12.374180962453515 -2.2733267348965107 -1.928975031850749 -2.3024581050448285
P 8.37324878562977 5.531200090529168 8.50150625179784 0.2866792880349579 -1.0041469107433676 -0.20454976842305414
P 2.0138993350158367 6.189049661683262 4.521047207321336 -1.7520941900978728 0.18310496828571693 0.6105719518954195
P 6.047056926096038 2.635478160048794 9.104225222457744 -0.38930255672483927 1.392424882858434 -1.1894116056845645
P 8.121360824150164 2.5929055468409734 1.1806123194380311 -0.17392972954435207 0.9131296017235306 -3.4420419885739886
Ni 8.695885708269214 6.4260558807389065 1.0086675097952513 -0.3189345485242378 -0.34010861149869165 -1.6412508474910446
Ni 7.068286157617412 4.3141928548481445 11.757523195407805 -0.4372166067972986 -0.9105075907196513 1.1148190178796542
Ni 8.659558945551751 8.283323476327636 9.994770535580193 0.2485079191715591 -0.837132934482242 1.3955348892423256
Ni 5.352535156547137 1.8744833628596114 2.9179754569808476 0.9675194893283209 3.2662721204971037 -0.06063098341849559
Ni 5.307936609772189 8.583423055045222 2.0407256829963965 2.135802026343754 -0.23654997547873452 2.3354998659911455
Ni 2.1133287934946283 2.5718339705229796 4.12378404144635 1.0145591072156268 -1.8313926680188846 -1.3820553666986521
Ni 1.1132738353845117 0.6051687631392326 1.8382620980652293 0.4701534667346355 0.006532144691562944 -0.8109688744923647
Ni 7.7445558528634 6.203539287932942 10.674024048190482 1.0711629717526006 0.43870090465230904 0.5067564626696498
Ni 0.43994874588539884 0.8872627405777385 11.47808813907491 0.6611905453832355 -0.2827287880276421 -0.010503984855117394
Ni 0.5392587022920283 4.8717353741810046 10.378656004642572 0.13023126021513698 -0.3869065456888369 -1.0127331097504817
Ni 0.027167115608209978 4.706253012534377 12.572900771530223 0.15812284441908253 0.3668766236211553 1.809189649559284
Ni 7.719824525585436 1.3906960286894223 2.70702535770628 -1.223705236760112 -2.469006454523444 1.797826402027665
Ni 0.7784803777323688 7.439638846861771 11.555264071053227 0.624699135325421 -0.62311790688123 1.380931537506854
Ni 0.4047871283715185 6.117143024199351 6.073997174489127 0.5050140260572464 0.9119579500129326 -1.0844589175305581
Ni 6.055786179023519 8.06592306598612 10.529947495219927 0.6027069473250458 2.4126049358052644 0.4470397635353075
Ni 8.697491517363895 7.594216644423589 7.6037600052176755 0.26308710253731465 -0.5797531667423499 0.7105719240298408
Ni 5.286631630969503 6.225927254264598 11.370877041756486 1.584313510874052 -2.241495963539159 0.8511932692300502
Ni 6.415113972256545 0.3301524826465272 4.169655098567838 -0.9996785905593687 -1.2249931023335998 1.9195115724450036
Ni 5.032325619748488 0.7028785121108138 9.219620344499408 1.157123177964504 -1.33635966443375 -0.1614277404225994
Ni 3.65521361566814 7.187648188288901 12.190504410320177 -3.128258131012754 0.37061320784545204 0.9794938880813775
Ni 8.796650228960445 1.015095414223669 5.374835363544548 -0.6712810968500181 1.3074524944810966 -1.3925773492758984
Ni 6.650943842789341 6.709649235739074 8.728456558203014 -0.6971970453848315 1.1059034605575793 -0.7795229972782575
Ni 1.939051826224806 7.517296521568493 0.6990423088724161 -0.6892667347941613 -0.8567154845998599 -0.020853189299925377
Ni 4.022449085082532 4.114036220075673 1.362399245055303 -0.2686885078844921 -0.6970911159345866 0.07403054465385314
P 1.7712541119300338 8.420246709947351 6.621745191954373 -0.24811505460851463 -1.3623157221778797 0.6894443980226062
P 2.4862312752373423 6.018983275237284 10.49929894815005 -0.4582628859446366 0.965792222224569 0.5481707639503786
P 2.838118197258388 0.7318017480138465 10.280382355267976 -0.09369305607978702 -0.44008415815308083 0.8424417482896652
P 7.462586979156689 5.915595310618116 4.0788830050512415 -0.5429555382980261 1.6548039035851307 -0.8145452789897132
P 3.3854376877617396 3.78084950512815 7.181696424929255 0.03114865768866248 -0.027540114401797728 -1.3883044329321574
P 4.009583940126309 7.4735755681359874 1.0687247699363192 -1.2744351590148115 -0.6017659235680153 -2.40950572805465
P 4.933474999431732 7.850950041485401 7.792040187959079 1.1081470051761175 1.3948646026481784 -1.0389426782663138
P 8.754908528598127 2.859245790172708 11.394339593127665 0.29733471086627505 0.10997996616526864 1.1141099076277716
