# total energy = -381167.11044854275 ev
CRYSTAL
PRIMVEC
9.18918979077753 0.00000000000000 0.00000000000000

0.00000000000000 9.18918979077753 0.00000000000000

0.00000000000000 0.00000000000000 13.44930811633579

PRIMCOORD
 96 1
Ni 6.4428901161162875 3.4678899377025543 6.895554197317058 1.2541568683817497 -0.03545268438065507 -0.35882392852000783
Ni 1.8944525460446446 8.428655640610035 5.867166243751714 -1.437472667126692 0.3074689710867995 -0.6002114345967018
Ni 7.4025999034007715 2.2858568938418786 2.5332308005690307 0.5400183100465732 0.5824134871833325 0.9150862112292691
Ni 4.244119173442986 0.6906484738513115 1.1679689889631861 -0.43075542455298715 -0.16714818784614438 0.261056445260531
Ni 6.5247290399431686 1.7113579404696835 0.4768720826525493 -0.6153529182238305 -0.035539330557190406 -1.0655592524125777
Ni 5.682668448903413 0.3760418603894439 10.96422600888694 0.15195245394231252 1.0186409905944844 -0.586609527542551
Ni 2.6246898871350046 7.4913858546713 7.716392354651652 2.111714389266931 -0.4767820277947466 1.168609838447865
Ni 5.302107344999702 6.987560959591552 3.617353027747086 2.842501611902382 0.523254460324673 -0.061769725008629095
Ni 8.877317829678917 8.32518536413455 0.4917916511148583 -0.5786591623472228 -1.0986678620410884 -0.6734742478465949
Ni 5.5877441188863815 7.694678299295384 8.573826460126886 0.34982378190392655 0.8222231072499454 -1.5646175751070215
Ni 3.3805926351699505 9.230449202207911 9.382788508641147 2.0463623462236824 -2.857848783782414 -2.94167163193634
Ni 1.654348207321023 9.469551919249842 12.434718745722508 -0.5566026967678156 -1.7878584921816758 1.2085524402790733
Ni 2.4356866325570476 1.1387519601839848 7.644667053052916 -0.3667678659574329 -0.7534131875650831 -1.2658170783284974
Ni 4.5226618928501745 3.953952129014352 13.604512707768112 -0.7579175031933398 -0.9364243105854131 -0.7900822608513425
Ni 1.6204309079896715 2.63426502284437 9.40953915889406 -1.2083850614632736 0.6340978029315015 1.0505869473734617
Ni 8.702815116511113 0.3301969927752165 2.4444788493005416 -1.0085630375331922 0.8891180693002816 -0.9105525850249737
Ni 4.3124867451106255 7.743114518416368 5.498064059454125 0.4002562275228655 0.6619639332141503 2.52881391359938
Ni 8.879247559524375 2.9437293657275805 4.5338285962225555 0.06333064173784576 -0.21112279365488157 0.28194048779839187
Ni 6.58413715161404 4.931369484928345 3.2741671152739924 -0.5159818379226597 -1.0121458697884438 0.5210044879482317
Ni 3.6550829219016774 0.8923052427016261 5.164776742169254 -0.9106217477000123 -1.1601277691187826 0.5210273707663672
Ni 7.76397397912679 6.268892808384198 12.00131520621735 0.7779916482353957 1.0703569309115373 0.6286470642295754
Ni 1.1130222289112173 0.25502298826695635 10.123630174691783 -0.1650023451477352 2.2304898422366426 -2.887129792134718
Ni 0.9064235138185832 2.358892573897577 11.638385400668303 1.3601891627531801 1.1494412359392139 0.7761075438388052
Ni 3.6370169748722985 3.55457156452256 11.430271388187498 -0.6568093855964043 1.0633655871953687 -1.4697412973524107
P 1.689616317544195 5.858365756737453 5.02610084196083 -1.411845196366575 -0.692911273525284 0.9342141903079717
Ni 6.824388517373507 4.198366197726162 1.1210425537165285 0.42587418520128595 -0.20117930928892452 1.4543668717788696
P 4.404001885734015 0.1313677376079842 7.1847545389850165 0.547581981326444 0.23852586825818273 0.9443571922792446
Ni 8.925662156902499 8.582308082257159 11.47458625570997 -2.0328529988833375 -0.9351081628771508 1.8685921598873172
P 6.6316268841917765 2.9668585563038503 4.648242278759733 0.2143958079791985 0.1460995947059613 0.08738871112831402
P 8.240001575242209 2.4786093378338676 8.053540050546411 -1.719481032048542 -0.21152439996867442 0.3567135670452244
P 3.727741845178025 -0.37586267118950856 3.2972999815261583 0.05128785164069877 1.4952240150045475 -0.8259933729256549
Ni 2.7916390863363043 2.2224790522032083 13.086122946950029 0.8951506486476066 -1.0523139573668974 0.8717854915591051
Ni 5.564137090443617 1.1408838522037283 3.8426692034216847 1.0739742159491503 -1.1547179109571208 0.049432543599514864
Ni 2.6181563732296698 3.3135391176351705 1.7546509700930366 -1.0567809919993154 -0.0782533244859491 -1.4929051370633837
Ni 4.429501887263275 3.0068958560022243 4.677951848109013 0.5017829207144584 -0.11645091860159298 -0.12764164511108986
Ni 0.7991195073834547 5.930739815131852 7.983535884186029 2.323214877976205 0.5846048384076964 -1.2116035684005715
Ni 1.1752881785913145 3.060919102485296 7.2052785942699185 -1.5099741767305284 0.5141452989345533 1.4985412523032386
Ni 0.97397140976139 6.762591216370163 12.640937028359893 0.37909296318168906 0.8324661251341922 1.0216329833432727
Ni 4.592784599758206 5.210886258448001 4.881708346814981 0.9501946248966281 1.1726726956633289 2.817664498254044
Ni 4.498733242766501 7.2982842214691805 1.651292801732382 -1.551911697504579 1.463009892165848 -0.6329960852268905
Ni 2.7495709757053293 5.070751114908822 6.876133763719964 1.2064305088400642 1.0515832498484599 0.9805315853172727
Ni 8.883851343584253 3.860249961232777 13.209224089467664 -1.0743940770953884 -1.1451456938876536 -1.1076839494967696
Ni 4.898462996468423 2.8190044933828404 2.3307515992369616 0.5697407768116705 0.38943162610353577 -0.3091152484409708
Ni 6.305309567324905 9.010744864707696 2.0356600680265142 0.8037492168154738 -0.5483394283177588 -0.093405092525723
Ni 6.920608523143916 6.074523066997921 5.38512983646513 -0.8373581631191709 -0.19788906857342695 0.3805127263473511
Ni 3.011416937354439 6.873697709519817 3.7791746590733126 -1.703247600908815 0.7402807639481831 -1.3931224231460908
Ni 5.815764673101542 3.2391434374979116 10.458692843434475 0.3443751000845295 -1.45935044103639 -0.7981156726787803
Ni 8.382094016196067 0.43349175572666343 4.928485917187847 1.6659028417117698 -0.13644227412185533 -1.3971919652297744
Ni 2.2807568935360263 7.977990208177774 0.7569346940427785 0.7714019108330199 0.6138439377784719 -0.40148984281965044
Ni 8.77181674227083 6.880938791035153 9.520550084470415 -0.6968751432690385 -2.6959099080513504 2.014018125565022
Ni 3.8174926613712814 2.671205565600272 9.11397714116891 1.4090524641127862 0.15740370686487085 0.13324767844395763
Ni 1.8316352449801308 1.0004638437826001 1.3704849470542164 -1.021293340615667 -0.07053384435450433 0.6929197581657163
Ni 7.736424788285449 7.60270369918498 6.991743878761326 1.0696012836924351 1.5069227914987144 0.21558494319129323
Ni 5.977770088222575 1.2631092649391138 8.691722845575628 0.18660449679854316 0.0270955706652114 -0.36793283279981154
Ni 4.8674770486642185 4.9978624618889675 8.725009766490796 -1.934231395153682 -2.0002310990832584 0.24671560315782676
Ni -0.0012212433164824252 0.8518470781131474 7.1429143202596 -0.16443258868719424 -1.5062388780578124 0.5066464194543469
P 4.777910016265767 6.1648436129550745 7.060577342348797 0.7914691138965402 0.3683187553843205 -1.8375334908093
Ni 8.936303238621736 1.3487249457492474 -0.017447514559858393 -0.6114299290203405 0.7399979426004417 0.5302627733217061
P 0.6509769039046003 8.145738866886477 8.17884659860171 -0.4796194972435418 0.9127855881205506 -0.10181928473134723
Ni -0.058062814292895795 5.040702464458126 3.2721363043413914 0.5448059612432037 -0.6755301019343591 0.9193853528252555
P 0.44240802653165134 2.9676763941907347 2.39251122456237 0.06278531075733702 -0.05436186258033219 -0.4760847446174058
P 5.0597516547897134 2.092249855204044 12.264666357145918 -0.010136831323685768 -0.2047089197087378 0.12359987094154844
P 2.523342313489522 4.752566230962091 9.06389238140852 -0.3268995690075854 -0.5250848286651926 0.8452830743932024
Ni 1.8706801121865555 4.303757014857365 13.042694836237494 0.34844284239599993 0.05386255434641046 0.033496331985232636
Ni 9.03063946049539 6.95731014696657 4.6573340630887605 1.2594309722964954 0.9173498104524653 1.8070944575931522
Ni 1.0695665506294612 5.257503018000412 11.062392285044341 -0.5806481677527935 -2.430587231315298 -2.1899250334404026
Ni 2.2017298617696692 3.616883460151358 5.35761280778788 -0.5008210710218213 -1.064086267411477 -0.8594223420080618
Ni 2.4451055520408285 5.749749534007414 1.2473167234514788 0.7276029113701986 0.010750553648284712 0.7307214023945222
Ni 5.199271122616294 6.176743613668729 13.42168275085767 -1.4866311311292137 -1.6717271617030305 -2.9093708629211052
Ni 9.231735688771547 5.556592765666853 1.1328754733450794 -0.46818451593372273 0.8596884511852548 -0.8942651607188599
Ni 0.7043385287263718 7.45919612301112 2.3810789536064947 0.9134756722090397 -1.5466329656041429 -0.1407262462091899
Ni 8.823267015626625 4.800010017591126 6.388313680410851 -0.25825779946947136 0.013763629442995652 -1.3382039167313406
Ni 6.406528492314023 5.501227897481701 10.265076615606901 0.32090118533230544 0.33829829776283027 -0.22447350393017468
Ni 8.344262122035358 1.9671941720286539 10.405635380793107 -1.6785706669874254 -0.053115648878056906 -1.7993731776894946
Ni 5.961431708864367 8.396364827862712 13.131097598295854 1.5803653248595815 0.7053029623214175 0.18069713017517267
Ni 4.1435986268741285 6.852240951476277 10.080740550498028 -2.11818302771041 -0.6118855285005204 0.3351430399633002
Ni 8.774895120833822 4.366344586178371 8.845771341300557 -0.5224946993405131 -1.5223082728158492 1.366905655541407
Ni 6.998404203485077 5.607960336314984 7.942381179015237 -0.19684725757247387 0.28747787267685326 -0.6777759605457423
Ni 2.9413677439643298 4.5710337876429765 3.6039570269437147 -0.6876929625491383 0.45725732749825765 -2.818314216022901
Ni 3.339866146241056 5.936878193878354 12.103879428584445 -1.1144382375014679 -0.6595285842997803 -0.03285072798143374
Ni 3.948383480031745 8.148357785962455 12.238372409623098 -1.5225543273883841 0.6415411465834241 -0.40437539189756166
Ni 7.680563703854322 8.617833489793057 9.476637703458566 -2.0823477631793557 3.3490791257920063 -0.4407277052743507
Ni 7.689817217922779 7.0799674516197495 2.8716153614028315 -0.7908875303614573 0.665414353656596 0.47534169580379426
Ni 2.2340206745169926 1.921533088209232 3.5676983220665415 0.12986873466939572 0.9965022497139161 -0.187901875453728
Ni 4.420643508353651 2.3538293303506856 6.90305900857794 -0.18922753624368702 0.18385007398185754 0.4321404778259719
Ni 6.975697715636859 6.599758774172506 0.8750810254524565 2.779744069059187 0.6238900091605641 0.6808000920840469
Ni 3.105725591658872 1.113013039721477 11.01799563373318 1.305943256925422 3.2191895651870044 2.822590989021384
Ni 6.620893910575136 4.218619171913726 12.46922966671108 -0.9432917271292077 -0.5493866386353506 -1.3040061878037092
P 5.940158734615633 7.4451366627085 10.906958059506577 1.4148580150509695 1.2199267435542862 1.4925523817096553
Ni 1.7308482119088047 7.350837197593808 10.35538889129329 1.61226140223723 -0.6120511075441072 0.16190108051459212
P 8.059443186035562 4.2305007942479005 10.894934923650403 1.039780343676261 -0.609391301323757 0.7508330855427328
Ni 6.6785836437645765 0.8475805373167382 6.257559780677518 -1.9556008619683936 0.3620558051937442 0.8808200909575475
P 1.2889492664887645 1.641970368740874 5.545109035248432 0.09474566571401746 -1.495815111621327 -0.37706719100091185
P 6.813986354587516 8.221485357915556 4.671227199057081 0.0024985980521376326 -0.20994265730385134 0.41773407259265477
P 4.4725256736272385 5.001933272943909 1.9480916843965723 0.4149313130365371 0.7397791417214162 1.3169756034801836
Ni 1.208056829205132 -0.08931157292367184 3.7506762249318006 1.81671912516711 -0.3210122569888729 1.1088964817476323
