# total energy = -340892.8053377683 ev
CRYSTAL
PRIMVEC
9.06439911041752 0.00000000000000 0.00000000000000

0.00000000000000 9.06439911041752 0.00000000000000

0.00000000000000 0.00000000000000 13.26666434160223

PRIMCOORD
 96 1
Ni 6.109051529686429 2.118123476283459 11.412024169894156 2.040011978525622 0.3660106760764341 -0.7918524653778879
Ni 4.197315358127472 0.15130385740225155 6.120880570604585 1.2663390122702383 1.9327075023099878 -0.17075081759573818
Ni 2.8884705042300776 1.7825503545738626 4.690641657249487 -0.43807586947380034 -0.8677928254599442 -0.32052734693265444
Ni 3.4565998510708535 4.275477672179006 5.054798455304915 0.032946115908717453 0.6505307516765442 -0.5257684849957784
Ni 5.048244894704282 4.589531910256649 2.4488272027583937 0.5302838563676286 0.12097631727577231 0.7232163522667286
Ni 7.272430905687614 6.179282494463338 2.554164585524587 1.051869670740627 -1.0732303958045903 0.004734943581824104
Ni 5.106565238970497 4.665373738120407 11.549904558564075 0.1829087931145108 -0.5347331503882339 0.15239108414162789
Ni 5.49521948222547 8.020325416887665 12.59010418847087 0.12186463341799658 -0.16734847678240855 -0.3112790888615091
Ni 1.669227236138019 6.634315332847546 0.2787538419460991 1.0293421790620725 -0.10067257272141372 0.8060372415187022
Ni 2.5948746150813826 1.5053338347271652 0.517283506130968 1.0984629451191341 0.11656713246448311 -0.37870446949401876
Ni 0.1749682843179816 0.2603032574335283 5.0451004546318625 1.3582983734883702 1.4151254097797434 -0.4209119561000041
Ni 8.940307546349153 2.3548130674366146 1.2551038440923694 -0.3148824899420512 -0.025235377528021054 0.9014120561762864
Ni 6.859248398275914 0.7884984872865461 4.938529407138496 -0.6303699604579531 -0.44054438561895093 -0.04338608029511883
Ni 0.850253332398653 7.318804371846451 2.5177338588164204 0.09284227804371753 -0.3602148953302635 0.04465517681552955
Ni 7.805725766514237 3.893621728302284 3.883949107946909 -1.5254748434692889 -0.06214613451144137 -1.0912674558119593
Ni 7.691586852153002 3.8129213824828696 12.502425161729702 -0.4390485177997149 -0.765548023155404 0.3301643558017862
Ni 7.918269346621375 8.604825068631268 7.121863983937964 -0.4604424100944587 1.0761473123410692 -0.2964340534288766
Ni 7.093164283282744 0.6442512646389182 0.2422188746474659 -0.08532102996600789 -0.18890254880410048 0.18583625117395092
Ni 1.8972331328853564 6.603160992896818 9.226566710808841 -0.303452907948871 -0.7615085629787078 1.0290729845610858
Ni 0.18716080764289392 4.816966749856213 1.3720654123554525 -0.6342610679822431 -0.3169583986344735 0.8175976926627919
Ni 6.120318577855983 1.9054182853367696 7.092557874978204 0.8026256447339919 0.5257972813511849 -1.0806138327528552
Ni 3.634905647163597 3.91733419653362 0.5482955350147107 -0.3599009636342705 1.433179181957661 -1.5139452455631346
Ni 6.224042497569737 5.752829706665294 4.63435083195766 -1.1639995933693632 0.062302457583647546 1.1878907981646638
Ni 5.217042136066646 2.92402107777874 9.105800814213689 -0.09211234185622846 0.4568014709077617 0.672520368573758
P 0.17135340192858675 5.310731765898105 12.519498864008197 0.593407781411307 1.7116682208723424 -0.493366414515989
P 3.990003484687528 6.070564090806362 12.908689719694094 -0.37816788026425835 0.016476914609100654 -0.7394834648578684
P 2.486826976963061 8.533660470739745 1.4199707619741884 -0.22066184349356838 -0.6359826786590401 1.1610237985704908
P 6.166737366010674 7.704177302601521 6.012213834022883 0.8618780026374059 0.22340109680160233 -1.9905161857883396
P 4.743400086184376 1.0880270256926605 12.784991489967124 -1.099576489898287 -1.5485762053734424 -0.6253519384180714
P 4.030040935825836 6.450081419696968 8.212264069333592 -0.1902390082273369 -1.4254941546085773 -0.24423243172465678
P 4.862914189254013 0.9193113639228347 3.8156252927555787 0.002982993887723895 -0.465677690351469 0.46395042324771707
P 0.09107183135087266 5.65691023463777 3.759666224473409 0.5379912523142154 0.034679810770372535 -0.28142421028360565
Ni 1.3595964248558248 0.7874977776180677 2.7995714093604933 0.1846175482755014 1.147044196461947 -0.011371989282367512
Ni 1.9439691750110333 6.501857267761721 4.793060303482617 -0.8515678789606496 -1.1327547764224686 -0.7781281738132598
Ni 5.906099632247736 5.658913466854562 9.247555327089291 0.6250336358467041 -0.528049053499839 0.47399546618854493
Ni 8.857313907539476 2.377863834528468 10.104329588251561 -0.4528036626022782 0.26288321405662474 0.05912997339293687
Ni 2.4993086546215277 5.142324293700092 7.131800378309214 -0.5314552509679106 0.37446600593263896 0.05606830374847764
Ni 0.6451785526741115 -0.279849727805873 8.955303688337656 0.058089190833248344 0.5740766851828629 0.4535135441851093
Ni 1.5935395030601678 1.2651635142923454 11.475439612934391 -0.07839164983602627 -1.0587450577042217 -0.36206171873101517
Ni 4.201820364515459 6.838699405355257 1.7887041751710546 -0.23403389392510016 0.1687168178848449 -0.8921293453227798
Ni 5.7772673268303105 7.774598619761022 8.133168122167445 -1.411513266948453 1.035661693522197 0.2563821797133133
Ni 5.159492265729967 2.7358532153879476 4.9020986804303295 1.2085043606499575 0.5731096932839033 0.28700247570233156
Ni 0.7096318694194252 7.232810416911172 6.702543971847581 0.5233663033121889 0.6113486821604439 1.086128077702865
Ni 5.06454268441374 4.5648858089107 7.1595546621309 0.27734284112538043 -0.1329813121564484 -0.6555446599513677
Ni 7.9626486449625915 7.132621612874107 9.171324636501097 0.49748660733194966 0.38941902769804543 1.0181457961256208
Ni 4.543276281287034 0.6202532678336954 10.454848091314304 -0.44539888549777484 -2.00762404911322 0.14731675494251403
Ni 8.254540427067138 7.4120589105176995 4.812310368002071 -1.6094357598629763 -1.7793957061263033 -0.6653860715218218
Ni 7.379209527921995 6.124044045915263 7.1359002060542585 -1.7353377965751402 0.2847165078816323 -1.3059340009540412
Ni 2.3466732369810566 5.115076709792066 2.4923952373738065 -0.4975920225615624 0.15277906360866592 0.009696401352157493
Ni 2.2862862097038534 5.491838461334687 11.49943851617953 0.7160092929953282 -0.8058073848960832 -0.03275739693667907
Ni 0.9919534588792299 3.422952801348101 3.9821355862070997 1.2191546412749519 -0.145193280841608 -0.9395170905781239
Ni 4.072126941176789 2.4123448089749524 2.4357599649134802 -1.6011814902739845 0.20181899975545245 0.3030549011795039
Ni 0.9620681348124424 3.37382375784128 8.003898006270061 -0.13228762852353346 -0.008413163764359704 1.140635721832442
Ni 3.5121555535899134 2.452119392537301 7.014217898702919 0.9962780495182519 1.032030524527513 0.391895514262996
Ni 4.026977168906038 6.98020374081374 5.900932924720266 0.6605521404682883 -2.088459018283416 -0.11674222458976669
Ni 0.3687189101581926 7.290876958000599 11.34290540689553 1.1070730553856483 0.06943109820862882 -0.1441519840612872
P 0.19762928224548199 5.657082458222019 8.126336284512263 0.8691272280006516 -0.7789964353508262 0.20854346296347956
P 8.488682922053243 1.4433152155991822 8.064075645926414 0.2229149011938032 0.7322162417724938 -0.18976978190040222
P 1.997576031708328 3.4052500297671373 10.175253073125136 -0.5901532790297513 -0.01735494633867979 0.7003867559667228
P 3.8096853919788223 5.9790952387718 3.754572032139307 1.6614550903530612 0.7916110387910431 0.8180607483421395
P 6.938444053832942 3.9146873919756877 10.249506818254133 -0.24997139109096303 0.3074689710867995 0.9327687161106968
P 6.353717792110065 7.949206140991998 10.403797395183231 -1.233104932807457 -0.5848030704614315 0.4883283378714493
P 2.182979252351965 8.493423602819675 5.588648963800719 -0.1132835766172049 0.5337669298202227 0.39019112997737965
P 7.000462672960925 3.938445182202879 1.5932866063232967 0.7402031166327123 1.3169840881206158 0.026205454750774224
Ni 5.626064084258857 2.681512142357802 0.43953090292196284 0.18382796249467048 1.4534474452883936 0.12209449004061551
Ni 1.4750678058951956 1.0765605607413453 6.891050842767368 -0.24953790309797025 0.10166039055597977 0.3816404121938911
Ni 6.6699565503879175 0.8043693437950503 9.132002366457382 0.05286959430552186 -0.06275831417414354 0.3412046727763478
Ni 2.5454917683977736 1.4927161910811328 9.199251143907032 -0.16156220911793467 -0.24117024785956526 -0.14978758508050977
Ni 6.442295100809079 2.0225393870252626 2.5611822433627753 1.4076797521349758 -0.4410730044289113 0.7983285600205348
Ni 4.291431014719967 6.899095497031631 10.573624352291422 -0.4978614741728652 1.0154772481545222 0.2979522898456159
Ni 8.334606264944581 7.039648070577159 0.25018648151877504 -0.6383288102937136 0.8928541393039462 0.8825604706874219
Ni 7.582107038965662 3.995233643009195 8.15404977853768 0.04265460144573299 -1.0406185233068401 -0.054882768080808705
Ni 3.043154476083195 8.389808455895972 12.59505244397832 0.8872972140414589 0.05688745721566332 -0.31121686816500593
Ni 0.16371301986735073 4.984658134519716 10.310082385034095 -0.3894028297481294 -1.2261120464293918 -0.8499043752152975
Ni 8.559539330372951 2.548890918086899 6.045101287095107 -0.19556736241878578 -0.4851939060075256 -0.12524203453066174
Ni 3.729030368155263 2.624551457967237 11.4350160183914 -0.9866616094744104 0.9475875262910842 0.27851012196060415
Ni 1.184290944888682 3.3863598218947732 12.455420813388564 0.35784613798777076 0.28347389372378273 0.3685964345257394
Ni 2.808821628714499 8.162101684321277 7.89398400836243 0.8575012137259489 1.9343103280207334 -0.7659334315192808
Ni 5.861656883112322 7.929155690025746 3.55926051676185 -0.4193168436987424 0.4398229340718941 0.4094579486267916
Ni 3.193260926354957 8.341649303100448 3.639642702170362 0.6534458684408102 0.07291417166122281 -0.06890865004625552
Ni 3.620103483317354 4.684581199963756 9.403226412012131 -0.38671448428268884 -0.5265572994456609 0.4292261323926543
Ni 7.2639013060677025 6.073093058175071 11.504878062122048 -0.5949558426247172 0.08962942753337468 -0.9983747841462807
Ni 0.6270996085275518 0.0809015754810105 0.3483240120234423 -0.5665958034247854 -0.7802819869314691 -0.2162035506118986
Ni 4.764030658697573 0.15290191097609884 1.7229682459430444 -0.1302117198311112 0.3223872829595287 -1.3133197518951512
Ni 6.109350654859072 5.833675082871444 0.387129611314411 -0.2932885658213594 -1.2270201600659578 0.09903760822115201
Ni 8.034538394787793 9.113890790473807 10.931572036914714 0.7567062564940581 1.0329455801426146 1.2099866016224388
Ni -0.013282064105266512 5.0010103106242 5.965275655795693 0.9649329595480672 -1.0732581637187322 -0.8200458970929684
Ni 8.18233342327095 8.932194909091109 2.5041091604224897 -1.1523568669241122 -0.3103064405355946 -0.08136718752458245
P 8.487432034967643 1.741697107510165 3.5603083613060176 -0.08981943205699369 -0.05192239990090412 0.7013303508269146
P 1.9601763207287815 3.1907500877845902 1.6383266993640793 -0.8987645912511103 -0.10673317709319684 0.8153808875171312
P 4.521857106045961 0.9686488886105885 8.27313150976686 0.0762486353510945 -0.616325566549745 -0.3530219771262501
P 8.681963105576479 1.7156732174902236 12.441451667826135 -0.22644142628982292 -0.5295840020871266 -1.0874637657951527
P 6.50086018385291 7.779674683296782 1.3571662594380796 0.05144366049227269 0.6604382405982432 0.059708214493910075
P 1.7798854212175885 3.247592934985932 5.999185573094405 -0.662445243725943 -0.0814764594089371 -0.03921343697466795
P 6.8809666986896305 4.065926892143826 5.867036604020311 -0.8100139667782631 -0.4361400859036682 1.2674134762813396
P 2.2056583790778075 8.386490885799386 10.613795956537459 -0.010369516159782141 0.03991843346149254 -1.542186756907331
