# total energy = -381165.4684944563 ev
CRYSTAL
PRIMVEC
9.32387932859400 0.00000000000000 0.00000000000000

0.00000000000000 9.32387932859400 0.00000000000000

0.00000000000000 0.00000000000000 13.64643986956254

PRIMCOORD
 96 1
Ni 1.2172137685388988 0.30321441305603075 1.8284593105931977 0.19323280074833818 1.440541792970319 0.6760749186942356
Ni 8.231176411348708 6.498948856930174 0.7260709779270065 2.9704505038412456 -0.2261444638746944 -0.3577438080819516
Ni 4.185386764605032 6.880127682231269 7.238221515272616 -1.2936700959850238 0.5917846439855873 1.0572849282189274
Ni 0.10821573797984667 6.940462503877064 4.886203083606093 0.13552490451390853 -1.3647050483456626 1.2978545663800163
Ni 4.863708292893275 1.0592206372163842 1.676315048629114 0.841935240966892 -0.09145491077788766 0.6206833292978085
Ni 0.42355865296708584 1.5349902159708224 4.568145987413307 -0.7040017270114908 -0.8651528167339358 0.24129314659067477
Ni 7.193764327343499 4.477522544516336 11.582483450162872 0.2110081224538882 1.189167093773926 -1.6897176847431803
Ni 3.0261768479373266 4.765192186339502 1.8696578027774209 -0.03627029518594399 -0.4253913320275964 0.14299113098396662
Ni 0.5046316465035585 6.3490022332695855 12.612857870224603 -0.6851131176371039 0.938499705057203 -0.024577432229047996
Ni 2.5226034617114372 1.1286089454667327 3.726351684056416 0.4363786842770356 2.1333193691312164 -2.476829035891657
Ni 5.874388815523349 8.604663036393617 2.934489550435227 0.1376964582439306 0.40856449027824476 1.7222513957048275
Ni 8.922896353901363 1.1206463527166928 8.289352754983222 -0.8568772069887048 0.10062166487882025 -0.12833044364799834
Ni 1.993930192952635 5.238686738593929 11.422069839826412 1.942296174439687 -0.8866670366566278 -0.35582293691015493
Ni 7.459895808449344 6.4760867053808795 3.808843771991666 -0.19460602694678097 -1.3001217651476382 -1.9718744023174362
Ni 1.5039883179686175 3.711920183987901 4.1547130671470915 0.0323385642317056 0.7000692247263041 -0.3620717460333442
Ni 7.873614971803881 6.98480687286909 10.671447223457477 0.735057824986347 -1.597311980016249 1.3382743649579598
Ni 6.359277148036031 6.285786332982383 12.91686015106445 0.11688903458027611 -0.568146435741357 -0.4325328281683841
Ni 7.772171167213207 5.615390101927787 8.846072252070034 -2.778537707455911 -0.3949080758370747 0.16751996936326632
Ni 2.1346927957012927 6.474902572735382 3.7297903306679085 -0.01061814183547849 -0.850347119179671 -0.3585755599546276
Ni 5.896132101580836 4.031766532579671 9.483019999247002 -0.14059743394080948 -0.6597507276129154 -0.4478843709237899
Ni 6.360228183704067 2.0729127727952448 7.830968481195674 -0.3205641137078608 0.9091652177591439 -1.356638469287444
Ni 6.041295575263942 6.561568028955079 5.582417135884179 -1.9118005769539914 0.3898643427655802 -1.150763040074431
Ni 7.479438659039606 4.238933802267186 6.27983210379014 -1.2532325567952673 0.06319668726314277 0.6175021033563494
Ni 1.5315124090671164 6.694153589734433 1.4049006576261118 0.3828015223815278 0.5681114687383635 -0.8691349413101356
P -0.08396432844488884 5.197428573583475 3.271693232356592 1.4285560813633527 0.7318778845964686 0.02167285698774332
Ni 6.139606556477551 7.2899960835181625 8.477809796483964 -0.7028987237552992 0.3987408193196036 0.16364094602383428
P 4.860967072438343 4.215959764168711 11.428674875779723 -0.19653589697964216 -0.43945115255477224 -0.2062495247229803
Ni 4.853731742257978 2.5791154929268854 13.465351324846917 0.22085699022350996 0.264695327564699 -0.26603127276730315
P 3.8690555184333624 7.995617929806542 4.939069478094063 -0.20758469859463602 -0.2509314410113872 -0.43974040166041684
P 7.757038511436491 8.080511848997542 12.397272070099136 0.36229286090521473 0.5342628956200347 2.187848610527348
P 6.607441514119244 0.10645632199397717 8.556863237807722 0.779318080356303 -0.5801100358611364 0.29630164161607037
Ni 1.9551521797823583 -0.17071556435229163 8.839917559477176 -1.7714687379697427 0.7122495688425797 0.5226718483483257
Ni 4.757481338325118 1.028461160070738 4.6432423744477 1.6252395596644527 -1.1502904713133868 -0.5731176637037033
Ni 8.609334299821919 7.736404766991716 8.696288796293667 1.4371412519292024 2.2402674904486966 -0.2623617943355159
Ni 7.665151682921686 6.487294008057164 6.945355675627908 2.694679120968043 0.7151459165537684 -2.086639191465858
Ni 5.3095855152582185 4.986326626916432 7.155374187543717 0.6575190100689192 -2.2273086162951836 1.1305058324872919
Ni 8.54673377555521 0.46826199130440044 10.58232212793162 -1.728838304893726 -2.5823052006493006 0.8580239189986385
Ni 3.0916398030872454 0.436953337679858 0.2964201023570212 -0.7059416243466811 0.07644943850799092 -1.1716514534876659
Ni 3.8228650213798514 2.6382102386525914 7.940016841579009 -0.00026302385339954697 0.03572676397764815 1.0907954012715473
Ni 1.6573941007747157 8.664130737283259 4.566412678288913 -0.08709997624330161 -0.41893092111423336 0.5652948252251748
Ni 0.2713500562372232 8.640690505229863 13.774034192994163 -0.6579018473296346 -0.8879441035968386 -1.662985925175291
Ni 4.557670609246246 6.423527998903157 3.074665681188595 -0.449654061229703 0.4002081478937495 1.1561420449981574
Ni 8.28421063566045 3.48979741222654 4.315577020844006 0.9659297762436978 -0.995292545676531 2.05550287507237
Ni 1.4916994453169163 0.09783826054331915 11.5347899437987 0.25833159013020024 -0.2995409744889745 -0.2791117601003451
Ni 5.463075212976202 6.117434371981537 10.566943321746708 0.561268220564285 0.556981420263473 0.47092042680764706
Ni 5.862165210025338 4.690815602771505 4.132155806444315 0.4947324416255802 -1.5027874291741024 0.18940571369276413
Ni 3.163181927409326 -0.0277170953958359 6.864719039633241 -0.7071245889111887 0.09159323612796483 -0.9825851254121917
Ni 0.090883579123817 8.866421618202308 6.599363305268383 0.6800321035697707 -0.10981027335662379 -0.6909690621972487
Ni 6.377272234695957 6.708148732261143 1.6273786691811223 -1.8298983428615452 -0.43436808160491 1.2274451634185184
Ni 5.262835585458804 8.311753374517146 13.314517067896158 -0.4571066608530063 0.5238134181519366 0.3328077069619042
Ni 6.4756018636677615 2.0671412916333307 3.190168963071757 0.3798085011914749 -0.6407739294000965 0.42291973055865223
Ni 5.369482114586388 8.690974185207574 6.506499334224065 1.5187984598903779 1.222961930836184 -0.12560867384146107
Ni 1.3772861249003583 3.7752479708242848 8.352740214645836 0.08663152124731532 -0.7156513954352771 1.4812811796712102
Ni 6.177414886221593 8.385085683626121 10.572006188097141 -1.2355595649955367 2.2275613557359377 0.6878073766398155
Ni 3.214724331065322 8.648000426443014 2.5972038183777957 1.1830702368475687 -1.654428779633899 -0.24218557649795713
Ni 0.2660829969345328 2.305245192169362 10.3448065641667 0.5591995109607143 2.4786663462107117 0.6191851474857272
P 0.342943461894345 5.215973769110207 6.86220718660413 -0.04039948686296913 0.2883605323921227 0.005427341663158396
Ni 2.7979003159710163 4.2158758492568245 6.644601834265947 -1.0144166681004918 1.4487487542611437 -0.46231417319587476
P 1.5034848284973037 1.4980303592247353 7.101634145584225 0.17737655044237194 -0.9045552297909584 -0.309887350720305
Ni 9.26997775333958 7.875172059613314 2.6516123824686426 -0.9160660586440352 0.3751429773950055 0.36173878817395766
P 4.93716181243053 3.032283988746783 6.070414049688268 1.6070348637309677 0.581500745561076 -0.4680089095878069
P 1.3849130580028557 7.4107403178425395 10.132085992088172 -0.4840399949087406 0.8164908327518583 2.512298946663493
P 8.065752148384764 0.37570291110659965 3.5500669667186453 -0.4368797922831702 0.35191717409784556 -0.23247606251967706
Ni 6.0431323794463285 1.6127979870470328 10.116255910154894 0.42011979921601195 -0.021429373518369543 1.0215964736783827
Ni 0.049323320430575544 5.242574796177965 10.148638674651576 1.6681556423016886 -0.8834462157264851 1.2892380283555989
Ni 3.9800842707371986 4.996452359617303 13.243446731856459 -0.5603770762085833 -0.5975074054019773 -0.8923471177605407
Ni 2.0918029518486185 2.9253297716089515 13.300884624266379 1.0949240787279402 0.3446116415753678 0.4071061605651634
Ni 2.988722825599024 7.259935897304897 12.80908077062641 -0.37494783066506393 0.3812933132671175 0.30368327879212215
Ni 2.122320008137706 6.93913851304509 6.255759712733871 -1.1137021306663917 -0.313440358178886 -0.36788192495721805
Ni 7.7595466349139635 4.124166174444889 0.14574901329048595 0.5711921645462162 0.3977308899978505 -0.7427685633670434
Ni 3.960280351532181 3.235469962059279 3.6412656929559892 0.39663894248525233 0.23950057346662623 -0.7840057156399595
Ni 0.8012205110722609 4.552570447379417 0.7046764049478007 -0.8999007617380825 0.04699128114787391 0.35990147785490273
Ni 5.639427062243481 4.396236966536419 1.2798310757879838 -0.6693062325118343 -0.05165037718644009 0.6219683666578192
Ni 4.259539575074667 0.6041845684130748 9.02617789506233 -0.018991453500838258 -0.10525967787146388 -1.2330997906011345
Ni 3.9442992227575107 5.565078450312781 5.324130766651734 -0.5166937763880198 0.3347085235290429 -2.1178104748623396
Ni 3.703584636073925 7.683398514317269 9.449858690845605 0.25908955134214734 -1.0623368888205382 0.23217447211885822
Ni 7.227554065196128 8.751290359095172 1.0563759217034603 1.1705559064306421 1.1208361706080117 -0.6927199834500845
Ni 7.517974251353324 8.276770180139922 5.165000122079213 0.06473292140201109 2.0067534735828083 0.23839242800411206
Ni -0.04825666866171772 2.546258142984097 2.2784092033483256 1.1535051215959424 -1.423053920598201 -0.5652259196604524
Ni 7.164934893171223 1.9902659084669612 0.8051439993968708 -0.23521377316581424 -0.537610471936029 0.18917482862888066
Ni 0.01740674988881691 2.941935600283215 6.533055606672149 0.638231622594217 0.0798936883028495 -0.5987096532401948
Ni 3.0939148295872565 2.149004950117348 5.552981649570507 -2.324471633201442 0.5322831461858446 2.4000165576172927
Ni 7.637263960538348 3.9911610391061063 2.409538374212509 -1.636139237296092 2.3844490421963385 -2.0529130028580065
Ni 8.203158154657995 3.5629432437535464 8.607751105151008 0.30322716509131004 -2.188386228198373 0.3030921821753425
Ni 3.934788866077135 9.273604742308862 11.15257989746932 -0.02019575822158457 0.0358036399621706 1.9439658488326261
Ni 7.383962137071913 2.2911941063680623 11.974245810628569 0.14389410241421025 -1.1549806777002043 0.5863475321304159
Ni 1.7722083479925053 6.244313718752666 8.53040300131435 -0.34886321776287016 -0.6722190352832552 -1.6925235296230914
Ni 0.15264029233211893 1.762614076400244 13.136076669710839 -0.4151231173323689 -0.19083216172664555 0.028768330381944006
P 5.695351689075729 0.8245992055236079 12.28688573306518 -0.32586752819864523 0.955759263468599 -0.4100068791517261
Ni 3.730288225811764 5.322415172897627 9.315332830825874 -0.06969463628266062 -1.4231747624467814 -0.48902125017341586
P 0.13275245821521578 3.9503131247759837 12.066482284609565 0.07112596941254846 0.0071378965963619 0.5971384520983329
Ni 3.497834596009367 2.3333753354092575 11.503306933635017 0.5779212557399337 0.252268671765572 -0.4163251080602701
P 2.3038093147882077 1.8925143599992569 9.792125239117407 0.5064592431442052 -0.37674117512006083 -0.5052495391068202
P 4.314140211074942 6.622191890852924 0.9553218552591003 -0.9890517069731417 0.2158682787596669 -0.5675131730327323
P 3.2150786384710623 2.4384274812110145 1.539236310512237 -0.3057794991995185 0.41446800024687336 0.19832358500768427
Ni 7.440753884660313 1.5082679784747866 5.654566244735565 -0.213313116437981 -0.22997592180564266 -0.3897134190100127
