# total energy = -381176.5359490471 ev
CRYSTAL
PRIMVEC
9.19459189955700 0.00000000000000 0.00000000000000
0.00000000000000 9.19459189955700 0.00000000000000
0.00000000000000 0.00000000000000 13.45721464859379
PRIMCOORD
 96 1
Ni 1.8218532591219403 5.24765713894159 6.9660730757400176 -1.2365774647370895 -0.1634653396779185 -0.05706049245841786
Ni 1.7079046790978256 8.457434077127528 2.0798259299632695 -0.3954541781485319 -1.1129061171276575 -1.3115192083513028
Ni 2.1775736386888696 1.3055033553864253 0.28053895825786934 -0.7903460560356905 0.913626081743975 1.2266761464629776
Ni 4.211132381152636 1.6835022316368395 12.379776273062427 -1.3252309015104402 -0.5126201205392785 -1.8590855059484626
Ni 2.4214509998249643 3.8744540018463325 2.249494657635584 -0.5990246133774523 -2.3225579611184966 -0.8247888110945925
Ni 1.641942675297858 6.553022575446359 13.361291625173315 0.992613456182471 1.0879391627696746 -0.9232810883352356
Ni 4.102433913223556 7.419245098166593 3.3021044348624615 -0.4218781766680154 -0.794935989399218 0.5838653891385106
Ni 2.317359022543192 2.1801757082561113 8.606185107748697 0.6485772274945991 -0.2512952521087092 -1.1493592177483691
Ni 8.033112845824949 8.661204627478083 0.81924735162823 0.28030295219496887 0.7389610166954951 1.1530094129064465
Ni 8.32984072241159 2.9198254759846587 10.614162656042923 0.03631348971905359 -2.0832337653287345 1.5281557327355617
Ni 0.8515010612922816 3.0560065797317066 6.7144777739864585 0.10707307693111882 0.6535312290657649 -0.38199162488572275
Ni 5.7149446991760415 8.144992642624224 9.212971180563628 -0.17909893245011738 0.6701045600434137 1.1577093894852772
Ni 7.250478359980308 4.275034796319875 9.241850474923163 0.29402261577390654 0.7071695832165111 -1.162498069123172
Ni 5.910660786837892 2.526977333475958 3.4650307681402244 -2.0983631647710053 1.318024356459672 0.35840972380072467
Ni 7.737635433765322 6.747681285015514 9.30854436825512 0.9329623201787416 0.22945784451864354 0.08608619026680658
Ni 0.636312666459039 3.8424752104863815 9.052520031481983 -0.005563610130706548 1.1649879254245614 -0.015397822612308966
Ni 5.843457513103021 3.277531887447433 12.775836086595287 0.2963402081634896 -1.2627638933244705 -0.1779247096363581
Ni 8.937621650092863 5.060749470521498 2.7197300041006285 0.9948570008010093 0.9711995092830693 -0.2880394016072781
Ni 5.969910738397272 4.198094449540097 5.347830381065912 0.6669315616320707 -0.93992512464982 0.9405108219499609
Ni 6.47652356908788 1.887603787303369 8.822670859528715 0.7464719803605595 -0.9435416383564845 -0.2803137508282463
Ni 5.869404652038553 7.478127266041557 0.16123360887023888 0.6408281796767996 1.1056028985980249 0.12000778271491593
Ni 0.49057838150929145 6.789056949512288 4.559909924217006 1.0339737642968128 0.17369241672256536 -0.8046586160036207
Ni 1.7425682913540115 4.463257291411754 4.631959667453266 -0.4592548175442607 0.4973017450146532 -0.10889264663836086
Ni 7.781741892118882 7.607109004166166 3.1099622851539217 -0.647833150239723 -1.382289079976013 -1.8317621355431615
P 4.539820659915006 4.077498179420167 1.9923678892684111 1.713890168224326 -1.2955719409934268 0.7308281031757156
Ni 3.7720354403286525 0.3330033008397784 2.731276572872861 -0.48572766702380865 1.7047352411979353 1.4550494996681909
P 2.7846557773697547 6.592347845902514 4.803082060138234 -0.8742583785796297 -0.005646656762816082 -0.15991798864629234
Ni 2.1314259808868012 7.650976403124857 6.767256571618543 2.097614459530439 -0.25342978195320875 -0.01196462856104391
P 5.325710031366726 2.028400576289835 5.541735134082015 -0.3338024667750058 -0.02023663876184902 0.8280991064147482
P 1.4837956909990782 1.3087398518092839 2.504548964941074 0.6479064266798197 0.9254534133962061 0.8811301659987986
P 3.9191673032791794 6.7473135013310985 8.057278992268698 -0.1863892954639435 0.4257379167337378 0.6997799756206593
Ni 4.312852153669926 1.152054807656057 9.907322870801107 -0.8388684291161103 0.013924580500892148 -0.3274377008992425
Ni 1.2568087955697778 1.120563329677957 10.709520690279033 -0.6660980099871819 -0.19270752437248745 -0.30250648487520154
Ni 4.429743003169367 1.9905004676107902 1.2138323525865842 0.14933584225507185 1.992694167276265 0.884876006194476
Ni 3.960828000131375 8.905155545351061 0.5876889050016414 -0.1791675809045237 0.20407899943422275 0.289300784818205
Ni 1.2898817433908654 6.335901477351511 9.172343955864639 0.0027158562692662907 -0.26222424031638714 -0.5196780558273244
Ni 4.399557157270943 5.193574548148251 11.830345146372924 1.639910531413066 1.0280453146275197 0.37072453661233573
Ni 9.059753417095228 5.163287561736613 11.180213927431174 -0.4518757514713702 0.7788154296882717 0.1278632742035927
Ni 0.4153923629041763 4.727096112019515 0.37874087983372307 -0.7680818453208514 1.6130381325022545 1.252383835641727
Ni 0.687612054220561 3.0810710378246413 12.545932666548572 0.3871014353084624 -1.9291737781251166 -1.554513139683168
Ni 5.153026396941413 3.619846551717408 7.739621465661167 0.43971160530501047 0.2905886503916931 -0.040200740588601735
Ni 9.009541749580366 7.097342428381694 6.795004931148502 -1.5718919972812477 -1.3588856134504081 0.3652421733415258
Ni 2.4181409466652224 1.1206920539675025 6.362289037249131 0.24791682255477948 -0.38408810240343527 0.49343480586007926
Ni 3.1539381802995154 4.566080414982292 8.88804624835204 0.248859646084023 0.1103329786293132 -0.5115325439020545
Ni 7.544457053525941 3.1714354890855954 7.198600632375042 0.3121545494879269 1.8346993637946145 -0.46206246219638486
Ni 7.5282745714116475 9.055523904724447 7.519958982307006 -1.1185764280395574 -0.017993608363943207 -0.4167434265446113
Ni 0.3253065077841675 8.523451248480159 8.604637657896518 2.0421241397726186 -1.4889356108926743 0.2822940144830687
Ni 6.3846328155366 1.1767790658409067 11.009239567679183 0.45507188981116464 -0.45752497933734754 0.4573221192979221
Ni 2.3361435742247276 5.048704554856881 11.03488972128955 -1.8060711585349603 -0.6922489573509368 0.29616665870010284
Ni 8.436130207207746 0.35327094022872024 12.056695776028187 0.24374366501369635 -0.02671401895607657 -0.4626661572186548
Ni 2.037457249518573 6.020389049083336 2.500552075750685 -0.4996177947423395 1.6821658405378515 0.6573148644779131
Ni 8.672762229760849 0.4535499201623121 3.8575239993934636 0.5698307654223154 0.9287117724325038 -0.705955508303752
Ni 5.994101710239719 6.556663633922075 5.01898947207451 0.5353185905780588 1.2553154074662252 -0.9491859811264556
Ni 3.336892174112138 3.183930939763621 6.245789877373594 -0.14102680816874422 1.2209125045063232 1.3589462914850146
Ni 4.609626003217119 8.721649876011815 11.505636287075934 2.2174072980210715 -0.17692506472725011 0.3352823937546419
Ni 7.264481723764438 1.211727710452515 2.1340859763843385 0.25295207098584177 -0.1554797503692806 0.08760699778670718
P 3.890195143539328 7.193922423909274 12.851438620223004 -1.0951259103261008 -1.2241392389737369 -1.6810268418374017
Ni 6.861933286579272 3.3914161053267753 1.54798313852174 -0.03132195004173316 1.1580192074162121 -0.7151217481840523
P 7.7861185179634305 8.189788695386065 5.089949656145687 -0.08089076210879616 -0.06153395484873919 2.9395910952582276
Ni 3.6976052171950116 7.064867129047782 10.200676332083232 -1.1804687946689798 -0.3473894614308211 0.11087033919002194
P 7.02962425748864 5.076104439345856 3.6084710023584283 -0.2390547441784593 -0.5662242790179797 0.8887226336340759
P 8.225665993800822 0.4136876855269092 9.673207408108619 -2.5111242096291013 0.4431072612501208 3.3414357503141354
P 8.669001641587698 5.139262092552153 7.623673981312252 0.13244163760289449 -0.599018185619549 0.46201078302284304
Ni 5.060519605718738 3.2962152986157545 10.184594990482152 -0.22736445232472455 0.07063257471589772 0.8332600817903971
Ni 3.1706723379404327 3.6477521387724545 12.937308754860398 -1.4228276635200077 -0.9407887582016959 0.3986670286588747
Ni 4.11536150973077 5.542141535053294 6.2697702930567125 0.333956990074999 0.6926716467106522 0.9538882716981314
Ni 6.364974777604577 6.722258237830275 11.4064698527877 0.38990316642331563 0.4853533144035254 -0.15539361841337754
Ni 4.6151703422596855 1.1395133840174794 7.484472454056941 -0.01847183355194238 -0.11404385182199712 -0.36919498734168676
Ni 0.5898560703620613 7.688260474132505 10.926855102910842 0.013364594232364078 0.3374506050505543 0.36809069853391446
Ni 8.121767102953369 3.13679026601363 3.8070456887074 -0.2117941086902933 -0.7696311920858423 -0.01471159517856176
Ni 0.04026219939220498 2.8209100540610383 1.7535962851312183 0.8311178386364139 -1.2047947730088542 -0.5464650941131814
Ni 2.45168281868394 8.79733056367247 12.218680583073844 -1.444372736680635 -0.6489479805704567 -0.7590004518448734
Ni 4.178647887226613 9.064111653755557 5.3452595731118455 -1.8922074853134125 -0.6599391894746377 0.8488689919722479
Ni 6.372229310779679 5.311191770424414 0.20572991792928036 0.6965429567406004 -0.13742957773578912 -0.80106241401193
Ni 1.6776084980940769 8.996614153073153 4.404115836039277 2.142592824013342 -0.35483794728906637 -0.6918609778838988
Ni 0.5124890945083607 9.194187548341302 6.31728794508323 -2.3230068757304574 1.8716831401078153 -0.25249827127787483
Ni 5.537498266037545 7.9328274296768795 6.988426048619597 -1.489274482289332 0.9274771286944542 -1.3575990334285006
Ni 4.070878073100683 4.76992452206973 4.0826232450625 -0.06159309022144876 0.6592897288160968 -1.4532594976473037
Ni 2.6473713225694593 8.952958229733001 8.967834160308408 0.12129127741302981 -0.8379981106960148 -0.572043456802918
Ni 8.459236217181166 4.917598865954771 5.290986654261823 0.2750836127775585 -0.0852734645575241 1.5110054462085205
Ni 5.834511174979608 6.195987369207644 2.336468143326224 -0.5584844871715607 -0.22854150335196124 -0.43400966982422673
Ni 0.9326626453099419 2.1476636305537573 4.616565161882833 0.842714799445394 -0.1132943752504823 -0.6539279502835513
Ni 6.064072556199818 0.8247797377010542 13.462597641045638 1.4663114457352555 -0.27008024602569614 -0.34859633725472866
Ni 7.686927258276498 1.662308696822381 5.62765951681286 -0.48421560125465646 -1.1642405057355758 -0.0936748012473419
Ni -0.13054849662022044 1.6339341855697045 8.266376889288015 0.6095116289517051 1.068478997162534 -0.27281410001709144
Ni 8.347071388026468 7.080258876240581 12.826959857647502 0.40467646807774815 -1.788120744704127 -1.2262997369601654
Ni 3.4682828953696707 2.5036966262524403 4.154228889499828 -0.27834582846859807 -1.5678746485917385 -1.4507326174603918
Ni 6.506350825893999 6.006698301430959 7.4009028063655675 0.5037356735654551 -2.032973583621602 -0.16997871531640404
P 5.978618017125815 8.618587693046408 2.0273698625142598 -0.6758964841348424 -0.028019882251693676 -0.15244841974212456
Ni 5.365816842152265 5.520966389423057 9.572655348789347 -0.3649927763348811 1.1186149945869768 -1.0524751655351101
P 0.05081391329809332 6.897268104059517 1.4173141927448734 0.665910319456408 -0.18353794205807744 0.15172593975380322
Ni 3.780126681385799 5.538114303708942 0.7638517730815273 -0.24344130328192914 1.264350263974984 0.07793707879711093
P 8.080483384377699 2.0166590821648613 -0.014038303234149804 -0.47799738825908644 0.20064117739726736 0.23556627140922656
P 2.673658661413076 2.7223808050060545 10.61554920053317 0.9358139306949237 1.1698727643206885 1.251396532027793
P 6.667044712207357 4.56931691140515 11.313601714095086 0.7083180949986575 0.3086349663704427 0.17896986307142082
Ni 5.852118818871012 0.36698743273900625 4.099929306332684 2.444231047350978 -1.6011308395417072 -0.7349490673226245
