# total energy = -340891.9176905896 ev
CRYSTAL
PRIMVEC
9.05404641994714 0.00000000000000 0.00000000000000
0.00000000000000 9.05404641994714 0.00000000000000
0.00000000000000 0.00000000000000 13.25151213263402
PRIMCOORD
 96 1
Ni 6.392473613377901 1.8804982643604777 11.559664945277254 -0.20235738875742568 -0.04647603207435222 -0.3199236519103845
Ni 4.375820600034757 0.32976285447181025 6.036845159298851 0.5951838994751233 0.28845206366466447 -0.7459983831582507
Ni 2.7294237580506473 1.6150426794806538 4.684529175128705 -0.3426959126098937 -0.4352857083231729 0.7197556474116379
Ni 3.3063838075367116 4.0906634103014765 4.728749137492805 -0.5613777495589557 0.15125619920623629 0.5861251317069648
Ni 4.821017113016982 4.404802602395012 2.8732454734808814 1.0562071217737166 0.07177105919571511 -0.1942897812579428
Ni 7.000144988076707 5.82672247327078 2.6786866931251874 0.7581707568547265 0.4907773136325741 -0.6387910946421127
Ni 5.176551405014012 4.636386999886609 11.426394815461089 -1.3463183183083587 -0.4128255795474438 0.6313552071893579
Ni 5.484714926517804 7.868174519561359 12.244370862519562 0.9810617467891297 1.0703309627696083 0.6145203950202062
Ni 1.8699321922722498 6.559792389890714 0.37409146539208793 0.13727942531117002 -1.483130317064807 0.43375718749378844
Ni 2.7399898301388754 1.8636124679212789 0.1667356959279952 -0.04826963363966526 -0.20556895371618789 1.2431358346808976
Ni 0.7872538569901141 0.0326507019405035 4.651810567840592 -0.666436367163207 -0.12187388938937721 0.3588509251032013
Ni 8.524013420832036 2.2279201308296144 1.2803634778418271 0.6531620186518041 0.7251691051177254 -0.2609641426570409
Ni 6.838267693419101 0.4448352565329353 4.761705866199875 0.017091665374964114 1.9987874246581965 -0.9844250068344079
Ni 0.6539728623183333 7.511906849810133 2.6836302024312477 -0.04211698377470811 -0.4893287541115057 -0.45031792006594695
Ni 7.526230351132821 3.768275981984825 3.907765336237495 0.5004690869990414 0.1023396760111915 -0.2565094493197969
Ni 7.443929069828628 3.7893990721149327 12.530563835155064 0.7162841439232697 -0.20208819425643906 0.5632500268810041
Ni 7.960471468033849 9.21937323441215 6.816909198083942 -0.08808650852628701 0.15944619121619638 1.1144829746964742
Ni 6.718482660233791 0.6766079781885731 0.4348486434109855 0.6769984589497696 -0.6711687396418698 -0.9281186189331951
Ni 2.0075627508096563 6.492919203563678 9.193938607411079 -0.09224938165472499 0.708536895877683 0.47231987825833494
Ni 9.030741232795918 4.894880023124748 1.106695098625095 -0.38673402466671464 -0.34272445185498396 0.8204436467520194
Ni 6.387783617369587 2.2327821537185417 7.150065509127018 0.6916781724491313 -0.47097699107719526 0.012481420296462375
Ni 3.557687917974462 4.415051782861057 0.7703725875740892 -0.20964620910935508 0.24247482560360176 -0.9893322143280383
Ni 6.043938099207949 5.7927516913727235 4.83942580005193 -0.32998437858049623 -1.014703088992659 0.7858304275535241
Ni 5.42967537876773 2.7000886478828168 9.381500420748964 0.48325426578265157 0.04030538448726607 0.3644921825493787
P 0.3890333580803506 5.51982651825572 12.241919026768498 -1.0003303652107547 1.0219525714662205 0.4116487856305233
P 4.244075171623614 6.211609983528337 12.626385523870868 -1.210632976957186 -1.1392136446739347 1.5041377725544096
P 2.2866899456751053 8.337708309127265 1.431985254200946 0.8817330896901202 -0.16172573127899245 1.0880335222556938
P 6.392509829563293 7.95551890468144 5.984515487620761 -0.16061578604426532 -2.3188841118113355 -0.27953213546721534
P 4.591913524224763 0.8933890099010336 12.542370311592983 0.7794371224326706 1.024352439156965 -0.689374206906303
P 4.072998965876341 5.926461847841404 8.593419929327268 -0.1810768821120946 2.2172772002011105 -0.7869151759772706
P 4.665151705134511 0.9459486543563653 3.711231868373281 0.6539582893008544 0.19848299340368397 0.11730143952734637
P 0.007087507481289485 5.499681265131207 3.521880975477012 0.40932245149019186 -0.022590997926638514 0.28844332191391614
Ni 1.4271350015722708 0.9485290575655726 2.42294609997687 -0.4172057108930105 1.095099942184172 0.05055714412226131
Ni 1.606767281118494 6.647517044957415 4.875881012267903 0.7636425786025752 -0.7969237092532081 -0.38510523081404
Ni 6.111417906640307 5.635392365842817 9.218242384023274 -0.4636305780144532 1.302140852460196 0.041829277330960216
Ni 8.787124007707702 2.5694206509870963 10.531016631577378 -0.6245610670856598 0.08820169394791261 -1.099014960967862
Ni 2.62622573777505 5.399407701826045 6.987309971973646 -1.1561479585354282 -0.3652923098531709 -0.10565717042019868
Ni 0.4766991618457893 9.088542264682165 9.005264051777012 0.689089842896665 -0.3200604345985649 1.3722342668431722
Ni 1.6325169889324787 1.2233465263693282 11.417039269369601 -0.6971011432369156 0.2753479221825387 -0.48635193087136885
Ni 4.065683296427079 6.683099447105432 1.8140125912171399 0.5937965322092934 0.5664435941176375 -0.716254833347231
Ni 5.683641378831821 7.87734626851198 7.988912943827123 -0.3975789378010185 0.3758703424793333 1.1340004759041116
Ni 5.467322103483112 2.7075491820736475 4.919464475173733 -0.7211152467633258 0.053791591899158976 -0.298836235112466
Ni 0.4992346832062 7.615367437429825 6.9083976202175466 0.6348200258095067 -1.4548587238136237 0.47843987511314373
Ni 4.955596457935079 4.504786436217035 7.18893181388549 1.6591902055782843 0.6349061577654098 -1.245787670481448
Ni 8.30045090840485 7.123225694132723 9.253861907761316 -0.0030107618018657824 -0.07764320170577596 0.13581955293619188
Ni 4.72887408333241 0.483994912393085 10.325008104209882 -0.26139711642940144 -1.0537113519350563 -0.3746092163787226
Ni 8.105046480120244 7.174933352826699 4.68952429249895 0.2390076929906077 0.39307667905529076 -0.06063252608039235
Ni 7.396449650779214 6.184339195927872 7.072054034982555 -0.4615703530513147 0.4894313411276409 -0.55721539065115
Ni 2.1633557263213423 5.408534180544926 2.6497988528469527 -0.677737136888007 -0.5247721825207801 0.18728069692996133
Ni 2.5723722700965754 5.215311777430211 11.550508588205423 -0.4485389737886533 -0.8537743996936651 -0.5869404285194085
Ni 1.0989620376391864 3.243566833973622 3.504853030510148 -0.594627255640705 0.5760363800123951 0.2078029852530292
Ni 3.4050366965455647 2.4752766770595946 2.6039754188746045 0.2412548371535716 0.4693366272602949 -0.6656894616948535
Ni 1.350401958772158 3.398372918433366 8.147360565728071 -0.8661012966901341 0.5890315067204824 -0.3468878392040542
Ni 3.6913256420723575 2.653867741275787 6.854357639184301 -1.1087399015651098 -0.5628815877979918 -0.4291063189853384
Ni 4.3865405909109025 6.984264190782147 6.098505025738653 -1.0958062242225772 -0.5105850923871207 0.006258065094569868
Ni 1.0380192516701527 7.536941287962618 11.561559957177908 -0.9319102247651434 -1.002032435503526 -0.7255655692251956
P 0.44826583469422887 5.59548212954041 7.967524570139015 -0.2575661727190855 0.3548135218090341 -0.5454217404503316
P 8.830420457344296 1.8089803522568682 8.086032982789243 -1.9010901325150227 0.6247585278084465 0.4945686623542064
P 1.9290098446935757 3.2237113103322477 10.349457650968281 -0.25646959722079704 0.2846103213210711 0.35295410000279215
P 3.8227903950467104 6.113083851168358 4.069950468470937 0.3970084100095292 0.23275862675710235 -0.5461066823324982
P 6.836212424898082 3.981788502965623 10.379034504173605 2.4722558146986775 -0.5966203748113338 0.1854061056150678
P 6.488772450336249 7.989453470394104 10.03241482621091 -0.7753644950251937 -1.117531788825127 1.3181557398312136
P 2.413844972587764 8.263736750463321 6.073857195365232 0.2728719498382204 0.14560388601646537 -0.5538305333393171
P 6.772725451905234 3.728791285860779 1.633513839435404 0.09036322037560567 0.8737333593140951 -0.09621479406037624
Ni 5.153373046362886 2.6052112962011194 0.6180237712932185 0.14132171370134372 1.173165061918715 -0.28599126082899773
Ni 1.4652434826514067 0.9175461109623885 7.020981970342215 0.5302689439692931 1.6331636996075356 -1.2262501146691527
Ni 7.084999510451062 0.907966929926103 9.414629176336646 0.6754473124125658 -0.22824942603283918 -1.121842500385339
Ni 2.8205980047759733 1.6177045691069938 9.036802011421335 -0.3939534252332893 0.42047306879037266 1.2541761516554595
Ni 6.5105112156180285 1.7622433650079972 2.6837361347735205 -1.3634907163225871 1.3290309919828207 -0.06486456188386894
Ni 3.9287861156438693 7.010810654674764 10.62777903570875 0.22965067725573998 0.6716842458257076 -1.4942495669064202
Ni 8.309948603024003 7.155838369078564 0.33236679820152265 -0.5770151989858966 -0.2356187219137168 0.5064232476999472
Ni 7.706949116240815 4.123674463286634 8.262012860038645 0.9399901735598005 -1.5873173306973825 0.006028465582267037
Ni 2.962719370302035 8.482708861392021 12.692032792322374 1.4998815683812168 -0.02126430869541499 -1.2154867055050618
Ni 0.09121136831535309 5.0114780319955265 10.079695961645303 0.3063801088979949 -0.5955158288932453 0.8911947493236522
Ni 8.378777463362228 2.2369832312240585 5.693472262356583 0.8114350154955057 0.43997951425441645 -0.05220239303516817
Ni 3.7765242182079404 2.694819192908225 11.379179774565038 0.19099645521865172 -0.013744089058969879 -0.05158558538677567
Ni 1.0376751979089252 3.450107739266386 12.510567068390662 -0.5749603733393969 -0.4028867231671771 -0.6836879551548032
Ni 3.2508191250984466 8.625219550911051 8.182212306335796 -0.04887307155161905 -2.169799723445437 -0.1785857402591247
Ni 5.68021894931224 7.831478469712526 3.508430284222281 -1.0628038011546275 -0.0075896394217998325 -0.041721805218818464
Ni 3.100938441852067 8.4357364689381 3.446108566994432 0.25370746109462755 -0.550901018397348 1.022127149370872
Ni 3.6664270146150937 3.9588636576122442 9.054638482727084 -1.9383937540614875 0.402202552615959 1.1130981785338054
Ni 7.156481206369278 6.073816452156666 11.53321535968056 1.1043106621491627 0.36728028681747715 -0.7932858553903047
Ni 0.7025894695890692 0.05259948225926324 0.17221792099176725 -0.8845834146547218 0.33505356557328747 0.20070879741040917
Ni 4.576150429532728 0.4003337133274091 1.3968555543703338 -1.1058535811562504 -1.5549360861531996 1.5829479979850931
Ni 6.200862830513148 5.5624801306016005 0.4399976795691477 -0.9831528249902035 0.5727679936737684 -0.06778302108224456
Ni 7.865485467795974 8.46892860285022 11.620993433620713 0.21946473786167364 1.1372760613315898 -0.42129170803692606
Ni -0.014721879362003963 4.7428535308938695 5.926645644982271 0.6103986595423488 0.02553362549473022 -0.41384836438500333
Ni 7.757914343134247 -0.15339636944334548 2.482683792376972 1.3913303642426746 -1.1809565329386758 0.002320934823692777
P 8.597333088158916 1.6331507721768457 3.515904399482634 -0.23719686503411405 -0.42281482954967176 0.6917542771027053
P 1.6152418685003118 3.370830509442458 1.3059601722725291 1.0206485079428165 0.0074256030401097925 1.4461169730652514
P 4.811311175331822 1.1168981034547643 8.042117236382438 -0.42145625863924835 -0.306058463892518 0.6299902085210312
P 8.444844839564285 1.4536090330941034 12.371478808391212 -0.0772379958475573 0.41028095874871917 0.20886330819674354
P 6.290353024617728 7.721010050219408 1.3560408188377522 0.02988470337457434 -0.8403079897761141 -0.18792193005838603
P 1.5180285728608058 3.108181678930544 5.86799443814394 1.4080983277296328 -0.21745876317523838 -0.010228362596227546
P 6.886036841951654 4.090998410016356 6.100294105297038 -0.19638754432723596 0.5363683719988117 -0.4577887745216954
P 2.276703332553155 8.624214551766412 10.27194958180077 1.4437497583846555 -0.2877177566018012 -1.5330853088266951
