# total energy = -381175.1536272096 ev
CRYSTAL
PRIMVEC
9.18243255063134 0.00000000000000 0.00000000000000
0.00000000000000 9.18243255063134 0.00000000000000
0.00000000000000 0.00000000000000 13.43941821235489
PRIMCOORD
 96 1
Ni 5.4432634487354745 3.567411824551194 8.506668072052367 -0.08879484744722127 -0.08737405584029467 0.3140466243043172
Ni 7.544598889723904 5.064607472454619 8.594870847369762 -0.048082714439839774 0.2898304320694299 -0.7242021132187657
Ni 3.2383593495887943 5.7022631448088505 8.800077098094395 -0.9005232258134297 0.15575897217259624 -0.17432593654150622
Ni 1.6433065166519027 6.346475074094105 10.281221853679297 0.2789271548933648 1.948598205398315 0.9058171272225174
Ni 2.9298938886871095 3.0111492354414633 12.927980940246115 2.0843385683571394 0.1944175650850587 0.518787682802571
Ni 0.3346418217325854 0.05267318856221046 7.317077491108839 0.4900098393389303 0.8532871756446015 -0.46778265250961376
Ni 4.474571895960719 4.094859939922065 4.380564904948509 -1.215223424541346 -0.45982560244606613 -0.4566245790102652
Ni 7.329408579950112 9.009013252972222 1.8961806118867852 -0.4287545920728745 1.3234720098378046 0.825379907711372
Ni 4.129679724631356 4.423049266212874 6.85434532475541 -0.6439091325949684 0.3006288082365145 -1.0690454111889653
Ni 1.673415713398148 9.268563895006187 12.296745624819293 -0.3070349688731744 0.09998685950829876 -0.868510420352259
Ni 3.8120869256492296 8.158775081724324 9.027001638585487 -0.41631765186110237 -0.3986050650726877 -0.7670750013228917
Ni 5.658123190932913 1.927346706634096 11.471861068434482 -1.24839091243225 1.8776995215052243 1.2923210381562968
Ni 3.9414949493591522 1.4319269164388584 8.890349593737072 0.5312529051491173 0.4984929371092769 0.547567840259057
Ni 9.086366065839064 9.350287545827044 0.3996442626495332 1.1294010294588872 -3.6795584417310496 -1.1123394459909102
Ni 6.818984694761474 3.917391063583338 4.207774478058458 1.3611366142681138 -0.598034481550041 -0.37801309985394893
Ni 6.70264327275021 8.729894846904633 13.13072813549998 -0.2599243885386169 -0.5642522428932734 -0.5987258511901108
Ni 4.473433274308833 0.324120590371851 1.648640591793682 1.3540578530444616 0.4214999673929902 1.376374257153475
Ni 1.1604850240888238 7.048563876539341 3.5138571224520394 -1.059779155395691 0.8457332745567435 0.41178016900206504
Ni 8.797036794635206 5.483712064675459 10.661678505008014 -0.8566218964447893 0.5623000042629089 1.5325134954836253
Ni 7.95127965053344 0.35952529604263433 9.334132892019277 -0.8577588382627098 0.9458085800137906 -0.3161011928405008
Ni 3.2685144584984225 2.394787624464036 5.985849722616825 0.16296757410589352 0.32900273139351727 0.2196084625283895
Ni 0.5663100069443575 0.43863379003722247 2.746681400709231 -0.09350999353470348 -0.15345834906387765 0.41200951140405173
Ni 8.366160323723092 3.335582946767583 10.139288991798626 -0.15813672837615345 -1.5112985519689068 0.9234348403042807
Ni 0.7855203857439214 2.5489973988331873 12.490944893494603 -1.127591487053974 -2.259281312547038 -0.9349248432217511
P 5.670693941267041 7.382134108378579 1.3549487468252184 0.2110171213149527 0.09664853916368517 1.1026947238122946
Ni 2.968919227562237 0.30155292558281543 6.996964114357013 0.029230871840659336 0.27882996719386816 1.3124849146986817
P 6.980402678781677 4.07172939200996 6.72168488339147 -0.0717926564622699 0.8747314615613064 -0.7390060110008175
Ni 7.788658767832614 3.7071041728587977 12.612961058899943 -1.1758935165934716 0.5839121832160459 -1.0599426775567486
P 3.9144067729634755 0.7940820859714905 12.51600926172838 -0.013517317760144462 -0.582726390438061 0.562449899577212
P 4.607827358962095 0.6994222239959811 5.2568417005371595 -0.205897026479568 -0.8617669309808385 -0.2482271547063467
P 2.899867333834952 4.387201049043815 2.8602175895378226 -0.052635366807528707 -0.20276182328469594 -1.0601779334960064
Ni -0.08714128609999082 7.042384099348056 6.533035477025835 0.406807398377822 -0.06257370896716319 -1.190292465627621
Ni 3.691034915674922 7.924439399820028 0.3358741041977718 -2.235893272640401 -0.6130936898760085 -0.2638484061833714
Ni 5.269889937370467 3.9940092818360595 12.680091069468038 0.017683790433008256 0.578273753983346 0.6360379573770079
Ni 6.454341110744957 5.013911261647658 1.1941019101174926 0.8291064646333399 0.8994487618023282 -0.23200606486179398
Ni 8.571451971071614 2.064523068388339 0.9272190955913405 -0.5664577351850245 1.908079419348662 0.7510027783513775
Ni 7.749982361399193 1.266211553926052 11.965571089665355 1.5074652942657458 -0.021513448591743593 -0.2207459185669424
Ni 0.47797500459642167 6.9764083205673995 13.017205720320405 0.02213951221151671 0.11809513907323532 -0.1887966193538555
Ni 8.689501325560707 2.5576013382510685 5.8130721511325225 0.20353752510845594 -1.2114852976551522 0.5477840700349211
Ni 1.8262848525965303 5.630888095614411 6.047967043186817 0.08710666111152095 -0.5416741004824412 0.48392480948711497
Ni 8.873489729099749 5.269164525189023 3.1865805299692753 -0.2999572360907866 -0.21823780743310803 1.00406437833189
Ni 2.392492016294911 0.9361765586672669 0.8681218771286503 -0.6717996883576494 0.09579313314192534 0.6412575539047343
Ni 8.85567580970734 4.847020547752261 5.61290613770402 -0.8990844364843741 0.3251023678978465 -0.20642718795142512
Ni 8.12564486462751 6.869359520424755 1.6191411085771559 0.17541557006125919 -0.09870182214828808 -0.8638055586774219
Ni 5.23248988907908 6.828626249071799 12.613108896066036 1.7495068889866707 -1.0056656613807389 -0.34418406711964594
Ni 2.7157044640750563 3.4495920308790144 8.665091664776766 1.6927325603101042 -1.4295485271836088 -2.0832931578117604
Ni 6.702716732211622 6.2838233359423405 5.9842905455483555 0.745275131838981 -0.9569075181404295 0.3026730923600529
Ni 7.33450483008557 8.814566058614645 6.398695568725364 -0.5801576012696202 -0.21441817657670167 -0.4601554749816591
Ni -0.0830450028830039 8.309927106012202 10.93416260346683 0.8040096695657121 -0.210017990626477 1.4076974927467887
Ni 3.279377276354723 8.930126973848406 3.725299163207284 0.003002277161433539 1.0686440619854887 0.7610902444943667
Ni 8.768130496569581 4.555065100802923 1.0179057189477283 0.7302141237408005 0.2627675144143668 0.45677498854520043
Ni 1.5749433053753557 3.4827222479758286 4.541367665979387 2.0387264269449794 1.4057959048487014 0.8886154186322502
Ni 5.808724269260199 5.995311301246692 3.7252725341525217 -0.7996436792875325 0.8727740807246194 -0.9267135110555523
Ni 4.235084869324907 5.368591906210172 1.0768303076761003 -0.799928557517803 1.1980733951246205 -0.4750719870821754
Ni 2.9291868413710187 1.9537645654443883 3.1471888120303553 -0.3592610160574265 0.8939584281117186 -0.388544338402576
Ni 7.5912181004224975 2.4639129776527326 8.017083717823045 -1.5010591336290857 -0.8728738395272775 -0.3542013421463319
P 1.8999738748254476 7.607158803548903 8.05069509439211 -0.6604492963418368 -0.7739012802161059 -0.5040004971910674
Ni 5.334947472883473 1.8168085820743818 3.3127223623761672 0.8048324225773236 -0.7799194613857278 1.5972070790072685
P 6.090312749717767 1.7560025128905945 9.573569415275367 0.6157527247654104 -0.5952065251829426 -3.152640930732493
Ni 1.1902361059606859 4.652903920971037 12.66818420901642 -0.2894925891140369 1.5650040119121629 -0.26834757960530553
P 6.775331409817389 7.974492840339633 8.336806841186121 -1.0646269704062954 -1.3110389262807745 -0.19026831880337552
P 1.4307056528928839 3.5635001082310045 6.776396572007863 -0.06720426576063909 -0.6357697913172857 -0.3761629340190876
P 1.7336708366213451 8.02562062548239 1.5977855249014186 -0.34535751860245684 -0.2455588638455642 -0.3244009709554478
Ni 6.3666488786843765 4.482294321841656 10.603029389259936 0.09270549535553711 -0.17646020927568964 0.5901903029152739
Ni 3.1880304360888947 7.810485410304655 11.357410309311309 0.5171462905444061 -0.30050848060856633 -0.09983567864241515
Ni 0.944284646720617 5.001441518072971 8.381466520751548 -1.6400694255884336 1.1183704826763383 -1.0150908113493808
Ni 4.954950861431848 6.299157998512096 10.334711360506448 -1.0652167814714946 0.28668648712380945 0.10888673310108989
Ni 3.3749939478151236 6.882416939690739 2.871143766179591 1.4551140343575393 -1.4205075000272633 -0.21918525894804186
Ni 7.077038600269169 7.189358116768124 10.75173613172606 -0.4917314500157273 0.1830805428056847 0.12644222548634998
Ni 2.4194883683638224 7.846407086935126 5.62364407447592 -1.0967225653892596 -1.0948274052490758 -0.5189501765223643
Ni 5.762527450464725 2.4895411472528464 5.814886599829399 0.39268535715414304 -0.18546266988461607 0.6114407276536179
Ni 1.5438240410346948 0.9811245666187374 5.0399434582855385 -0.6681186399616365 -0.1677876212023562 -0.24055806819686312
Ni 1.542152838287572 4.046863364321997 10.367799338412949 -0.1332628479526092 -1.034188194300464 2.3976917661388577
Ni 2.8329733117866454 1.7440745328438203 10.900228005267556 -0.9461775333174349 -0.17380168860692002 -0.14187424377070404
Ni 3.364819812409561 5.368573541344818 12.094616407284555 -0.6733045550379501 0.8165198862175808 -0.1285001364566432
Ni 5.804491167796332 8.570460268342552 3.55643330804317 -2.2943313621726356 -0.46008245565187866 0.5070390269070753
Ni 7.377414337982858 1.027596858394507 4.249490269707801 0.9356671207044144 0.5284689146460769 -0.1961466319610235
Ni 7.693785873419009 7.400085764261137 3.974331328610319 1.6885594027690212 -0.19887920040083815 0.500340531840977
Ni 5.374698223940044 0.3645067657696359 7.403641202193478 0.4184377835278987 1.0263890099710193 1.1181884485725193
Ni 4.046027762948436 3.6744147125304556 10.620191355932317 0.5257507443839655 0.8153528624926731 -0.3553341701991945
Ni 4.849545716738297 3.3030863175254472 1.8026832458881208 -1.1140260896647136 0.8838416513926907 0.07621418256873326
Ni 1.590709542280907 0.28585463867906996 9.36336332995838 1.4081713470594135 -1.2352790576406403 -0.4317558407930435
Ni 1.9464094368705112 5.660639177486273 1.2121940572200018 -1.0800438191819979 0.6360253589715176 0.6272321861599198
Ni 9.081774849500812 2.8776091170271147 3.447412121361613 -2.4126373317050964 -1.312927658663055 -2.2167776348568724
Ni 5.544114106821481 1.8296456229561293 0.2559630655872575 1.01242174915765 -0.5808152894582771 0.410242649311616
Ni 1.5317858717958026 3.166515996327854 1.481359624509532 0.48543378993247366 0.26871113359231147 0.26722503596508823
Ni 4.794965336909178 7.723132928253105 6.184161802887941 0.13115814290478056 -0.247369948912374 -0.9993242925437434
Ni 8.7449907662248 7.160699744384766 8.85120121026408 0.7538425617930179 0.09927877769768063 0.0623317681596862
P 7.108258871369271 3.0647654598395504 1.9484874213852035 -1.0113166890189293 0.49366671936522716 1.5444894368985789
Ni 5.2826810660888315 8.975130076395935 10.740124945606626 0.36062138674006283 -0.8151407464818671 0.04244119988334626
P 7.515297747053191 6.127575061519006 12.68570888177952 0.6649399851233387 -0.47613385268778646 0.11632442032605773
Ni 0.5742665848585454 2.459532957266042 8.531450539602975 1.2251419692066383 -0.8637749625498027 -0.8390139535550389
P 3.7895532358610966 5.960151766528371 5.316768092670537 1.1696511352281855 1.215171745367804 -0.5738619980688956
P 8.950594616284324 8.897226317568503 4.976724245794367 1.4573208122008707 -0.2506020826964264 -0.07173043576576678
P 0.3881414292356809 1.426031794660545 10.577695975748739 -0.24158933767485488 0.6436119130695237 1.7157593602225805
Ni 5.257346734334367 6.037816782106213 8.059847225040777 2.4785881846746087 1.463975084292595 -0.5210080874926576
