# total energy = -340887.05686149676 ev
CRYSTAL
PRIMVEC
9.11251032647203 0.00000000000000 0.00000000000000
0.00000000000000 9.11251032647203 0.00000000000000
0.00000000000000 0.00000000000000 13.33707996945678
PRIMCOORD
 96 1
Ni 6.743603953080758 1.9816156187126805 11.24980047621136 0.07985640730701085 0.6561380705609926 -0.3184172425681871
Ni 4.644318487892448 0.5802627906711484 5.875223631866967 0.6945737488293715 -0.7081558583891804 -1.0869911970341086
Ni 2.9492730954606934 1.772100780164886 4.072037345058983 0.6045655978003395 -0.17508261220187266 2.941349215599915
Ni 3.5573782503323867 4.501470775249997 4.7196725699385205 -0.6388628284203126 -0.16836740496522618 0.37654114329411276
Ni 4.00131241828354 3.187574354283909 2.576817458893017 0.4834409278721609 0.12724440967267117 -0.5704028358757015
Ni 5.623065889767143 5.097620316509361 2.8075617128620363 -0.2866772311524289 -0.02346620144274023 -1.0009330317917602
Ni 5.549436805935105 3.419834018728333 0.01587399307368903 0.44278561624464385 -1.7877363647815148 1.1358146462947147
Ni 6.055099119168217 8.17184415423551 12.322408557453226 -1.600658785001295 -0.04947882345641801 0.22197027789234675
Ni 2.2874223543957637 6.467048375702235 0.3989311242119333 -0.2797396234923311 0.9143089667436125 -0.14633819307932863
Ni 0.6496263083965294 0.3533120747713466 13.566344591264356 0.5354841696216455 -0.4599875819452272 -1.474386766544222
Ni 8.269329790229955 -0.101763959615627 6.560683064812099 -0.09547868722530009 1.395565742480261 1.184180182082296
Ni -0.44078944062065345 2.498222056906468 1.191014218555815 0.9003465910262494 0.5723805284273626 0.1781458245082287
Ni 7.224170412740424 0.8257638439418507 4.535140589835516 -0.9488381108687337 0.8954704938808707 1.084334733247868
Ni 0.9261591044991149 7.775577528057299 2.0369057754145223 1.0337932728548906 -0.46945978310172054 0.3658083302576409
Ni 7.8193631404103865 4.127803174802413 3.4847524538926655 0.21447448373593386 -0.08598231769909064 0.5364437053214374
Ni 7.819818765929148 4.071023122654218 12.51371568902023 0.972406385106977 -0.7777579349580348 0.18243442458125353
Ni 8.667856318981228 7.149338477538855 9.250144820708794 -0.5294022250936237 0.5137799451753345 0.40561877738635954
Ni 6.875416415658779 1.0081261353245068 0.09145406537706685 -0.03335620686294255 0.2566891694307708 0.0831805865842374
Ni 2.1000600285702067 6.4088467719355 9.243103583941837 0.41910704168078144 0.3478242349753945 -0.8513655331418564
Ni 0.2392626286678048 5.002923108689741 1.7922904581522945 1.248580916955869 -0.3212637108780467 -1.4306844405602652
Ni 6.59704744871558 2.3385526501113025 6.9924447414039905 0.18882155905451997 -0.20060595328395775 -0.7713715718157167
Ni 3.7017386396971292 4.617154094463822 0.6861410487212017 -0.20833854604152507 0.38432515811490586 -0.36464233497399784
Ni 6.250289091406115 6.046150633979718 5.080653733441678 -0.2086771603278664 -0.7265675281271486 -1.2180812057051151
Ni 5.657839229359104 3.028096310206623 9.113453520075865 -0.2235299090699828 -0.19609186746368806 0.2274305296759696
P 0.4692386980121903 5.809744777314556 12.66354449586116 -0.39445247635689484 -0.3288525789688982 0.15208332309322195
P 4.132286529907037 6.4715499558276095 12.225754893656042 1.029037246227144 0.1912581935204706 1.9219322660713543
P 2.798132998376763 8.733047218205781 1.114106453490763 -0.3842061160385383 -0.9907465781770615 1.346118800703043
P 6.522160838451758 8.052661631037587 5.792147608528906 -2.3394714490443835 1.4138861380560037 0.594861483138698
P 4.689124701407562 1.5690740490042712 12.341666936880284 0.8443723896534748 -0.8242974732804708 0.08305588808091502
P 4.180181884439362 6.416437493078084 8.067626195575826 0.5101611174758246 -1.418433391107054 1.2040638083801005
P 5.119435666347714 1.4760444305833231 3.630700242564777 -0.4858356533565826 0.11725798788392063 0.7146882601910595
P 0.5735359355121373 6.311734748866439 3.573790792769253 0.35275329684589574 -1.0087486711814369 0.23557809848376848
Ni 0.6753846414742541 0.22868118162006215 4.608188295505611 0.8390293801740065 -0.22107476266127088 -0.016572559646700492
Ni 2.1094641392774665 6.6208766633468645 5.183963174816948 -0.05986659444864529 1.3656190755195 -2.2324785905318976
Ni 6.48333243174281 5.749101020767253 8.915291046953557 -0.9903809673075266 0.4276857844887279 0.8232718602294339
Ni 9.155977049741978 2.4596305754672763 9.703859446045705 -0.6895930077853285 0.3347861708445138 1.622418802386206
Ni 2.6974579837509784 5.231018355892675 6.7848262162652855 -0.6343163467002108 -0.9647426979141319 2.2165732321555507
Ni 0.9658714247144632 0.40931938603972057 9.009050577455564 0.30624692575424034 -1.3232897186236694 0.3633315865823743
Ni 1.9500589952831828 1.4938776133876912 11.022536289954651 -0.36471098342840413 -0.14439418197908035 1.0214571198870408
Ni 4.4898887745630525 7.031951118884858 1.616961202277258 -0.8543220446670191 0.4576113684035668 0.2848306648619933
Ni 5.904924948184062 8.164226095561798 7.995045961687983 -0.5246891358886706 -0.6237629966643967 -0.3282511979394734
Ni 5.60720100920383 3.600607999552582 4.673993377929457 1.189070677405378 -1.925192424879865 -0.012761670541042538
Ni 0.9596931426800424 7.726643347342196 7.209758977581963 1.451560512678326 0.45880590293230017 -0.3752833596276118
Ni 5.072779613226424 4.515431141144884 6.891016122170173 1.0184214183845104 0.9966061222816319 0.779334021195903
Ni 0.8389259539278647 7.605355834247591 11.371901736482476 0.23226008985412902 -0.8677540018022087 -0.03172175658331312
Ni 4.864239813288781 0.46932800061386776 10.30532158085384 -0.44730253027839095 0.3045988486278561 0.03245477809459572
Ni 8.211893637334743 7.4808880550320245 4.831263460742818 2.3005125512826834 -0.625951005454651 -2.300055923361239
Ni 7.818752602215244 6.6557866905944545 6.985882822682771 -0.39647696298609136 -1.8308573643407047 0.7221290327398209
Ni 2.678923137647716 5.52117891126145 2.8131504154751785 -1.221892094810773 0.4851931346765773 -0.9596570558611085
Ni 2.441943192828912 5.515684067505173 11.447535572597069 -0.3395159722200153 -0.3083493168092238 -0.035184004100300696
Ni 1.2436116284417698 3.453577644647891 3.6357412833043665 -0.6880459750131828 0.21029644109884427 -0.12106784854831408
Ni 1.6449721479197452 1.124447330264599 2.3466327130610387 -1.223135480299571 0.5693985629809032 -0.3360221001341439
Ni 1.2549475913485832 3.3164252509899725 7.933455415312691 0.11630770815550937 1.1273986543168777 -0.8302830014399444
Ni 3.7193622347628668 2.650464767745804 6.547345994626881 -0.5612810760800915 0.3169028628061897 0.17251408014374806
Ni 4.446686362873982 7.161166516005932 6.137697646962613 -0.6333534685663093 0.4237764221319927 -1.2335101386656755
Ni 8.362122483381148 7.569425205837973 13.34414878327836 -0.19051231649338157 0.037264283668097115 0.6908621043057392
P 0.57715451338215 5.730265461821608 7.727850754966917 -0.026218310266580648 -1.3471367004445962 0.6998681644590915
P 8.652811564351687 1.6226191599692519 7.690653487615138 -0.2253206824218184 1.3584798933715572 0.602975113384768
P 1.9951112465784289 3.727508819038342 10.017814588506338 0.7660707284280935 -0.6202434135469125 0.8668554012473394
P 4.283371951928716 6.5063232954195716 3.90868466157014 0.07430822379527202 0.22909866140701188 -0.050856163419918866
P 7.09059923565998 4.085129288715108 10.420447214432699 0.8900722056834348 0.4830946002763357 -0.7273154620367667
P 6.690259317344032 7.979779773056323 10.309722923365088 1.7322887253361712 -0.11483086649966674 -1.3056552933713579
P 2.5983776584408638 8.670972797529563 5.71119115510413 -0.06299922654035602 0.4302769422546719 -0.13556012862721814
P 7.202591988171827 4.348152788186383 1.2584978253907813 0.22296426637449987 -0.6880344050489571 1.8837403283826655
Ni 2.7260894913500207 1.5637523429451239 0.19403450592231644 1.2593178437573989 1.429616147196751 -0.508774521540943
Ni 1.6089230568752482 1.095670022499553 6.911088248773741 0.29626487484086395 0.612424688833442 -1.5386723159961695
Ni 7.1682742740986285 0.6554692500491408 9.122429342795488 0.09110678340984954 1.0573795448152628 -0.568708221782098
Ni 3.0687289939698723 1.9825815448124575 8.97021305823624 0.6623637397557303 0.06836203351416613 -0.24251904857797588
Ni 6.5048835187802805 2.3982942681314547 2.1850934191368707 -0.1480351211657773 -0.05059982443473866 0.8466845827264192
Ni 4.7442007141155855 7.087100031675884 10.183500985902283 -1.2686748594922665 -0.21106442961312039 -0.05486245636583455
Ni 7.477616663807309 6.300817961436888 11.640229628243185 0.13083624078898756 -0.312202629117043 -2.3370497269767685
Ni 7.976690632039112 4.037416184390288 8.316415953840957 0.24686447003086517 0.3992588966066027 -0.978486786973102
Ni 2.865930075568638 8.49744326245364 12.29493433867184 1.2368623429673602 0.21004601565093503 -0.33457354061307537
Ni 0.24244289478876777 4.919817014067442 10.645603677039613 -0.8729489157395869 -0.22233666009283 -1.1607733731225813
Ni 8.60831517618933 2.677456023477301 5.5358618992290936 0.35914325953263954 -0.7380739861048515 0.036075662676634646
Ni 3.5532958456842736 3.323323421344038 11.811824577366442 -0.776538974949269 -0.5983869797934533 -0.6690594066083511
Ni 1.237087071013089 3.5554919606847095 12.728855680222667 0.015292921603328501 0.35642946014590227 0.13041200876737538
Ni 3.4481739259953663 8.588039840604395 8.000194530049999 -0.8739382762360498 0.2163087087311952 0.4594851883875119
Ni 5.914593321692204 8.468474591970713 3.4891401276383496 -1.0210681119787381 -1.7567985375520774 -0.3317664101815835
Ni 3.310064718748047 8.640764825635603 3.377655853205441 0.08050483952428716 -1.177141787178276 0.4313362367571216
Ni 4.016420960485708 4.69951296323535 9.493306692566168 -0.7375906187105298 -0.024650194448512387 -0.4680256217583552
Ni 5.3302900439206695 4.72338774041851 11.558460338892935 0.7698499929648678 1.4681868083810974 -1.2793187123593581
Ni 8.192210614924198 0.023348985334508264 1.8637106694693697 -1.0655368838150745 0.34493405791179305 1.443580836906959
Ni 4.875083700635331 0.5886781940026936 1.5471548165476399 -0.7817737409856472 0.11361370626311401 -0.6347292658679133
Ni 6.257096136656427 5.929720088915124 0.28121662643546513 -0.9718559119201458 1.0219757113946721 0.3058288643802152
Ni 8.69374496095732 0.35570319749381274 10.894220297607614 -0.8634078090183711 -0.4116487856305233 1.4100953035550037
Ni 0.24208750688413294 5.069271296731951 5.455879573163431 0.34995259417230695 -0.019189942664889534 0.3486454453251092
Ni 7.764022864901481 6.657162679661117 2.5767773638473663 -1.1118938738130593 0.1226696458177952 -0.7403267866947703
P 8.657650307360946 1.5825605643596439 3.276373945388665 1.1308408472292073 1.8495479987716728 -0.29536524584473006
P 1.9862356614729335 3.3396074773846136 1.5598786147846042 0.3682529351433916 0.09792766298642488 -0.31812156570463923
P 4.9281458485504235 1.2425181271967394 7.970292738504647 0.18915297425200972 -0.018150188546465516 0.7533396540146703
P 8.8982205812676 1.912242077225887 12.369021781775754 -0.5887605124472828 0.2869153153051639 -0.6655534503376216
P 6.388808361620321 8.06356019344639 1.2647289599853788 0.6565147371741209 -0.16478817225440007 -0.27473677096110105
P 1.657583862279094 3.0938066225225653 5.785451735905172 1.6887470932997946 0.2933415305464819 -0.8844484317387541
P 7.326731717013886 4.401989499483371 5.972797659212053 -1.3982286340244048 -0.455308431302003 0.45122140571682295
P 2.531464494755388 8.433218289328863 10.101157608398394 0.04616749969499791 0.7350768511497405 -0.023234030827276115
