# total energy = -340861.32141533686 ev
CRYSTAL
PRIMVEC
9.29671277901005 0.00000000000000 0.00000000000000
0.00000000000000 9.29671277901005 0.00000000000000
0.00000000000000 0.00000000000000 13.60667887821318
PRIMCOORD
 96 1
Ni 5.1924929600045955 8.814129667061245 1.9666414852346483 -0.6321383652122855 0.6036037481077025 2.5130607645301817
Ni 7.594233616310375 3.873661292401688 11.906701608819146 2.4482707646379898 -2.4410397941071893 0.5632402566889912
Ni 3.948090774502554 8.805009591875015 11.88532474757224 0.057251525423301405 3.145281147933312 0.017452134038176394
Ni 3.7879548977616824 7.080989996732244 3.0996151313206814 1.2687720471917634 0.829526582889894 -0.2364579299855605
Ni 9.055016790558065 8.433438577559825 12.14362089532363 -0.5819069798605591 -0.1594544187463125 2.3168930495232356
Ni 5.818449924697753 2.481831836458036 11.466987549549804 -1.5440785746134054 1.1350803392318516 1.3507719832043381
Ni 0.19798000524299478 1.4271848544484729 8.44257724617151 0.48696025387932906 1.1252147592916815 -1.1812504100300107
Ni 7.630156114291609 7.579684260890958 10.284172367186086 0.4060964883537264 -0.1433153470926048 -0.8906288495178533
Ni 5.012936250374802 4.57554450994493 7.825309918865272 -0.8749947425250221 -0.10772973667851124 -1.879758203806466
Ni 6.643189200942338 2.5194277427303198 7.825745005020945 0.4308983778887547 -1.2208518264717168 1.5176964850754506
Ni 7.748652014723489 9.287750696992376 8.392014284986125 0.14178554071163968 0.239530141152981 0.8742210975837911
Ni 1.7359658709983317 6.7202682461707015 6.741551210619055 -0.5665600650908436 1.2160837156591122 -0.8580154343582062
Ni 7.770833971292645 7.29733379862698 0.8301992356297753 -2.698997545837739 0.4977599155979944 -1.9698576289977234
Ni 3.7019045247507387 4.867898235104303 11.48316568903918 -3.2174453288023876 0.564441476085944 -0.005065073227733212
Ni 5.95121627916721 1.902609446648847 2.416981687152165 0.002149185132518879 0.24971505210578285 1.3929007940535885
Ni 2.688795255210157 0.7996353628649979 0.4110225444479959 0.06858880481299155 1.717551419125997 -1.5399396127443674
Ni 5.025254394739485 6.159890293061294 0.32272980432704335 0.05968738855830366 0.8462698637865038 -0.8699777489264049
Ni 2.141776678290976 1.326073806818068 9.987860101747103 0.4719198146064389 -0.7296500237072143 -0.7876821360502821
Ni 3.9570528055724066 9.066665571606327 6.019662396956295 -0.4734372796922299 -0.741815969645787 -1.3699930362174793
Ni 5.901395195657525 6.814648473785989 8.433800219684946 1.827504645818388 0.32560321879366505 -0.5910397953997628
Ni 5.421517478060409 5.364993464673789 4.282701777696061 0.8140351721225141 -0.01521476006722541 -1.5667711311149146
Ni 7.215466946343664 1.0025203137433183 12.37604986958046 0.7108457465165177 -1.0911682112299337 -1.0211447308529447
Ni 1.8016657398475473 4.453599529090938 2.618061216418696 -0.6802933276509573 1.2755646446335644 0.07144092954980599
Ni 8.73398270663262 0.5978678768565905 10.526290375448099 -0.6283611575580403 1.742547169839386 -1.4302108433579561
P 1.7293930950995915 8.747258412408293 5.056718189296338 3.198158455548318 -0.9228010633750237 2.0798121412416957
P 2.2235970470106516 3.908923723779228 10.181047651578782 0.8598092930338354 0.4500281567396701 -0.2938673211429648
P 2.9190748294842583 7.141186211646446 12.418339686109142 0.2137728296832189 -2.649177794102134 1.1463533410425097
P 6.850226993396284 7.965376981840075 12.314329923450126 1.1642597890092854 0.7084384226266057 2.2881265189135043
P 2.300285630304437 2.192490246222555 7.786326943053961 -0.2223783119640428 -0.23593496760255495 -0.057016783704676006
P 7.941066078056194 2.864382268505069 9.686512736694603 -0.029384623809704233 -1.0615861266974427 0.34752701544994985
P 0.87948668782887 1.1644690494661623 12.041883249255354 1.4404749442881257 -1.5730510505863553 1.604134402254721
P 3.322700909285808 5.943314073348357 7.7900140193219105 0.6201765648647191 0.2535673359723375 0.1935145936548151
Ni 6.829830005670916 3.6799735794252397 5.885160346220509 -0.14739054560324294 0.6315141013647253 -0.569793998647109
Ni 9.088689484059106 6.056836232470726 2.095550633593232 1.498409868931697 -2.121676128465333 0.06802984698572799
Ni 9.097921119798071 4.973992320756949 6.265399615483346 0.3349579205356876 2.187154155563485 2.4009802070821427
Ni 8.72386788318449 4.972476956582275 10.297792981003967 0.3121491501712882 0.9047246654892871 0.9915927282274406
Ni 9.201068147515922 8.313492389942367 6.140626574617477 0.15542858541637103 0.07715546343608003 1.1322271860537727
Ni 8.11710863027478 1.9990721379152205 4.4370969343273545 -0.93880540922308 1.8167090978647809 -1.6446866126454707
Ni 8.101685383858925 7.905608415711363 2.865443953098613 -0.7581735850682039 1.6467386100784929 2.22464701030262
Ni 6.083833886233017 1.1257668343792393 5.889705509073259 -1.2411902809187527 -0.07414598718579489 -0.8298032335900483
Ni 4.642285610619688 3.04476638556766 9.533818878492543 -0.9817325476039093 -0.07440566860508477 0.34976464653121697
Ni 0.5164630711958593 8.108639324979515 9.13631375435115 -2.2811696279796974 0.4431887652203335 -2.8774349334444573
Ni 5.334574620627571 9.120605098854544 7.886445101765009 -0.8729255187008191 0.7452748747286649 0.49640520134231275
Ni 4.575962862017693 3.109155417922219 4.860088066741458 0.7884200426575712 0.40143739231516024 0.5034793345802748
Ni 7.116447659077074 4.673662016076899 8.688898298257882 0.8822943615102289 0.648620936248341 -0.7141786675444927
Ni 2.4693649446897044 9.170881721287905 8.093592595429147 -0.06221349741426705 0.2754188846297902 -0.8068453392422943
Ni 0.2272367601982066 0.3148294578507361 4.079622525521724 -0.5604495813177316 -1.2533773099032477 0.45426379208757256
Ni 0.5754730255659615 8.462583771962299 0.8364615013233979 0.2893450077925791 1.2897807882329464 1.306449507137879
Ni 8.276026637648274 2.9894323514102337 2.163993032697226 -0.663003173111942 1.109175703550948 0.3089442700807454
Ni 5.397411101956543 7.32909136930604 11.054990709607909 -0.6984322033435132 -1.4717940661163813 -0.7421406999750574
Ni 2.654667022785441 1.667774483137995 5.607924935299511 -0.8046249345522077 -0.2709037703682561 -1.1108752027405577
Ni 2.4347625799158568 0.07884449097542294 2.547592133939984 -0.40635565555238407 -0.3385523227551653 1.985346468661942
Ni 6.5531319447456 2.7336704875485136 0.3107779504438466 -0.7479200256609958 0.05970178673600686 -0.7203994516432237
Ni 6.208140232119938 8.41623965901291 4.410849525282217 -0.7015113564894693 -0.31710880816940873 -1.2522653077859918
Ni 1.7909187399339075 8.115621156238289 10.85265984280818 2.7260985158195887 1.451349167998468 0.7587135167320739
Ni 0.5790810797757224 2.871977682803895 10.927741024471283 -1.9182185646651932 -0.4934299207640727 -1.1686823435570128
P 1.2651059647474359 4.179402283889471 4.663593676192407 -0.3197812127952493 0.047998125145833466 0.6620055850853631
P 4.640891103710479 3.9457387061823543 13.421164932029939 0.48964037181465353 -0.1954732600430827 0.6617793280071699
P 6.006373675782803 6.811069239385685 2.5131533913101505 -0.047894509688433645 0.5170275055783546 -0.7461742466144826
P 4.7589965422077825 0.649118794783852 4.11728536812565 -1.1593443539855386 1.552347756600733 -1.2510450622256455
P 6.669006172188166 3.7941558051513 3.5184692265707973 -0.8445312838288423 -2.116273469392523 -0.264823368502131
P 8.840188352838004 0.7871312842457542 2.191805078494497 -0.7174701938115708 -0.41157139542536864 -0.5199066268983626
P 7.295335005390447 6.837360342980645 5.276860628011761 1.3818962154129684 -2.3256458560152007 -1.0354300371273653
P 0.30765332529594486 6.717841804148677 11.066339206835053 -0.1887678229984491 -1.0479729067893824 0.10086283435534886
Ni 3.0462073760405093 5.631632482427343 4.51193361244571 -1.1448273913162865 -1.3589676316412531 0.8822619656103968
Ni 1.3472238282744093 6.386181577575058 0.11763688417580818 0.42870317000964875 -0.2520773816903723 0.2665858597191925
Ni 1.3007309679213703 5.928104651325247 9.214183949832673 2.2904718792172294 0.48676202182559386 -0.23380892239848766
Ni 1.3277844019600316 4.316696137457494 12.439579885678945 0.4519467139186216 0.7641825102664452 1.2594764808224503
Ni 1.011584608653179 2.2603841392755935 3.238008786004434 1.1781586584785646 0.898232372896724 0.24794304780702456
Ni 0.4486946837646497 4.002290609707157 8.510582699777284 0.03532541477417142 -1.664013852219173 -0.4451494884911301
Ni 0.720382746200813 6.88824125174133 4.283015076914997 0.43727908460411785 -0.3798871769482103 -0.3580546544541511
Ni 3.522859134320988 7.943966652427348 0.9169161829433212 -2.047943831778189 -0.983441816985532 -2.5960598312312326
Ni 5.769986161246365 4.951912628027801 11.85279183105166 2.3227734195634127 1.5122691434122923 1.4985150270509935
Ni 8.27408362468811 6.034821616730674 12.746232884685352 0.7206966711686685 -0.5797045728926017 -1.866879548071585
Ni 6.103812521885624 0.942268318552747 9.927093068671397 1.1297869520433963 -0.3991547669285706 -0.41087899734403427
Ni 0.7174784531445664 2.9573586924984188 6.430924796592675 -0.46203443717192694 -1.9001308539255468 -0.9202415301779636
Ni 4.918137670686751 6.738238791874046 5.926756627979679 -0.5136835288067862 0.564475414647673 1.8302112461162738
Ni 4.403927192984901 2.246848125543535 7.118864804386369 -0.7864418358852778 0.44125503853273046 0.8188341361730542
Ni 6.8986535699967595 0.1712435891083606 0.8453026751277852 2.529906632442927 0.7658791812425777 0.2720080591760283
Ni 6.981059631618303 8.282301918739718 6.68307023920318 -0.8697386363324054 -1.0874881912751853 -1.1733465818019018
Ni 4.059465392984739 4.742197382308174 1.9974470725303552 1.149970883190439 -0.06906034513277139 0.6985155070859389
Ni 8.282961985343409 4.927769065073024 4.274864648866305 -0.20125104306712435 0.7075578197938653 -1.8270130508939502
Ni 3.2794433049621343 2.3093499252142973 11.729202261716072 0.09564632315141591 0.5514525200254438 1.2330997906011345
Ni 6.641878364447681 4.911927466584406 1.4373275680347886 0.519811238971079 -0.0543466930716806 1.1799280916741615
Ni 3.628162999391749 2.340456726002394 2.9844753441836307 -1.202951292042212 -0.6940281607385468 -1.2241035006397951
Ni -0.07310005218075329 1.76082528083317 0.38247419900266244 0.4448846648655177 0.12693382041078785 -1.8515814842619338
Ni 2.7349069503413457 4.467972246968522 6.512428147408324 -0.18311936646342014 -2.551960269808857 -0.3238073032355068
Ni 3.8630165563280565 7.398881791755604 9.125006162660009 -1.673785586893956 0.4313300661095346 1.3659342927670735
P 5.342337375755503 5.377413872878481 9.900069384113465 -0.7522078544030723 -0.5087932905940206 -1.0574206824658434
P 1.8213933642564955 7.126255691005179 2.2586819111750853 -0.8417033274617439 -0.19127593413228347 -0.5252915453593598
P 8.203047442732986 6.673840462806759 8.203602456482852 0.26886591400262083 0.19597102561510765 -0.49752543098968505
P 8.03180199428208 1.4740960668742749 6.356006307402313 2.2650554960266542 -0.5940425867818285 3.2374649664574244
P 5.037107703467763 0.679972724985745 -0.17345806608018505 -0.7793736161845868 0.6421286436557779 0.41404659643873853
P 2.659798808211331 3.540662339195227 0.9136874346128653 -0.6097054901300661 -1.7633882749544534 -1.3442496087047882
P 4.151753860236213 0.2160639708416214 9.57882984283673 -1.4325729158322296 0.537406583455339 1.5192198636985126
P 8.451976222739582 4.2263878700170965 0.3192491150816569 0.893881552127196 -0.720078063748063 0.05189231799391708
