# total energy = -340891.5001299994 ev
CRYSTAL
PRIMVEC
9.08913061463552 0.00000000000000 0.00000000000000
0.00000000000000 9.08913061463552 0.00000000000000
0.00000000000000 0.00000000000000 13.30286139792509
PRIMCOORD
 96 1
Ni 6.665550426510294 1.9471463123818065 11.456982979853517 -2.7672487648056534 0.2562271421926877 -0.803649458012816
Ni 4.7080334158891 0.3605349156726673 5.777046990014004 -0.043907500016227605 -0.44324430104861734 0.6343991362220042
Ni 2.9056406005804707 1.8133179505266348 4.808465584456818 0.16229060264352696 -1.502323087943174 -0.2726937723891433
Ni 3.7416952078126164 4.215666111484285 5.234144118377814 -0.5214091795858181 0.5552461827399211 -1.2464651561644469
Ni 5.198919191974003 4.679575347363663 2.715034256462538 0.12382329980626418 -0.8355146821525288 -0.6069821776616321
Ni 7.382928252925884 6.062586578567465 2.714395290567509 -0.48835944821970084 -0.02532768013151122 -0.10191364421736641
Ni 5.068562878083289 4.525969036894198 11.886878870464326 -0.8766140232959999 -0.9048902445328738 0.09952406093926731
Ni 5.7074469709359015 7.698039328527415 12.617711337198728 -0.8121322986728464 0.45326286162688395 0.5996254801862447
Ni 1.9734957025623376 6.350648400917095 0.4039218815321934 -0.6662741305537299 0.43826227445299354 -0.1304274353863431
Ni 2.803696909561209 1.6918235391630054 0.3253663418797974 -0.9677611730254817 -0.8243296120699868 0.09744918068810958
Ni 0.6763949356518721 9.113580558853716 4.822939116337977 -0.5433710285688901 0.11779766243747454 -0.37459198998754195
Ni 8.74346206366868 2.300858926478238 1.3262696054642293 -0.15463360031890142 0.4451638866688333 0.04342284707032522
Ni 6.905967025221999 0.8871555183990939 4.794311081066635 1.5919319466512585 -2.214271580605567 0.4013378906228185
Ni 0.6855640507998957 7.328248042051073 2.4678935187872058 0.5491159014724672 -0.12072743448975981 0.05156655922338216
Ni 7.5780809802684805 3.68757852304722 3.7895858379820604 0.7844160637045007 0.40653280456019664 -0.2684846194038021
Ni 7.552176957497003 3.8719606303953604 12.73907304725272 0.3132737506940347 -0.7598856826633043 -1.220572347558085
Ni 8.232789249838687 8.816756814415767 6.9235008674425105 -0.0711730206004 0.7611336961377924 0.142685941038722
Ni 6.692908710209294 0.9805626977738039 0.20832015112822458 0.48095081446045557 -1.961056485766326 1.7792229279938647
Ni 1.7823149253780346 6.564179350731244 9.338928287617057 -0.07035181025068529 0.6611488935120227 -1.225751320655863
Ni -0.20550615623347035 4.968118893645534 1.0943240766553373 1.275347900637068 -1.7295592422201502 1.9448906746397407
Ni 6.476796447248793 2.0148239802963412 7.180977764660203 1.7549751111900938 0.2894671351927402 -0.927602598528725
Ni 3.582099160147922 4.350003464664089 0.7008283370603938 -0.044355129076607484 0.48284006106336846 -0.725524431574615
Ni 5.917160485815308 5.539288962060424 4.774410429186583 1.0527183918941676 -0.360493860023263 0.955209047392084
Ni 5.114753840793693 3.001676356581676 9.19207792806901 0.17522916508206593 0.1889519139847972 0.8330983594015523
P 0.10742080123753954 5.637733337722837 12.400488382454833 0.7639472543271876 -0.06946837920446747 -1.4482646155358736
P 4.041136621920103 6.17804580708188 12.870345545527773 -0.00666429939405304 -0.07442623743037505 -0.6677507150992564
P 2.462618187272621 8.459772113232411 1.4047687925056838 -1.34989189459223 0.1968552279922739 0.2438056285998833
P 6.579894457879274 7.970004300235541 5.8484830135131025 -0.7445801626544855 -0.0699975122350601 -0.42441199883346264
P 4.582121686958124 0.9929966287041131 12.55806118960411 1.0218062756963435 -0.6218788922678063 -1.6290725602572975
P 3.959488959970564 6.258321010281069 8.075900854238421 -1.402531632275133 0.9237958231881251 -0.25835601561023247
P 4.695708554528355 1.027435345293983 3.6050619401934876 -0.3650917638065906 0.17852300534198934 1.2772317479233422
P 0.1702675961334635 5.365886524715072 3.535514638074008 0.5071434136954234 0.7514424369919575 0.6543562960702214
Ni 1.553596038002081 1.2673156852886647 2.655185056903468 -0.15822825964869522 -0.20601581144561942 -0.5180973416037659
Ni 1.733433579951716 6.676893661744963 4.852591496650142 0.2626533574340057 -0.6031797731964064 -0.5098140185490511
Ni 5.569801174145986 5.604948842938023 9.225866771806894 1.913818892935601 0.2951047930944918 1.2181254286794894
Ni 8.471615250660916 2.446812188816621 10.292490813445266 2.2833779484849255 0.7095496534129134 -0.7964220870264412
Ni 2.1754470997410977 5.183458580488289 7.13013407589481 1.8627228455907339 0.40864445158656076 -0.608781692764216
Ni 0.47027798982884284 -0.028361723738989254 9.279118171320414 0.6073012515639477 -0.0947315246466304 0.14052004373565477
Ni 1.6827889431507776 1.2405391059606738 11.300967140809764 -1.278598803474198 -0.30198146560966704 0.4631929762564023
Ni 4.029002632306095 6.85967608207283 1.7745618968081853 0.45320038382006467 -0.5400514772773538 0.2577235242325561
Ni 5.891947236984403 7.879603805328482 7.975437782625993 -1.3158240063742437 0.40305435909329296 -0.31656450563016447
Ni 5.591442394573667 2.656198494987335 4.759870546650606 -1.6601602828010376 2.1547867949763733 0.7411114873795946
Ni 1.1395043280211135 7.52032864318428 7.138647864712369 -0.9475281338080586 -0.21741891107623845 0.4630551651269573
Ni 5.1979648332403166 4.749370782753901 7.067025514031933 0.1483786205481251 -0.5054979076722004 -0.1727825033137863
Ni 8.020667115298073 7.156381667810415 8.961406695397859 0.4157993174637871 0.3861678677505994 0.2637931274654038
Ni 4.915983639393886 0.2403011667505831 10.37572634654504 -0.48729938238630266 -0.11363813174314621 0.5538690998867364
Ni 8.235534167339384 7.25135399550837 4.565981208488794 0.1762655767663803 0.05224378779606487 0.788097626321146
Ni 7.2472366192573245 6.076320255201745 6.812368974100553 0.30986035413711155 0.47645369792105036 0.35277720810529567
Ni 2.2741187036734356 5.079297141554557 2.6795021174377878 -0.20484415973502143 0.7138230839772868 0.1972486067759506
Ni 2.2619392684054427 5.349744228419582 11.358741291807878 -0.949018859420972 -0.5068474797215594 1.9556119177119866
Ni 1.1097646920532975 3.4246117908281337 4.091880330246728 0.2042306945207386 0.010193395593234058 -1.0412199043362649
Ni 3.5982050999202233 2.8506968049125465 2.641375940483571 0.020511232579474355 -0.6169117780705182 0.4201892190013667
Ni 0.8258138835631548 3.710683093533219 8.313862478721854 0.31351569150151165 -2.6861176045512773 0.18363847219168375
Ni 4.1025700569770915 2.6942455965036176 7.07025851785643 -1.7290491353529513 -0.4988737174874634 -0.624883226311769
Ni 4.11400418351973 7.002329989931897 5.994775300430214 -0.01608996358332713 -0.18034000394607005 -0.13028191094741434
Ni 0.8361836728894632 7.550368220468397 11.372204112344408 -0.2925594009648187 -0.30131323589804887 0.18838267174488846
P 0.15244108390128827 5.675335071830066 7.947129684758706 -0.30460707615797217 1.0416811602433995 0.2438105136958898
P 8.628266419947378 1.6474140460888158 8.131121868395654 -0.28973401570088164 0.34557657659179836 -0.2022956822815548
P 1.727643803634021 3.3562887946270115 10.332080340457798 -0.5529676711183896 -0.2962738737019285 -0.17768533993204236
P 3.9816119043304856 6.028456892424692 3.960767800673703 -1.191947741842857 0.6427241111479318 -0.5026229001172505
P 6.638628421089552 3.949972640026095 10.364233140652221 0.9239711724237248 -0.15090267252155948 1.3423950719945525
P 6.2885514593119245 7.531989997996844 10.213804390309392 -0.2716182799367774 0.5418008558682927 0.45804537061719175
P 2.4330603339207455 8.637555511621922 5.905751808838901 1.2202051940266534 0.48818769852852695 -1.1518737566401065
P 6.744571329659498 3.571773907562519 1.3879938927067226 0.5121683777138405 0.8553067771777915 0.8248949976551534
Ni 5.045031118449831 2.506818630338479 0.5627508065576201 -0.15313207607271048 1.972071348819591 0.5291934515169273
Ni 1.524647156413605 1.1667262747581577 7.172343999316125 0.22691116683738988 0.4451425465125946 -0.0183299086574394
Ni 7.083414125772022 0.5298045252446191 9.259310228574492 -0.22782056602553669 0.3236291257864297 -0.06631106452240838
Ni 2.9395794149765053 1.5220840215288483 9.29798175337653 0.07769822331342748 0.1789420951572789 -0.9284325506291882
Ni 6.437113302189048 1.818935033359187 2.613759525469937 0.6376811494073856 -0.30930319608206086 -0.7882984294780423
Ni 3.874560121803305 6.90994806451109 10.556366458744051 1.2426293273581244 0.3696590714622988 0.0017653194305388951
Ni 8.07697428058555 6.9557663728588155 0.3740486353416614 0.8379783132016728 2.781098269094236 -1.001700506085404
Ni 7.480300111154249 4.046453763436354 8.402925053575593 -0.12010188509061896 -0.1363977940371651 -1.2182383001082697
Ni 3.3181326235411643 8.292695710921778 12.525961106368312 -1.1106728569217645 0.526771729449312 0.32667485459128903
Ni 8.866383468567442 5.171615443059785 10.115908089234038 0.44770002282712573 -0.6515666491402262 1.3425459957501202
Ni 8.958420007017962 2.3671550465116273 5.806233097916282 -1.2422436618839316 -0.16945832403655978 1.235288313612021
Ni 3.526191916615515 2.7852550631740765 11.330485910899212 1.0954532117585327 0.039154301601958375 0.9161282793405383
Ni 1.0759349472268271 3.4056155074623833 12.58402792737809 -0.4765442007523277 -0.022670187904006118 -0.17907296430818836
Ni 3.309770623207916 8.556135077942308 7.884392868345426 0.6961927724900333 -0.47318016937610125 1.082007113555956
Ni 5.609084397450662 7.728615164528556 3.8526816750618225 -0.14595355604640026 0.8774190356957985 -0.9041693072064492
Ni 2.9992222912664834 8.522214441807868 3.704035303268286 0.6033960029722704 -0.20678688528368902 -0.2867535929163191
Ni 3.3393921004753704 4.682129393117622 9.472594862944042 0.16481953971296776 -1.3572542484945722 -0.8787403256103834
Ni 6.874854930503835 5.874305234107407 11.5110196802679 1.5857736403593463 0.8548948864513535 -0.33283778886889126
Ni 0.8177890899824748 9.106763710755958 -0.09159298886762673 0.12805173606531495 -1.0186911271061296 1.6039649665563924
Ni 4.5665429167720495 0.13502994494653636 1.7031122396128915 0.4809541568945653 0.07694720408001587 -1.19039016754775
Ni 6.21391151720688 5.6302711613384915 0.6739326901189622 -1.4269846231111747 -0.6712813539603343 -0.44709092848821713
Ni 7.591569250371243 8.658233284185119 11.65226931741883 1.3166675853214616 0.0910695024140109 -0.5366753617162693
Ni 9.187656974849345 4.950040612490281 5.8973979887233705 -0.3249882109174855 -0.7883243976199714 -0.9148717812256179
Ni 8.157104057691987 9.040840245085246 2.0773617447451667 0.6068646782471613 0.687136832935352 0.5436073129494121
P 8.670767195554197 1.6319079889491173 3.722938877499907 -0.06295628911756254 -0.11869626299234395 -1.129262961219126
P 1.7416683324538071 3.3051987904170197 1.4455153658686786 -0.22948972619784347 -0.32045767003698356 0.5754244574600089
P 4.923191320115915 1.070254240478696 8.244555129655417 -0.31902890801025696 -1.6052602883290483 0.23653403463913455
P 8.584338650805432 1.4950711248001352 12.500805119061429 0.05805499516120324 0.8537026659154652 -0.9147013170860246
P 6.510217181189398 7.800810130449205 1.6001741976844372 -1.674602940588929 0.04756463715284067 0.05749475178235904
P 2.0217044523096774 3.15172881690951 6.1300651945175435 -0.9359589409132203 1.1577261016558256 1.4289702860826357
P 7.0454397373021145 3.9503180269963813 6.006441199808176 0.0425152476543913 -0.02431646525817748 -0.0583262465447189
P 2.502728521479825 8.578267111433028 10.187437730780346 -0.43738784226784033 0.2962563902004317 0.18613629891287298
