# total energy = -381170.06479733274 ev
CRYSTAL
PRIMVEC
9.21986850368798 0.00000000000000 0.00000000000000

0.00000000000000 9.21986850368798 0.00000000000000

0.00000000000000 0.00000000000000 13.49420951373814

PRIMCOORD
 96 1
Ni 1.0629217321936733 6.737400291076646 1.779225283122479 0.1466690940561861 -0.8979009576992343 0.893233891240868
Ni 7.413428691486382 8.645968340054697 2.5636433767806746 -0.1735993427881268 0.9645182406081517 -0.4738391431163388
Ni 7.525007537165891 7.202699382541509 9.327197668149758 0.5568497797816151 0.5618323205978711 -0.47746722678722936
Ni 6.015456946733352 7.3786605682788595 4.239192163309077 0.26473569388433116 -1.7983797034279736 0.057249468540772376
Ni 2.0053121266276195 6.237360736009042 9.986038390149663 -0.4651241318408441 -0.6257062364336966 -0.1774644821704879
Ni 7.949471832108314 6.692112298184749 1.3389830276271426 -1.0829278255980124 -0.7767161239570817 0.1819932232787769
Ni 0.6579012174242381 8.487783060322146 3.3090227042534317 1.346374625467591 1.366345669272879 -1.0953606520447263
Ni 4.450024734778459 6.177911025470166 10.154324957547598 0.11957043806718116 -0.4650212877143927 -0.16864251300348373
Ni 0.8477005034326498 5.555560698068703 13.253661119956334 -0.6337244787524828 0.1671888112760927 -1.0983385037261275
Ni 6.496337615557192 5.252014975352915 8.243679672250625 -1.1998613402629787 0.40651686372059664 -0.9399454363647942
Ni 8.316404149109891 7.867608621829984 4.692408617419536 -2.226721890553778 -3.146120870225788 -1.0087057337586434
Ni 1.9960461590265692 7.4700018031282145 12.193165135101804 0.26599553443336127 -0.057158194378546724 -0.1645014942519167
Ni 3.782432513826397 1.4448916543269041 9.919822218294957 0.6296510800140576 0.03664670468875624 -0.7809234771702098
Ni 1.0080358564433745 0.8178539459021832 12.728007848876317 1.1481261166722163 -0.06775396761652203 -0.4845076785737784
Ni 5.799619830772576 2.1384009249571276 11.722432775271468 0.14772787433800366 -0.3597693231524126 -1.4215773360526744
Ni 3.3014043271103994 5.346076071338897 12.13698847779514 -1.0657744537471774 -0.6466782106996732 0.3745544518813872
Ni 1.4581498248844265 7.310719359072754 5.527376482785469 -0.459049386401674 0.7330418229975827 -0.28368549551395655
Ni 6.292855123064484 7.941736362638383 0.09328109513120647 0.5656234122091872 -0.41254198686875404 0.326934793120895
Ni 3.9389397775356736 5.563213188724296 3.1039783660775218 -0.16968123868064325 -0.9967285067921091 -0.9822791641359987
Ni 2.898735800734027 0.8509302232840406 2.7966617172434955 -0.7918668635555911 -2.0680478016169155 2.3044627941796825
Ni 1.4905576618174519 2.0415738684932205 10.511327476433422 2.4218020289235 -1.1656576977980764 0.6682911609837587
Ni 3.8002176396994574 7.2968803368148665 8.22916022371517 -0.8166615540017677 -0.3661816544366597 -1.2434389677436133
Ni 7.701125460663657 0.9678648904356386 7.569090493276239 -1.0253389714399501 -1.7342283655610455 1.403499909725673
Ni 4.441809832159022 8.293068662544462 5.968717746577369 -0.4235707338790899 1.023071258451696 0.4160374016165222
P 6.011704460351632 6.127506005694107 6.025339723520978 -0.5662587318003409 -0.4606020756007745 1.0205770312749327
Ni 3.623334467136131 3.0546806524794583 3.1541233855686563 2.2962080103700586 0.9570705260808549 -1.5389384251733624
P 5.31707036579372 6.961415430183821 2.070025459955987 0.39107019014822325 -0.011519570603825323 -0.494370173190155
Ni 2.9455081924157445 7.53058555746304 3.2981875150745723 -0.19796491611668487 1.72101263820172 0.3845149055282088
P 8.468863890653136 5.792031879194801 3.389907686509403 -0.4810459452774231 1.3987819354247137 0.45266790835536236
P 1.9249333151391086 4.344558661755166 2.8519339054738784 -0.47473491545773083 0.85990262407859 -0.8469846304653413
P 7.721575128463785 5.234146870665517 12.587074786631412 0.5814534372629083 -0.19982845168798488 0.6407299635360385
Ni 5.890619930496319 2.2614031874104676 4.3418424885658435 1.479361594050994 1.4513815638983005 -1.3216195300100981
Ni 0.5195497182920641 8.582747703397583 10.566977679262456 1.890405399107667 0.7277247816600435 -0.7935653343039366
Ni 7.506383403281193 2.3547912330134877 2.0948407353771072 -0.034767228277856256 -1.396545075674395 -0.10548464939807639
Ni 8.55728242726415 2.1048682640964125 10.610347939556325 -1.81733541859487 0.2698113086350256 -1.2197071713443122
Ni 3.473142813184784 6.237102579697769 5.567548370780031 0.14586793831112943 -0.39242876105864677 -0.3769720601839443
Ni 8.87707355785362 6.348441708802524 11.077841359667008 0.406403478071184 0.48074666886944956 0.5089735249256268
Ni 7.598157971938756 3.0318338189317946 8.379377693297643 0.7107531868027114 1.5956237936805486 0.3843547258012606
Ni 5.458549244239601 8.238118247716345 9.54180946361881 -0.42191674321543465 0.2770579628951099 -0.3719501814893207
Ni 9.239690976509634 7.667039607707357 13.092769808889546 -1.8198787538420143 2.2096952740887943 0.5097062893265931
Ni -0.16019705498682849 9.028076560211824 6.222301003193564 1.7161797355894508 1.444198672996616 1.6010033128249073
Ni 0.09938833586646564 4.09319739338957 6.673561001259303 -0.38783857058480303 0.41544913321321997 0.37036201106659444
Ni 3.314385901620129 4.020185256640601 9.986375837327971 0.42159638376153846 -0.4682431370858 -0.08107922397051844
Ni 8.900519682838167 4.5223453814079475 1.7563249743389093 0.7846297223772036 -1.2675227481656945 -0.987454280579035
Ni 8.532766797561472 6.586010054251532 6.94743995387569 -0.7094018149811395 -1.3028623040072531 -2.099246852927539
Ni 2.083358311446413 8.760525203182105 0.8961877906106811 -2.36153794192612 -1.19622117240723 0.20047662679494505
Ni 5.581717464321617 2.805661230651839 6.871372352785439 -1.5837010741010338 -1.853439363406279 1.000443236639535
Ni 6.921299783385643 3.3955391820424587 13.632524868472855 0.9758071832584098 0.5190512208766028 -1.2904683012182743
Ni 0.6441119824549543 7.5890856215711615 8.309342652009748 0.48866643793715847 1.8207308174296644 1.6539191869873324
Ni 5.01582039027461 -0.09544776417224798 3.4059926686753648 -0.3363720272743949 1.7649445636979797 -0.5798655239504981
Ni 4.234777690386309 7.627873607339934 12.234565109548562 1.0404218339150015 -0.1973977307593052 -0.03394936036225121
Ni 6.304536696149589 1.2301240430842606 9.569404529320245 -0.005325783088287602 0.5293307484257399 -0.5067919438932756
Ni 8.357008448925836 3.60409260207803 3.8702333192640075 -0.4981939178116195 -0.03837962821946293 0.9896214634336828
Ni 5.324990232628846 4.26103587519008 11.638458215161656 -0.7241445205079529 0.8438314295483402 -0.7804650494765526
Ni 4.020517171897952 4.900645795973798 7.398105270438675 0.6621025156745436 -0.28332476974042814 0.4806800772975722
Ni 0.6658238502198423 4.195399633048912 10.850801181783808 0.28685515149118984 0.8304575793445956 0.9452246824858624
P 2.997664987161157 3.021839481738225 12.117800087972945 -0.12855978604998503 -0.15352648329765173 0.09791814990472814
Ni 4.723209431314887 3.4969300732949424 0.44926113062702505 -2.1635501429913 -1.3492406341614762 0.24863724566057183
P 5.700580005926329 3.4214101323793207 9.530824912574143 -1.1000814545591635 -0.15873039609609438 -0.3706425184214907
Ni 6.364309102077556 0.38185282980633234 5.515717959371014 0.7914557441601014 0.04477113356810354 -0.031662106989971274
P 5.678018988294718 9.123686594065443 11.473194842566095 -1.3283185392968284 0.7267675599530966 0.8405789840493135
P 8.330261611104298 2.171472592404855 6.0778726888913885 -0.30580855266524104 1.3555789176746784 -1.554869237471006
P 1.230299220581196 0.7310931416042727 8.746433556533901 -0.12338904048232298 -0.30291014807152344 1.1198069580125487
Ni 3.526848545797835 0.7306303042176333 12.263753368485284 0.04831539927593615 0.3260814439816642 -0.359438165065239
Ni 2.185920125967885 3.9440844640246144 0.6282353693116628 0.7702940224808218 -0.38665329202745025 0.329202248998833
Ni 5.978236338568736 1.0051131582050334 0.03797479338826311 -0.6675015752029279 0.026034733500864844 2.901164930071545
Ni 7.297553387197828 4.547358883996653 10.454368974298333 0.7407610460187114 -0.33969723499288595 0.6815639668332649
Ni 1.79742253710675 5.806405653811753 7.549511181039831 0.030781504157230858 -0.9360931524982394 -0.6721989806785971
Ni 5.683301972807556 5.529837265623997 -0.03840904918329739 0.3136499030865308 1.8513511134186826 1.6415413821482694
Ni 8.4783326953559 1.2220197788839393 4.129052539064916 -0.10613565271851398 -0.519211657713867 0.05548080667612381
Ni 6.0768428296067745 4.370208335253794 2.2815338477688085 0.11869240633760203 0.25213446018055286 0.7984152061970702
Ni 1.1007600715316919 3.4973818468396702 8.725679633081201 -0.9016588820797697 0.668303759389249 0.32438400167458326
Ni 8.759105343470104 5.3300795999082276 8.914085796995565 2.2418988554045325 -0.46093966144585136 -0.7287161990390354
Ni 1.6583961436179622 2.5091226078134623 4.11527528992437 -1.7744895270739374 0.030206348380051203 1.5304149610833835
Ni 4.945638753081384 4.512719838944768 4.830117491734006 0.22236108557286222 -0.7149093750629301 0.8502226777866647
Ni 6.649617925375555 7.924181733471817 7.184991703561831 -0.8804238839603935 -0.19302171317879663 0.23778744743026145
Ni 0.04193472680582624 3.358290914273064 13.042463441703868 0.31004958732978216 0.00917960961673903 -0.21165784022274517
Ni 8.113447189107989 1.4315505049550443 12.63707044425674 -1.643447340921731 -0.717920651085428 1.7763661752713602
Ni 0.7036004164405208 2.1190668612164294 1.6435272620754615 0.3651470425245582 -0.15442148430809532 0.3864185503088248
Ni 1.217077929496713 2.026858958750658 6.9089672876014 -2.6249400046006923 -2.0859267387798655 -2.130691958810698
Ni 6.4115056076992225 6.774353523061729 11.470266612406796 0.19806698891218794 -0.5838414778791107 -0.3660744394348341
Ni 2.238832949910597 8.985600627139151 7.125900645898259 1.308051047297044 0.08197833874602009 -0.3897445293582642
Ni 4.2530883487501745 8.642261953014277 1.0915586430084603 1.299997323754632 0.4907716572056193 0.3485996796888383
Ni 2.871463430421683 8.39057798925959 10.189693294178829 0.633932738108547 0.6961539488322978 -0.5160934237998596
Ni 2.9742188621766097 2.7311001560352315 7.826506449128013 4.148920265802326 -0.7994356770417845 2.102683389412914
Ni 3.8336212224045356 1.5276491918264308 4.939865271577127 -0.02462576896848017 -0.035261651415771526 1.9089551370853963
Ni 7.730988613956991 8.757851441386777 11.247234311256113 -0.971518583185385 0.19582318718333375 0.5283295608547353
Ni 3.0333366574581344 1.5918379146508184 0.8769994007884869 0.8308231902141305 2.7043757794305163 -2.2809757668013364
P 2.781366877787395 3.4723591243827054 5.922770533104899 0.43872173058791536 1.3128710943935067 -1.1461080578009228
Ni 0.8125064223115275 5.069618321570258 4.710531190470903 1.3223037005613163 0.7689493355274692 -0.2707140229549531
P 8.966414081290608 0.20033298549517728 1.1472899806781782 0.05513730729377601 -0.2945859444765443 -0.06007151137059978
Ni 7.043112682833476 4.1335711964990205 5.920314360200501 1.08667032335958 0.7850549828400802 -0.3599336166444188
P 2.1119860023929404 9.528180654357246 4.892595007009383 -1.3076216730691095 -1.8354735229564778 -0.10690209857089332
P 5.37040730367638 1.951007102577685 2.1919720474935858 -0.543791146825444 -0.107049422782035 -0.571515609323906
P 4.702142032341356 0.5890813547729774 7.843657248064802 0.24809602844512113 -0.4750938414590463 -0.1832479216214844
Ni 3.252520585597199 6.5006986132440545 0.8083399638449459 0.1351472094595156 -0.4455022438448586 0.0628642436243885
