# total energy = -340873.10801986355 ev
CRYSTAL
PRIMVEC
9.22291631066055 0.00000000000000 0.00000000000000

0.00000000000000 9.22291631066055 0.00000000000000

0.00000000000000 0.00000000000000 13.49867028731655

PRIMCOORD
 96 1
Ni 8.494296708237732 7.1633099852815585 7.752597156078487 0.5426814587010331 0.17187747500101366 -0.796839634179834
Ni 0.27197273479111356 1.4985025520848922 7.189297396597751 -0.02106042021472502 0.23278562334029587 0.5639190279235707
Ni 2.2420632887576075 3.356449821927512 4.536862290744038 -0.6354175501841896 0.35555091419569085 0.1457748643766909
Ni 6.918672129881058 4.856031455221899 8.738094355961437 0.2205163190546396 -2.289429296885328 0.5279307827544198
Ni 3.0742839200190133 5.992423866732447 4.876151247175007 -0.3477057071196592 -0.35740673645750703 -1.2904127653899906
Ni 2.7025450548060976 1.2433782408280154 7.041567489851338 -1.769927875845184 1.0487709772106453 2.4945639912775746
Ni 4.766984198147749 1.4859778317216923 8.246459423165659 0.07238658129252695 -0.5331087274109335 -0.10613488138756559
Ni 4.5621616725027225 5.410642305237118 0.9098360835563318 0.31258366660554554 0.6265403022992178 1.4639851115949238
Ni 8.205739325319145 2.4947250813569184 2.7427809495457853 -0.9687582468314284 -0.2625016623474899 -2.1661209890422692
Ni 3.187956363668822 6.2592059442184 10.913809829292838 -1.8785801243379647 1.3479957060107817 2.1510766931146375
Ni 0.6214465577147794 3.8174757400389097 6.36594552167011 -1.0102540520823697 -0.8871696873246592 -1.0193038209894638
Ni 4.671776032971524 4.071769988826944 4.682877657346475 -0.21006375626274792 0.5324232713081346 0.4309174040521482
Ni 3.431745710767839 8.79915098429459 9.823049640861086 0.6212559139718268 0.03250234350307951 -0.28128768470574134
Ni 1.985205069232482 8.926473344098694 2.358298780852875 -1.2687782178393503 0.5753614654325575 0.950262502020086
Ni 5.980102050528298 3.3877523999191914 12.86003516498848 -0.08078200444507377 1.1396062521266632 -0.8880670023279479
Ni 6.046682283445779 0.8980445850406092 5.662570875988952 0.5604333833678155 -1.9438252094897037 1.6259391568346386
Ni 5.0932079713191385 4.793444745071181 10.750233107724592 -0.93130344441908 -1.3176734008781565 -0.9535239463801773
Ni 1.571492711845102 0.9488075164684832 4.888125359433874 1.6711000696419929 0.8127385647982777 0.42199696163406675
Ni 7.898210403529352 5.17328133081347 6.348815799188099 -1.0304156146319092 0.4982216857257613 0.6118580176966947
Ni 6.224666122598235 2.625146341044703 9.908172547040875 0.7285585904152485 0.5704547721595595 -0.554042135129491
Ni 4.939858541658663 8.396672138985542 12.033888746415736 1.0600540063236326 0.47410088141815765 0.5478262361267662
Ni 8.916448034058343 4.055408535274427 10.17840215064742 -0.42438731624311427 0.8082810432475563 0.5712369017412227
Ni 3.577910488614668 2.6247220868939607 9.897332853489425 -0.31677636453065444 -1.1653946739446768 0.5310495308890596
Ni 1.6822045993560393 6.00343602881909 6.5972590298624265 -1.1102630230778558 0.5516818624274306 1.9994564257007632
P 1.7563660694889487 1.1401645842856214 9.080353091447599 2.4983368280564457 0.8049771756853038 -1.2503151260381564
P 0.8008239795232573 2.4729497759242856 12.049480086455494 0.677357127840769 2.0688456149278625 0.19444276189603932
P 8.307707888158276 3.207767187925194 8.03743216997013 -0.17849292343500228 -0.0126084327926299 -0.04988300087337215
P 3.903820682631162 4.858097388477685 12.553425767955837 -1.0888007394390216 -0.16275391543319065 -0.700713286068206
P 6.321110158561403 5.625628484667304 4.7000617950347765 -0.26647658783483785 0.4122583941900642 1.3358930092099768
P 1.0258742052423413 6.010888145206032 9.212680727938823 -0.18350014684160657 -0.37610174176384903 0.18727349784110972
P 7.115811966231131 4.636387703049875 11.150725336858208 1.0820515936406463 0.21127011786602323 1.2008031353509576
P 3.0605878892831133 2.0338282840740067 1.161564517024011 1.1413669435715117 -0.21259475021471774 2.138477259183072
Ni 6.824174129261509 0.21459973923635786 2.1916037912766773 -0.031333777116275066 1.03816723355287 0.002055854087764201
Ni 8.552677768546314 7.647171844202444 4.889569668129661 -0.3647251244957912 -0.8584710338383861 0.5341052869962479
Ni 0.6801190621790895 4.142020942439974 2.574708978562941 -0.002169496847493038 0.22324297395718326 0.3935767586201609
Ni 8.478138158844265 3.841436876639494 0.19285025796942246 -0.7439386724157446 0.11172523099114953 -0.22495352889038678
Ni 9.112232101709306 7.427205289959203 2.4440018084692223 -1.161964050996573 0.4002809101132139 1.156343362375686
Ni 1.9424384062544569 6.302387638430846 2.1972869523133514 -0.4959280045955782 -1.5291684902707923 1.9917834825365375
Ni 3.2599688942990617 2.765915712844056 12.60970215876009 0.8599165080356609 -1.1152239666275567 -0.17953422021532306
Ni 8.587189921417517 6.508990186925724 12.278025797460037 -2.1333275966613323 -0.7626812431305703 1.1249249959654046
Ni 5.888195689394801 2.9608420492772165 6.744287072676852 1.1718319449295884 1.6635405121271805 0.597876358705622
Ni 8.94044606232421 0.5779392945562202 3.951613835003844 -2.9370984107433613 -1.771651800514826 -2.1478389029036298
Ni 9.017005490700441 0.7555136362240461 12.91952297525552 0.18292216285094948 -0.5507668068123289 -1.216937064798343
Ni 3.595913621272228 9.25611881922498 5.518985747836959 1.2976522205612233 -1.041454388944574 -0.9192459990339136
Ni 5.17678603901525 8.478368731752276 7.610523663911419 0.04958706689950815 -0.8335159065549452 0.15803645535286331
Ni 6.031934840249347 -0.21120847290532058 10.046358579978865 1.3588352198284468 1.704399198014755 -0.22291412986285483
Ni 0.5730465374482101 7.965288673928139 0.19719240697310034 1.1172587376693983 -1.665663214897138 -0.1517673345146999
Ni 2.4356523023243 4.179152403546191 0.9589684033787464 0.6161810705520808 0.01005249913999559 -0.17991937146888368
Ni 3.534599673573735 1.5079375954807344 3.446575237919525 -0.7286943446621643 0.18792552960281184 -0.539102225990207
Ni 1.3159625922701246 5.438274162533251 12.590628245517722 1.0641595438515736 0.3741862699086911 0.8154575063913376
Ni 7.144993273469104 1.034008817436997 8.08747202475848 0.36508687871058415 0.4618719434521336 -0.500330247428332
Ni 4.330786370771059 0.0034687388281292495 1.6882520655873723 -0.18639957987658864 -0.0812255197403956 0.5632605684039654
Ni 5.056076510212922 6.9607378512187275 9.895078772740701 1.1755119648843368 0.819801128072014 0.1990815462196313
Ni 7.9646154010367445 2.233347632834762 11.6337211639366 -1.5651492792407753 1.2008468441046998 -0.8812623207012886
Ni 2.944019449908677 3.9196748757860522 6.921915829550968 0.5306746640481441 0.11110250980548607 -0.21454776017603053
Ni 5.345039701449607 1.1180388080328107 13.463817071074661 0.5550119552419279 0.6228055178471339 -0.3751005541928443
P 1.5176493263661905 7.777759116383996 4.261341500044439 -0.19468470270351634 -0.27302981557232336 0.004373703587663436
P 8.115142618303157 9.179448715852901 6.4117068655773926 -0.37255207673937774 -0.4726656916335279 0.06566777451145464
P 3.3266044647144666 7.389289880965746 7.090014546991141 0.25925975837142445 -0.10100913012522604 -0.4076486633321947
P 5.569377918028751 7.461717442830407 1.0245866861240036 -0.5811577603993603 -0.07635096525691366 0.004316882207799017
P 3.265004606610039 4.490139918956162 2.9911974337627836 0.3177580117176334 1.2964371172071996 -0.6232724301812234
P 8.083000754926314 8.710398860542695 11.221633884404888 -0.8972952057944353 -0.018754397789367702 0.9781378882741155
P 5.162232277061546 9.08491382356807 3.8221619038213412 -0.15685349078835567 -0.5592653312016432 -0.08388429751948134
P 6.434413685558393 2.5975698212464935 1.3270559160203874 0.86048240784146 -1.5583206863547163 -1.0736569418190476
Ni 0.9236105090809557 7.83163939352819 11.019990498015527 0.9121993765997775 -0.1645331188208005 -0.11817021528554487
Ni 0.29661636719941287 5.426450383810407 4.633864313144595 1.4466826157607342 0.42771458084413433 -0.22947455668919187
Ni 5.760098604619777 1.9892262607482079 3.787753969904559 0.5995234073907417 0.12788538569077976 -1.6635772789023866
Ni 8.01187362426284 6.786701420251434 10.137258720941798 -0.48134393613381615 -0.520187134253259 -1.2630978796251215
Ni 7.189318609305288 3.607267031262728 4.650723804178416 0.647483223099472 -0.5407521028888042 0.8636165825950676
Ni 7.2322697306097234 5.969200563437501 1.076675872918761 -0.7311181236123087 0.17894800869454988 -0.8690038150489099
Ni 2.887270845788817 7.541873808571624 0.7182078619993718 1.8716911105276153 0.22923621542614067 -2.939001541303345
Ni 7.278319751797835 8.358406259171907 0.017126955607115173 -0.2642356143194611 0.15229235378023448 -1.0406583754058398
Ni 0.8907999842708791 2.33057561668517 0.9357451000837997 -0.3543383819448285 -0.8963043026360756 0.03053930623943773
Ni 2.010189949544639 0.8996180145648818 11.20963302568869 -0.27600946702593754 0.47507044442027857 -1.2446635841793339
Ni 2.207901606706582 0.6047097314680201 13.41835362736453 0.5108049217074107 -1.5074871486426165 1.061200975443882
Ni 1.0367388006678564 8.52285085716591 6.4885411368599755 0.1833055143322972 -0.7632867379250532 -2.196479546729469
Ni 4.957861674316223 7.406905651137846 5.26734308749106 0.9003072531478816 -0.7424132369101537 0.04811125368493004
Ni 7.769855077097352 5.274530506179604 3.1243210079324664 1.0112536969914778 -0.414983249320395 0.07072256332654273
Ni 5.149679887949384 5.51751745955874 7.055903590979878 0.761952849604978 0.540875772950862 -1.4260518268842601
Ni 2.2692801148193182 4.109417933247108 10.989618512280584 -1.8876216657149427 0.11727984226079156 -0.6746209598565285
Ni 5.789187682694543 4.001288462305903 2.6069439933946206 -0.7862425753902782 1.760234302706504 -0.02280439948902524
Ni 1.361311671817882 8.221335276817063 8.590809916073303 0.7840854198379593 -0.7596982492428466 1.5159545626836795
Ni 4.172152210058953 7.034530404698819 2.8078449350201824 -0.04432684694183334 -0.010305238580749995 0.308189908413224
Ni 5.93925375414493 6.3292539936723795 12.525942399612465 0.23277456759670237 -0.8282767696431929 -0.5928207985595856
Ni 9.106781358163909 0.8024435236291322 9.76142857004912 -2.2471205088147883 0.05121200409744083 0.5564731131684868
Ni 1.213560552363932 3.581830228050868 8.596924709593775 1.7272869012462058 -0.1507391503605017 -0.06563846393541599
Ni 6.5191999552924855 7.24024755322693 3.231541099324473 0.24975798952857628 0.8383058717444208 -0.0036784772928517293
Ni 3.5733820367013167 5.604037637561081 8.785110016488304 -2.5170200062882455 -0.09763918521172862 -0.8431205195242447
P 4.065719755720715 2.3607529988857525 5.865482413372377 -0.2311419170892858 -1.4702624599632035 -1.186017235291035
P -0.037672846294229054 2.5543604582850854 4.580233977032686 1.5863984184275388 1.984338082002086 1.4859790993675117
P 2.922732959041029 8.209834300165435 12.032080132525293 -1.902997633950381 -0.4178487437936481 -0.08262162875697383
P 4.612297445620804 3.7979692720211133 8.407876137731652 1.2716915348314033 -0.3029482003983105 0.4273124603097092
P 8.909696859311758 0.24618914992560406 1.4365014971205239 0.06373944714049024 0.6583186231520791 1.963194615155251
P 5.074217986615288 1.6382574030889936 11.33757332088627 -0.40046037311387156 -0.9946312579434482 0.6952700035654478
P 0.11700652789965893 5.726776207953913 0.9347508697044529 0.8829803318336599 0.030034341578561177 0.15633155684661465
P 6.512956040943526 6.813493992162403 8.428111216138765 -0.21573869516033814 2.2977064492924555 -1.406516842175126
