# total energy = -340865.12709063874 ev
CRYSTAL
PRIMVEC
9.30094031900314 0.00000000000000 0.00000000000000

0.00000000000000 9.30094031900314 0.00000000000000

0.00000000000000 0.00000000000000 13.61286631031586

PRIMCOORD
 96 1
Ni 5.846226953364542 4.877487513837106 13.685286402032851 2.3121215962765214 1.3416808195363474 -1.2401628680955028
Ni 4.045285878277436 7.263104299620517 8.151180404087269 -1.2316805416561047 -2.3582435874455645 -0.1135309167413206
Ni 1.2758006834097153 5.4162351812096485 9.073982499350617 0.1586571196559977 0.7502239912038242 -3.3495666069513863
Ni 6.391280658277286 3.7409684117909676 11.47736129087226 0.45322609485167753 1.5097144953112387 1.1360452742482823
Ni 2.7743030819559573 0.8166755758755144 3.3706951871793875 0.7466221327851786 -1.05375094692374 0.7994043095832167
Ni 7.37741285621206 1.586926438213923 7.459715016957972 -1.2207510392277943 -0.9764116496116282 0.34660424652536437
Ni 7.119748906394687 3.7973786148607567 6.61525381195621 -0.16515763977867687 -1.038292703387141 -0.37719343216613105
Ni 3.1764571397187846 1.8302669399311362 12.709081097706715 0.6284377764322467 0.4208715897803719 -0.759857143418214
Ni 0.977277702745584 7.245292998898564 4.808540573303547 -2.176351922741658 -0.9561598413411274 -2.6526971201093024
Ni 3.391959927043932 7.177042698795329 4.044614350385987 0.17419558161122903 -0.07043794220658837 -0.738129007712503
Ni 7.070751552763746 6.214860422196864 11.595140028298978 0.31038974427802024 -0.26492287019447275 -0.04536994349436702
Ni 8.012760089797766 1.7278542860149861 5.238544436680862 -0.03616770816980868 1.5755519626313381 -0.13136717359179312
Ni 8.988103196955796 3.7729357436872353 1.2167862170489876 -0.8397986542398633 0.244044998304199 0.20185859474413623
Ni 1.6157221494594414 1.1303897823721085 10.680355343595588 0.5223034092653135 2.479908189037613 -1.32362241937274
Ni 8.291955716467005 1.916003007844956 2.6715797766329596 0.122477327301331 1.1136121420557465 -0.018626099741619533
Ni 1.4031212555156254 4.939320165116241 0.23751625288583583 0.1496222631472391 -1.0342612136302447 0.31977761325082343
Ni 8.647019113365472 2.403204863937569 10.56509530080882 1.2759369403713186 1.2201460586539437 0.5801349755618008
Ni 2.9789423709817617 9.127096449169304 0.5747729995325125 0.09761013174600609 -1.0766317081766554 1.4093553400651857
Ni 5.269494245705599 2.825830291355237 3.2903387831494206 -0.15500358206381049 -2.9144721887034133 2.589864501053798
Ni 0.8756965528944693 7.157110783679326 0.16132108955717508 1.4370939436310348 0.2334875345033269 -1.3734154316354668
Ni 1.5057571319995702 3.576248758639118 11.958426386538584 -0.9090767718103957 -1.0714331946948514 0.4739023922541064
Ni 6.609824853088636 2.4370230829584685 1.071455304098174 -0.1920909738344111 0.3003092201135667 -1.7174161790997133
Ni 4.7123307164899915 8.83903702637055 6.903289052310119 -1.2853160675933735 3.0363005695668353 -0.13120288009978695
Ni 5.559562671614505 0.38012850097971645 13.499539182994738 -0.3095240538436153 0.5678700421515187 -0.7835362322027085
P 1.1289016319201437 1.268806376285481 13.03848506043718 1.1516053334700684 -0.013500862699912233 -1.0009782832073988
P 4.672159955227268 6.976374911288206 5.921841738016936 -0.6863575315671663 -1.681699185314078 0.6269707049684169
P 5.1028772007274945 1.257356918745677 8.3512213082165 0.6477860990518715 1.0474376031112025 0.02814972296133862
P 2.2015883805173186 7.871013759248123 2.2906504646912795 0.14464974963331217 0.49768663915789774 0.14279161337865084
P 2.9553365844374704 3.192250136390261 10.492511692608272 1.6022847506404923 -0.5611309236554722 1.1699771511090367
P 5.469445860807714 6.16474695572695 1.8672084147130965 0.1258418728981897 0.4714716713254267 0.028850091462472895
P 0.3634426140370615 4.850105545520955 5.051054221425886 0.5947576105709822 0.5075367924791001 -0.3316185717498095
P 8.272349334262369 3.8422463509874945 12.742459382250251 0.18358910701098707 -0.3064549279999883 -1.011042095201304
Ni 1.6718347224388375 6.934055632810458 6.811224624599319 0.20911990429223987 -1.547102963262026 3.25815077694155
Ni 3.610355306810085 0.033821939397029134 9.387364662277617 0.3460280623069202 0.4056061789808692 0.8338912876164928
Ni 0.03256445226511891 9.130202963237782 6.64746203820689 0.29101622484741496 -1.6103006789664331 -2.609359890774248
Ni 4.3626897678008705 4.961000657013303 3.3637529653209723 -1.1438382879301396 2.1238314842454393 1.653950297335584
Ni 9.00307771087869 0.05556567768829926 11.486713386368827 0.10314340285940947 -0.43460513731638056 0.002113189688260877
Ni 7.149167780641966 7.7452185413554755 2.0562100327708484 -1.3636328983274062 -1.0851297183453374 0.9020347773619498
Ni 6.760053641214478 4.249218295838558 2.290787188514054 1.3669987294758457 2.477671072176978 0.5478923134780113
Ni 7.233536610328042 1.5126677306608816 12.179921769714985 -0.9429137749644987 0.37257650221940997 0.52987068008961
Ni 8.110708292358021 5.916848993250595 3.698533801653192 1.9269711140468428 -1.2610515386190542 -0.6705303347269226
Ni 1.2229992451859406 5.724719468961619 2.799213790427815 -0.5213215049680183 0.446312912671612 0.5313284955820591
Ni 4.49047538692302 3.331475912111889 7.989908609513813 -0.39804045081846934 0.5634446593903135 0.08913114774071747
Ni 7.139113464150877 0.8518442914315717 9.77156046446136 0.2010839213616408 -1.1743945634504418 -0.9318240928092404
Ni 2.5314927338372564 8.666978931302449 5.617308489714933 1.1711148642579055 1.8486344858184678 -0.22712251151724755
Ni 3.3194497962719485 2.98975936457948 5.6453777975210855 -4.0474223689661395 -2.64699312774599 -0.20990820452149012
Ni 4.451076603707253 3.9035674505487674 1.5309301269885867 -1.4042100484188205 -0.40257896211877126 -2.4083839557453808
Ni 0.10615535230284136 0.39303262558631585 3.8587983043894725 1.6004942343989725 -1.1054380908853862 1.2893251887527666
Ni 6.072946674721374 6.476542378234542 4.392885270565269 -1.43112641319369 0.6371898115932639 -0.2202808060050658
Ni 9.394600793850294 4.920950807974802 10.650624887847432 -2.8361170485322766 -0.6272537834264746 2.706797758608448
Ni 4.725035800973641 8.314510496754595 2.4327279087164855 0.07580974804146298 0.6381025532155203 -0.4096577233424235
Ni 0.1327495309734841 1.042402886899692 8.423777943690109 0.8687749868675554 0.24381231346810267 3.4489731684761824
Ni 1.932437769398842 6.007979606552787 11.732739069557804 -0.19641634068264238 1.323366851718508 -0.5825127317653581
Ni 3.7720149505950826 7.233890046060384 10.477877593101265 0.6542382824351184 0.2985726970384342 1.2512535786920256
Ni 6.100384448679474 7.581847524550719 9.45581028212767 0.6953725905815831 0.4362344453896874 -0.01364330181504747
Ni 7.632509746499795 5.975389111654758 6.286571602194948 1.4190933932885559 1.3555082123377429 -0.7064712715979059
P 5.063376107168154 2.8995774471904157 13.254017610771367 -0.4882020967062302 -0.8934624623119065 -1.7207629840847591
P 6.897698257080894 0.4850235758685501 1.6219454086307512 -0.39328056753598073 -0.8902591248832603 0.7217901613431634
P 5.594534207235677 5.467036917263596 10.04116310127962 0.09102785054279806 -0.2404626802695794 -0.33009442179579923
P 6.74923664761676 3.989284916581938 4.378115377329518 0.5930848508542496 -0.03620396072438281 1.788101204320101
P 2.280544062934374 4.4073714851211125 7.14261619827719 0.35937157349336174 0.9078308152184364 0.4042468367394973
P 8.856708812987632 3.3887790054528573 8.666889642275331 -0.8561963788715965 0.9802325660196151 1.1384826800451813
P 3.5965713132487616 7.295676192637896 12.67152297058122 0.4200174693101928 -0.7090619151432176 0.7286460079227323
P 9.255347115307693 7.169183404220891 11.333964043414968 -0.03298673933866577 -0.48709472257466435 0.40983847189466194
Ni 6.877757041024567 0.37749540477377125 3.8998135910336864 -1.6398737646378596 -1.2305528558095646 -1.6410557007611026
Ni 7.795852860483577 5.693998463068871 9.004870002079276 0.0331893422677751 -1.194461766513962 0.0824514217276967
Ni 6.623739059814506 3.1157313003382976 9.300405520711088 0.22142880356657996 1.2532955488227189 -1.7066671681133252
Ni 4.820426244944582 4.3704281501510875 5.555328883578666 4.662447985757538 2.038758308624179 0.833213544823178
Ni 0.14497747721847207 2.7326162674202945 6.789022349950038 1.4662052591746941 1.181302346313869 -1.2877627293616531
Ni 4.217985738227947 1.6586459890582999 1.419617403275655 -0.5610188235576403 -0.7589161196611833 0.2724451467134469
Ni 3.6116574384555546 4.677489394033367 12.786211005538016 -0.010751582089549225 -0.2485086905025075 -0.17084106331669932
Ni 2.8183244325131396 5.327048464435336 5.321500453531605 -1.7754945712996841 0.6426652328855383 -0.5246487695690384
Ni 1.5232615016908058 3.1075836766137903 3.685357159495077 -1.0059479685078483 0.37777552992184615 3.0852109221142934
Ni 6.714413927040784 8.73660577057375 6.037442195219592 1.9448767906826698 -0.4974182159878595 0.20096385084400875
Ni 2.172132302508741 8.802447127132867 12.085175880908551 -0.5613913764057106 -1.4763449187118576 -0.724774440782468
Ni 5.833763693329337 7.442221808395126 13.600246974549357 -2.1389495708338 -1.4961663243131587 -0.34175668862507597
Ni 5.208740503504138 1.9067392712814752 6.204363380946317 1.7601882799599171 -0.4241453754356373 0.1201777326338769
Ni 8.68789674609288 0.8779352892306439 0.41520513722655833 -0.5860063467409133 -0.04857765179838731 0.5597404710658488
Ni -0.01316827131182319 7.445160905537756 8.96017898381871 0.5679934551032604 0.8784824439633064 0.513137169385013
Ni 3.224449991794648 6.061562323763844 1.289460044370687 0.7232520906006705 1.6545071982803183 -0.0480541751947495
Ni 8.015643381298448 7.886071981633941 13.17455967757677 0.36124487925667464 0.0299968034724064 0.11777246562649393
Ni 2.071551933836573 2.975677740927764 8.630053268119042 -1.5072662908810621 -0.46016575939430426 0.24755532545030273
Ni 3.364196620174464 5.22740749073597 9.440482332472435 2.1668720082756807 -1.58156217338116 -0.13763115222363392
Ni 1.5143884046209657 1.9478773303379762 1.8062500518244897 -0.534237184588422 -0.4685462701485157 -2.656149083213645
Ni 5.912654269164118 5.474291650716925 7.7387915915910535 -2.4333735358111834 0.5106102891981013 0.42489099535241015
Ni 5.065729245070323 1.9648515464306993 10.79334223656698 -1.7424281277630187 -0.5507737487908644 -0.10633414188256525
Ni 9.34409668788674 8.252808058640007 1.925458343779127 1.4528699755183687 1.6511081999010984 1.456383387988266
Ni 2.506370894020027 1.0297536080579914 7.41966516791947 0.3396221587805764 -0.3611618326245651 -0.08401542378070692
P 2.3906392935587917 4.082759366845974 2.097402037281233 0.19339529446813145 -0.6551584802565426 -1.4409089465017506
P 4.611899162863019 0.5751031829140422 4.704116125995146 0.031270527978507434 -0.5342384701400025 -1.1509275906767533
P 1.4861507497949344 1.3531566040909087 5.510855507321698 -0.19682334631307394 0.24590287744854425 -1.1969297684384808
P 8.650069821792 6.270294026532551 1.478778824493514 0.25162718152683117 -1.914378879204129 -0.5402299118367471
P 8.149967561468918 7.824946201819488 4.636882418669411 0.03569153986433853 1.4068798819414996 0.1308948619410649
P 7.726170215570327 8.655641085046543 8.111757438426658 -0.9553178050558063 0.4922397571107135 0.048654270672593626
P 5.787770543423301 9.184306533107025 11.022323946610799 -0.9477862725654518 -0.9989861924780343 1.7812795534125774
P 1.915528659888392 8.339195192376561 8.407796137930038 0.4155020979383425 0.6889535744291168 -0.06570402706602878
