# total energy = -340861.8380218268 ev
CRYSTAL
PRIMVEC
9.32594459168839 0.00000000000000 0.00000000000000

0.00000000000000 9.32594459168839 0.00000000000000

0.00000000000000 0.00000000000000 13.64946259086489

PRIMCOORD
 96 1
Ni 2.7974196312808983 3.3155784323703665 1.5791202115490137 0.5845287337541223 0.47915901266735544 -0.620430589857054
Ni 4.19008157192798 4.67413539406487 2.3683459822140187 2.1307642068095305 2.4850915330107655 1.9011078731268356
Ni 2.578353195514955 9.41267576068826 0.9956695405812591 0.5721982372132274 -0.21382065220201887 -0.3189067806100959
Ni 3.611956947851069 8.296705266730823 7.258019807249164 -1.0621530549445064 0.22582898951680463 0.9990895508251181
Ni 7.340283030886789 0.989128323125055 0.9514440466821847 1.3299223934488387 2.091547684511069 -1.2623178069259873
Ni 2.110302694100685 3.571929994155563 11.223638951936778 -0.11078909233012534 -0.7333315863238596 0.8615159913122968
Ni 9.174015515576029 3.900828078027745 9.981551845627278 0.28601594341934616 0.69923335908857 1.0343046652736705
Ni 3.280335688191588 7.840107025134373 2.9221727905504187 0.15714916765190357 -0.08726864061068196 -0.5613260703854139
Ni 2.872269661653715 6.141339608917026 6.3852186525586125 -0.7981282710842706 2.2218162257220446 0.9066954160624127
Ni 2.071711935854645 1.8376027516472166 3.5562176429006263 0.05219673660821334 0.5405574703794949 -2.231574333550073
Ni 8.278445067444757 2.5172029775789264 8.192148372820807 0.3971778457078579 -1.0055088240879007 0.1709621622755959
Ni 7.489395557130368 6.907027628316399 6.849532248020928 0.15640200507323387 0.2090355721085497 1.6515015786847749
Ni 0.3550629536969977 7.773398544290023 0.9360394515949907 2.546897767684285 0.756086363521872 -0.5298208006882811
Ni 5.7653641573246865 2.5443974316740094 2.0236693328811133 -0.10457704998214247 -1.1578942518025737 0.3782743239351356
Ni 3.6764738317433125 4.232831701410785 7.170349401003744 -0.7191347259981873 -1.8683967560470596 1.4201719710647154
Ni 8.649953391632588 2.992415804351572 5.8791779837226255 -1.5877495331387945 -1.0674420712575874 0.808890137586465
Ni 1.410493146487204 6.921249693643903 8.227895650595793 1.512774365183485 0.3171067512868797 -0.11596060922873579
Ni 1.672505556569971 7.00425992543414 4.327739040570396 -0.10716820774808639 -0.36909548564934497 0.46226943600086834
Ni 5.087880920789267 8.049838190478788 1.4718214899627435 0.5910066281689822 -0.8997097287731989 -0.31727850097805355
Ni 9.351124527139717 6.332642707974786 2.550183247627572 -1.4389711060490895 -0.6154940717873851 2.8458574157484926
Ni 0.07949155293904539 7.148588242160991 12.342117192364093 0.6381436908661009 -0.6951795007341705 0.3814586352003882
Ni 7.272539370205486 3.5390094101515706 0.6249184830849651 1.0822300282000394 0.07720662838898962 -0.295057227686008
Ni 6.620581243703757 0.20406099110236778 2.8453531207040488 -0.22992912772810725 -0.20670795241663756 2.3907996670047145
Ni 7.606566723540046 8.295399634504037 -0.03697084169037596 -0.10099781727131638 -1.3836499648792817 1.4160816030454255
P 4.812252631770005 3.6548656183899837 0.47918754430876476 0.6536631266579388 0.6338257802170374 -0.14561828419416856
P 5.7652149422130545 3.659976235963408 11.150027406990512 0.19564552395488885 -0.925647017464251 0.5957107185128708
P 0.055413829488193365 4.851748006630319 12.085807597329042 -0.23304453342863732 0.040945589174426256 -0.07864696037994197
P 1.9570121447313864 1.5709180433814471 12.127916101831826 0.09960607913011232 -1.895951782847193 -0.263263737324495
P 2.0985053743372144 7.523631099305624 13.362618925304396 1.1028284211766815 -0.2701254974413348 -0.805183121048523
P 8.026029054228875 8.083010574983662 2.095629253060492 -0.7249577604378675 0.3046965505479849 2.195758095182412
P 7.168144747729369 0.5959651558615104 12.420792725161395 0.4293950538703508 1.5412246501043778 1.1772993958020628
P 4.778949684042454 2.9464295721352305 5.823748300128821 -0.41620323777042517 -0.23506079252771775 0.5156347389958862
Ni 5.214583202454492 1.2643835743652354 11.589894904195132 -1.952752850996637 1.182804384780692 0.13121727827749013
Ni 6.3980269047033955 2.8899796302156364 4.322689041636073 1.6442017025892524 0.2660253592300322 0.8517943931491587
Ni 6.789875113795676 6.2872440102604985 3.933202161685382 1.3325410620186082 -0.5776435765985147 -0.8456273451064985
Ni 6.023189218337257 4.076873931921049 7.9039804188577 0.8058886317559799 -0.25944179247524346 -0.0016596470906100448
Ni 0.6476439445866446 2.935061245817704 13.143490938304904 -0.9754449148229846 1.0235659386999274 0.22007460353153063
Ni 2.041561157360337 6.033997987986161 11.604609379391023 0.4048888411988704 -0.22306942449379646 0.5463406527201752
Ni 2.60205974637562 4.947357589409053 9.530887702501575 -1.1602630091450663 1.2236265610033765 -2.1217154663437006
Ni 4.459797212148791 6.203776807190885 8.523079512588986 0.06470078261249503 0.5053570112189619 0.11015608673181673
Ni 7.194499866821516 8.473077528680825 8.929833378738937 0.14639398601792852 -1.71600181525069 -2.939574125977363
Ni 7.454889562565278 7.7134420472470575 11.439177382907053 -0.9283232787448334 0.6170601307229244 -1.311204505324361
Ni 5.092515915194362 7.801572222555196 10.85869329487745 1.4374698389132146 -1.1100663336860173 -0.3039678999120765
Ni 8.464189903594194 0.0326809072309322 6.648639280257414 0.12924061416709354 -0.0126138321092686 1.8083406712954273
Ni 8.380750678358014 2.1444636287201253 2.941049434766419 -0.6959570023301433 -0.28509548848760574 0.402866668562519
Ni 8.206495405804302 5.97633567328455 0.3294082130350762 -0.6425991555342933 -1.2368304612881604 0.317907135700988
Ni 4.423938955634528 5.30151033092509 11.016385690039915 0.2493337575069641 0.9413392313885273 0.32053968822782863
Ni 6.977345249673369 6.333715191589647 9.65894690908821 -0.6795343379977459 -1.7173922678403135 -0.3617750407285318
Ni 3.4425045367030402 5.384072917380429 13.567565881132083 0.3689425050112485 0.05967633281471013 0.084575410049235
Ni 1.1263502701603934 5.388250940506148 0.8039626281276416 0.9937254582997272 -0.10087234743704562 -3.1168295774608388
Ni 0.41791608909453526 1.0098878755309721 4.9051390387614395 -0.4811223070413133 0.9395497435882723 -0.5358209841357741
Ni 5.939731341212122 5.5117824010491745 0.8432612255594898 -0.42677432841805213 0.9262190879176371 -0.4686802246232186
Ni 3.910704253228942 8.5493264507252 5.04695681123507 0.758249689721778 -0.7044892081708707 -1.3537737461451393
Ni 6.931293735845687 5.2339065594109435 11.925016190816851 0.6859898638151025 0.6845500460447823 0.5856492205118108
Ni 6.317945019478953 1.546185638628306 6.762448443683114 -0.23480419643222142 -0.061914221006293374 0.0071921468730650326
Ni 5.079086555147407 0.6156867306471316 0.21749874449935153 0.47717694924032017 0.03911162128948102 0.36197224434100245
P 2.2923264784037793 5.769607462061746 2.4959407567656964 0.22434469166179427 0.2260858427226171 1.017560355935796
P 4.719282291278277 6.392440663961642 4.079442297030029 -1.0554401617007048 0.3573884816250619 0.005667225588106369
P 8.95704741731742 6.171266564743884 8.91012299508669 -0.9609441501036483 -0.5586477522223025 0.6435378652984788
P 1.2778129344121898 3.091158904474595 5.062504093272762 0.7892649071563697 1.3691358304235064 -0.4018163729211338
P 9.086146466713249 0.06457097437021041 8.955821988213136 -2.160641196874621 0.5709188562801716 2.079935039972805
P 5.822728041803031 7.317779526863663 13.023456706940772 -1.3293061000210786 -1.6186647346604124 -0.2527602666900099
P 1.2706692609427683 2.1423652912127884 1.3761111869836575 -2.930355949813205 -4.068792864222115 0.5853723127013403
P 6.512129835380123 2.5194132264199878 9.330226950755542 -0.5645489481980859 -0.7130772069501977 0.09243501530296984
Ni 9.525799467194895 1.0955839793306 11.09417432551745 -0.9430999228333757 -0.15221830600918945 -2.366730284760337
Ni 3.8606519092206057 1.39174799808833 7.765889293797101 -0.7475814113746545 2.628128172520687 -0.9410728651010181
Ni 0.4034450210494941 4.500327766846057 7.744827580790127 0.3649308127486941 -0.11586882084587785 -0.4189345206586591
Ni 9.08515791659868 4.72363750734906 4.489131037906909 -0.2533102256562089 1.1172204282322953 -0.18166180808128712
Ni 1.863090557902999 2.495846564726478 7.0815319035876465 -2.1811997377522627 1.2832121338764932 1.2481060342019794
Ni 0.30524096051724453 0.338104656259927 13.244987989832 0.504643530091705 0.9562701416667467 0.5864205514601964
Ni 3.2094491842215187 8.560816014320928 11.613139820804184 -1.6309772334791783 0.40261392912176464 1.6957757180118023
Ni 2.901319978699731 1.2877823690581578 5.6266220813395895 1.028499114335487 -1.314900980339342 -1.0751291554892
Ni 0.6754818888506439 0.23172827058243697 2.516660207610362 -0.734222216458929 -0.10353061099549912 -0.3938487813346249
Ni 1.4872922992557247 0.15768306921798977 7.9957868814786925 2.562788984993244 0.7777067700051252 1.60824739598183
Ni 3.6162655341994667 2.2079360068309386 13.150875221141833 -0.03534469804788107 0.5223561168801197 -0.22726237952922154
Ni 7.765312950428418 2.727689544425983 11.857778928920652 -0.46199021419755276 0.20171358452583973 -0.2888241022921026
Ni 6.887937419971874 0.5864265798503819 10.403101322690071 1.7678100581712326 1.6404892867346712 -1.0624093939296864
Ni 0.5019978719051854 3.8923134907201966 2.40917123675676 0.5973474827853453 -0.15267133438620803 0.11116627316388596
Ni 4.2222281025403765 3.311736143245821 9.621410915162526 1.1934140419757382 -0.9951832737921764 -0.4835939085102574
Ni 3.320726353721699 4.76870979700665 4.798399873843793 -0.0038003475826966808 -1.5502736476805237 -1.7999375348333968
Ni 6.729536253029152 8.253843225914293 5.215568954785716 -2.0670689826434145 1.3957161520151964 -0.2537817659759887
Ni 8.90894419570479 8.204844713631864 4.4255514114346095 0.03973022871008641 -0.9088304601275444 -0.7565712735780906
Ni 3.0120842212536743 1.0530856503486756 10.12328754978951 0.2783805383612754 -1.6897811909912641 1.2534043064864415
Ni 4.929088064178508 9.417338732926785 9.023659840933659 1.5360983846214062 -1.674123172739033 1.2073612481844496
Ni 4.221491352926689 2.5399209783250245 3.737359192856192 -0.9909548375331257 0.377621263732169 0.3612101693639973
Ni 0.405251456494699 6.286460630924426 6.207243260753007 -0.32238805429047707 0.820415107506929 -0.4304947146924328
Ni 5.298927044304947 5.46355794215834 6.158542246099395 1.3508509160713895 1.458780427465533 -1.1642916706884854
Ni 1.097402538503625 7.962463416673292 10.495617489685767 -0.32261328292740565 1.2867407158550421 -1.7709720008389824
P 7.752732251328877 4.621117399712831 2.555520485651789 -0.7042390398332775 -0.03098950640297889 -0.1586226668736365
P 2.1692613150846056 2.5628348239051406 9.180301202153561 -1.3174571711022922 3.2938430881368372 -1.2734745948737554
P 5.703775619998238 8.032380022417748 7.252027887922658 -0.10398826735820801 0.4195613556093807 0.11384099178257168
P 7.756033635673753 4.928808285844197 6.489923828985815 0.24439055456907588 -2.03264499663759 -0.6572804116955518
P 4.4529799467360665 0.5271919109099406 3.012367729965776 -0.791558845396869 -0.9875329563357701 -0.33943575380138313
P 3.0469912314312784 7.8829690659509035 9.404766427177272 0.9784284229313407 0.18303786249320736 0.7565764157844131
P 1.2975186550922 8.879884552714296 6.120910194945596 0.9901171721231785 -2.682767971352754 -2.974338526041742
P 7.498264530328044 0.9941829850316171 4.903269186893791 -0.043920612642350164 0.6650119760118547 -0.6493678417166945
