# total energy = -340869.9464551609 ev
CRYSTAL
PRIMVEC
9.26184360105322 0.00000000000000 0.00000000000000

0.00000000000000 9.26184360105322 0.00000000000000

0.00000000000000 0.00000000000000 13.55564431164019

PRIMCOORD
 96 1
Ni 5.84027780044903 1.882664221447562 8.892557276457778 0.8493911830243048 0.4356862861957012 1.0080207918764768
Ni 5.007082345310705 6.460404542320824 11.715953441160325 0.9500856101225895 1.3307114650090373 3.6735544016288153
Ni 0.6093357678302017 3.4841759169260373 4.770380185591566 0.09474617993464973 0.4691479082882566 0.1872110200342905
Ni 2.4834059245509645 0.5389420513202714 3.7302288339985283 1.4782899582533702 -0.5771373263860576 1.1178544622718685
Ni 8.112921210803377 2.017081358402014 11.424750888641986 -0.837818390585041 0.9182604951921928 1.3671704791670196
Ni 6.223579200081084 8.916821454463241 11.34677913165413 -1.9405496240622255 -0.9903601413719202 1.0206289675587907
Ni 5.878168002838658 8.615718917262852 6.185263879067726 -1.29789750380281 -1.5676010832153775 -0.013432985576454283
Ni 5.463885736183062 3.5744974162424996 4.557136423479969 0.6975210043831536 1.0681889767259412 0.2525242394198038
Ni 1.7679470259457464 7.938678146135554 6.873470728904613 -2.6754729803532373 2.232690449432387 -1.4397714904631977
Ni 1.2474869836375753 4.759930047396451 0.28711530091370696 -0.15348611697801953 0.4545802948867268 0.006282747684918212
Ni 4.192855145976328 0.9114265437485014 12.237262794531592 -0.8956234745189672 0.13101467534838082 1.0234630945734762
Ni 7.596304833611729 7.296109957089459 12.483338866213218 -0.534171621457809 0.42392863143914095 0.11112667817520218
Ni 4.263652678869584 4.060512662000432 2.1413854882703665 0.16582895481408857 -1.5589868591838054 1.5352486350266012
Ni 3.4683289024335773 7.827415618316783 4.960146100223949 0.5747595701825005 -0.6729857382459506 0.21499127547135233
Ni 1.0359835219486155 0.30643828532961503 1.7315841015747087 0.5649207297152078 -0.31383862205856916 -0.34431750737371675
Ni 5.382251846214308 1.6996501908391435 6.284125724417793 0.0640531217261671 1.5698680248726835 -0.24286306218095596
Ni 9.247765651917694 7.947337969952298 9.61787911237043 -0.18277535286044005 -1.798542197147767 0.7261204132874011
Ni 8.731510486628562 7.3573122199568886 1.0366299986356837 0.027042091719456655 1.5965450199432376 0.016706771231719614
Ni 8.560305306679341 5.784651167461472 7.904051817449693 1.8945811277519113 -0.600755737135946 1.8718050103976605
Ni 6.218651899257012 1.6936392543075207 13.556051155357217 0.8655305117883286 0.3360928054710792 -1.3577422438745843
Ni 4.922864400962408 6.176278964538716 2.8641445720438816 -1.4161132276143096 0.7775977552310867 0.934086920701488
Ni 2.722537465860618 4.159095725856505 4.147417467192834 0.5690802604095361 0.09908825895342935 -1.167290091195177
Ni 6.806408497557125 4.231838245917159 7.068780783148444 -1.1818556477141775 -0.4993894807816173 -0.2426815422977692
Ni 3.735079261520271 1.7405968016346807 7.998697671568333 -0.09154129984410686 -0.4704396305164866 -0.04390261492022116
P 8.992629644773459 8.967520786626727 11.879149904901697 -0.5999214141601087 -0.719651774843922 -0.2562934766542489
P 0.0955896359870124 0.26934089675679324 8.227083621870301 0.7983331880062251 0.6859564394740056 -1.2569935664995964
P 3.773136177095675 0.32047553557202996 6.279774510269016 -0.9279489261245503 -0.28074543904902616 -0.34512894753141854
P 2.41391431161296 2.1700777537269365 10.432328595952509 1.9367675313119743 -0.31891757924337333 0.22722329876116995
P 2.930632569084805 6.8439745354188535 11.94424399447265 -1.3232385536707598 0.49014533647553005 -0.20810457565384807
P 5.532867947720082 7.946346952681291 9.205136164130174 -1.3279763254660613 1.5495277706534345 -0.11713894580755312
P 4.442452570615309 2.0172480715877907 3.678947858053554 -2.265808057921962 -0.8038841997314413 -0.7223421771918915
P 5.678038085157144 8.11117072235272 3.807319789654863 0.4105897482383897 -0.3891991983777555 1.193715632376557
Ni 5.478260117534493 4.125493757078806 13.46796639128326 -0.27704870692372935 -0.45304277519627784 0.3055298450825577
Ni 0.6782837105457002 3.44494274720654 10.384233694224603 -0.5194520558594473 1.3152807322762639 -0.26594925457645807
Ni 0.17886287228257364 1.09656524129121 5.5110739034172145 0.606144255141369 0.9015637512628021 0.12365977764520639
Ni 0.27211204037815145 6.154383966140017 2.959386888893859 0.6144175508937548 2.105285088701819 0.06313703766980094
Ni 1.810329222507696 7.286246093597659 0.5369294526941981 -0.12558219147889985 -1.1220435606525516 -1.5201845416046271
Ni 8.94684835159039 3.5693293074834154 6.759454654967426 0.5538045651973882 -0.4559154687583826 0.9809856421355556
Ni 1.2837934107623223 2.421796140562746 12.597571667291916 0.2758539152846798 0.30172872616891266 -0.27987743462177606
Ni 0.6246437430219828 6.642371984596311 11.99829055693279 0.8791524734471377 0.5155660905414798 0.315707814056824
Ni 7.801343528430007 4.834561983562576 4.473213931944243 -1.8528426103625446 -1.3147559701210454 -0.6247194470403951
Ni 4.146629284297855 5.852660885414792 9.924494298913842 -0.44418326792311885 0.7114553550760586 -2.5848889022160773
Ni 1.6556193861067334 5.678630843151018 9.741804432833323 -1.5168624192099296 0.5238470996033494 -0.10486938441158067
Ni 4.222233714047679 4.023798713754897 7.164700140769548 -0.25461094674550344 -0.438399057141174 -1.4450160266915888
Ni 3.9834819083278505 5.839194164741481 0.779333203366906 -1.5376814128378098 1.049214235395651 -2.004471105306535
Ni 3.6986431685843635 8.27138209388432 7.930255425516359 2.1900985829037896 1.0061323166045122 1.2120511974609514
Ni 8.709402465825814 8.13590910675328 5.736301565033074 -0.06400992719305751 -0.6674205854533473 0.342980533729848
Ni 1.5936206046850354 2.6045786250798075 1.4401518553337451 1.1010548742160264 -0.39218604892022135 -0.602459350090614
Ni 7.479809364128293 4.133773845305726 9.839188087936169 -0.19593580150179804 0.08002250057122993 -0.5093964713956582
Ni 7.759461471425387 5.2362110954737435 0.7409308210231973 -0.6022811726415369 0.9318114944037501 0.880379146765387
Ni 2.833244283060133 6.277640581491071 7.645383343135716 0.293823612389223 -3.9318587380655052 -0.017849883697227325
Ni 3.0711347373201145 3.9046080477680687 9.241994597136717 -0.5933476175973329 -1.6205714647648217 -0.9683160170876872
Ni 2.6565097824493114 2.1465989800633563 5.689087464636691 0.5043889908787378 0.01797278242833679 -0.3398890392887179
Ni 7.615745443442045 0.24654749952362934 9.815601876886198 -0.15406821473373467 0.9157140746212552 -1.1406028117119775
Ni 6.707732815264509 6.482253231501252 9.993112519995249 1.1471565536700952 0.16175067097965692 -0.47088777379749874
Ni 5.521485141868982 6.083956906992932 5.354099546242781 0.32836355514762156 0.48946450835842154 -1.0793246816277864
P 1.2405220772095624 8.025813571234947 4.321214110996521 0.26911891055369136 -1.0395265757942418 1.1613356733839546
P 8.828741321311112 5.84879869661096 10.335311709858374 -0.8015424389721422 -1.134371743200601 -0.26959096509410346
P 3.467893595781826 5.437878479201866 5.607251666476273 0.1809151597232497 0.7494470038284835 0.6990232999602929
P 7.278151242243824 2.4759130930346585 5.569973671952193 1.0223541777800136 0.5257815976219009 0.02474789636864125
P 2.225834052525655 5.4738144325804425 2.284884789112198 0.645931819451952 -0.44654765439023736 -0.3248809959156599
P 5.979010956546373 6.6470214301107555 0.6217373764832723 0.5052397689148073 -0.5020708842685224 -0.4211569822312747
P 1.3380585527327027 4.584242135118562 7.792652214344837 0.2870356429331121 -0.3773494981280211 0.38566110331751
P 6.925951113602816 4.138506647413059 2.4174597453638156 -0.6373453633345217 -0.2082848099854542 1.1398489642650886
Ni 0.6701619998452689 1.0306116526291376 10.456363080235345 0.571365456899287 -1.3717215888728118 -1.2631762982715407
Ni 8.30986505426782 2.313793781710278 8.803428702603986 1.2732614504216846 0.6075570763284955 0.44388347729451294
Ni 7.173677645823634 0.4004117295989569 4.588598906373531 -1.4528146968004012 0.43264955625190654 0.3250514600552531
Ni 0.16576384680233647 3.9969578908448167 2.492191709441407 0.28158079046612794 0.987322640097177 0.40744143241739506
Ni 4.08376915141631 1.9852947109805519 1.0488232158065331 -0.8938810379065638 -1.5432951594801616 -0.6569083730681138
Ni 6.882476019489662 5.138396764640975 11.842386868884793 1.2154581662599713 -1.4330889362366996 1.2471853221599232
Ni 6.069221313738985 1.9325670350567805 2.313284380309293 0.8653801022533936 0.07610902444943667 0.7798389858567795
Ni 8.123201857259618 2.7174064044761512 1.1624049092763347 -0.11664837932437976 -1.0405051376574275 -2.111140776151648
Ni 1.981247285303635 8.981987786414699 12.215262211115233 -0.024266328746532402 -0.12582644627922202 -0.35391517836448083
Ni 2.1956497040563816 7.98714537397836 9.92469713328987 1.4425878768660705 -0.3399425182344726 0.15215171443731218
Ni 3.8732844925293204 0.35476565933324183 9.934647131927655 0.6855193519365871 0.5109579023455072 0.4863143927652141
Ni 0.3538626295769503 5.804795677409514 5.245980488160271 1.80375536591759 1.3147482568115614 2.093979176770697
Ni 4.448908075642336 9.187545144477616 2.413744819874087 0.21309225867642656 0.3803299209125837 -0.24862953235108795
Ni 4.652751992629214 3.7513523208208266 11.041750498928696 2.7441633437411 -1.6365179607917493 0.06959976257600917
Ni 8.73243667099399 8.674457529718245 3.348338939339385 -0.32786681801686113 -0.3883599903059118 -1.5466522488778522
Ni 7.411669980363812 7.92282186979944 7.938334531735981 -0.48111073707708757 -0.2500480099651694 -0.12406318373121215
Ni 5.34620475071188 6.111418273427849 7.720821059699764 0.40997911123758424 0.9858673957078892 0.6164248111317706
Ni 8.207956988539864 2.225398745873904 3.497003570387204 -0.5116832105473058 0.011059086027639017 0.616239434593842
Ni 1.5557952352009876 2.175884929698165 7.896176471790464 -2.0360375672589064 0.20714941082943034 0.667646071200592
Ni 7.514883966047022 0.9584711524060116 7.292733088893111 -0.5194633687133569 -0.5447748508949521 -1.8862324986768997
Ni 7.117365636405659 6.602055179169263 2.917134358143069 0.9097434588601171 0.3624718096852403 -0.5774396881178249
Ni 2.637912000391533 7.691201683693401 2.557665534602188 -0.02265913216041259 -0.8923424897748502 1.1643407787588655
Ni 2.7381436724180666 4.614945146832475 11.657555664551406 -1.7127254584922629 0.6300945953093793 1.312092050135637
Ni 6.210695975557993 8.789267343656604 0.7577512552837211 0.6205254635637054 -0.383287717989327 0.31020693884325284
P 3.197994209852681 3.6311798994066455 13.61257803954797 -0.0029603681799045788 0.363045165690207 -0.3722330028370622
P 8.532399371749019 3.9810460434467774 12.86944382591942 1.2487413537931333 -1.9235394626574742 -1.7052517758230377
P 5.447297774198262 4.106766309209868 8.972087801732648 -0.19983179412209456 0.6309222334169973 -0.05613746642351622
P 7.552977928997044 6.304916711052903 6.210193057447565 -0.9173775783666072 0.4008468099190129 -0.9868762965883779
P 2.925214390547056 9.116738349740706 0.6120995019766367 1.0066007716004985 1.6643483527404561 0.5139002728032827
P 5.957291933177105 1.823295803623677 11.380884944726622 -0.3506388216060542 0.6136955851260657 -0.8246803105411862
P 1.1091520868173659 1.987378625802763 3.4651205997917374 -0.5326883520440632 0.4343734809215487 -0.5150757811686226
P 8.227879214240204 0.4225558715919563 1.2431579979135683 -1.3064829314789757 0.05541370088361424 0.6316670820028218
