# total energy = -340871.9651225572 ev
CRYSTAL
PRIMVEC
9.24749618316427 0.00000000000000 0.00000000000000

0.00000000000000 9.24749618316427 0.00000000000000

0.00000000000000 0.00000000000000 13.53464541530139

PRIMCOORD
 96 1
Ni 6.001615703635669 4.106489343488932 12.798238644634662 1.0161007406711338 0.39368243096008976 -2.2386330401690673
Ni 4.264371843936809 5.655426440660988 -0.22706394331677027 0.9675246315346434 2.545298541517965 1.068381038132089
Ni 0.4647541843705906 2.4639490910697948 3.934751319675445 -0.011238806138612901 -1.6171938065418408 1.2629042755570767
Ni 6.5616995507701 4.029189523817884 7.547175615242003 -0.08600108675216801 -1.1986009854933164 -1.1860702000161572
Ni 3.0423522279240895 9.129507270231514 5.740029932730194 0.28048627185036856 -0.14345984309026907 -1.2431610314918784
Ni 6.179879685427605 0.37984922392941806 6.024581860132026 0.33244646696774355 -1.270246831965077 -2.9095492974804986
Ni 2.448718465038186 2.940019436384453 9.80712309345054 0.41176782770689085 -1.0187345787495552 0.0895785196907812
Ni 0.129361373060696 6.134890617034299 13.161968558159892 -0.06852684122680457 -1.2197274830592866 0.2580539109887814
Ni 8.182434207449994 1.603682273921979 6.131451473244891 -0.33167719290188685 0.9084239687177451 -0.37057978350435533
Ni 4.328512476696516 8.882645362572866 11.455940546203774 -0.8819827438070811 -1.079071942187032 0.2940930640005257
Ni 2.2428507074694735 6.773985070613212 0.711804740949119 -0.5828796281864735 1.6985342545935458 1.286100768278198
Ni 8.332104931385382 9.228658923122168 4.224988607662726 0.6519433157533546 -0.659002022372349 0.29989810071807704
Ni 7.214498793528638 5.591082362987684 5.108692278856995 -0.8184518131329711 0.00797479067536046 0.7244324840620169
Ni 3.9857262922765604 4.5455789520091745 11.37240421518135 -1.964638546690629 -0.8201435990130972 -0.5516571798370822
Ni 0.24803171591183362 1.5449236838765381 8.733839279520268 3.2485381935524504 0.8229872391094795 0.19299780191939664
Ni 4.977279811167392 3.91339237799651 1.2579230195146751 -0.3756312298853337 0.18788182084906999 1.4920291622163335
Ni 2.41339303004077 4.470211859017304 0.42684314947126906 -1.3234475843577724 -1.1551048619828945 -0.5571146034072276
Ni 4.204355594425492 8.28529410626577 3.1572542161256334 -0.5976184770585449 0.014877174222148572 0.8801354061856972
Ni 0.32488765577139583 1.910199778745111 11.195073305743142 0.5708275821179459 0.04282043759963593 -0.08269901896212853
Ni 2.9648027258590806 2.265562557823833 5.276345683655205 -0.14998735979614167 0.809326196682619 -0.844184442012385
Ni 0.6246406172174048 1.0898081646624416 13.838768752225313 -1.0257688598885173 1.0415387211282645 -0.1626482430932618
Ni 5.449947077927325 1.4956992622819707 7.743509204359843 1.6562550342093603 2.461254064271535 1.470215922995984
Ni 9.236593274752476 6.031411135981658 9.679707393563525 0.0803711421599003 0.37907393701829556 0.26740989828238465
Ni 0.39657332057675515 3.277127658215819 1.864573557872401 0.08274375615713492 0.02207523463248456 -2.7647331974726517
P 8.359930647067902 3.916702981590509 5.723165274142553 -1.101318155179742 -1.779235012178723 -0.4198169232636125
P 0.47017506656836167 6.326729923060844 2.008730924649292 0.21860316119232676 -0.7868195309396707 -0.40008344939042706
P 0.3748102633194462 7.309498320682685 7.904760567626977 1.694883802325152 -1.1411129185791768 0.7136690748979257
P 5.025033880886413 6.827287637975806 1.865290238818029 1.589621553350527 -0.8028907254699204 -1.1202543299626124
P 1.6228615807765974 0.36009379806947545 10.256851946202335 0.4315601798424697 1.53305908357445 0.6635459329892894
P 7.466317359082211 7.6661465017155015 5.61406239072815 0.22608352872977194 1.1952822055327286 -0.7561015330305236
P 2.3449430641112214 6.048204588849539 12.238933436669546 -0.15650176387589174 0.8880744585271156 -1.5048080591485566
P 4.053233013606701 7.01358769385485 8.864800469401526 -0.24715140514366468 1.2512389234040064 1.3577525282872294
Ni 6.997987167980337 0.44287553341237396 10.696904219063738 0.4415154912829686 0.9381788313826744 1.0296882495475816
Ni 8.071214572184568 4.707659815674022 11.474604767527147 -0.6543241572807054 -0.13437587851112986 0.3709752191705611
Ni 4.287259396716549 8.206727379632772 0.4106369126039988 -0.5640828071949447 1.0367240733484404 0.3182568057309229
Ni 7.425915048740925 6.348137876468965 1.631303619941294 0.4082096780419874 -0.4384725906915867 -0.4872073368931287
Ni 6.319600103588853 7.165681261761266 12.99644022795917 0.5672524631721779 0.19197321730962422 -0.2175847472301414
Ni 3.3338425516292105 5.652300786988443 2.4802237594080028 -0.21156270940577757 -0.5247557274605479 1.6257131568667613
Ni 2.694045288348778 2.3083784646400733 1.1881811783837812 0.013697552091750604 -0.09448212763998566 -0.30366630951125767
Ni 7.985138878740601 3.2674732723160016 9.404521330184043 -0.07011963963522116 0.8383994598994916 0.9224274820856888
Ni 5.716543142204948 5.100216023956831 3.1382376652018937 0.8926947309079465 0.2057558729160134 -0.24947696795304775
Ni 4.7016027057464544 2.4089079944455483 11.130932672983434 0.6604930050955786 -1.6268624399798566 -0.9926916177185743
Ni 5.56112972320846 0.8938500238851503 12.9369011492452 0.23079790348630572 -0.0739500691249049 -0.15010305943839955
Ni 1.9064083053553362 8.552898147615307 12.608023198918467 1.044451266789369 -0.6009405994532425 0.049582953134450096
Ni 2.73982964140433 0.9209747793653654 2.984781941123981 0.5691975027136906 1.4259443547721184 2.0763912884856044
Ni 6.9381558683904725 1.8165966234980304 3.5808200529887655 -0.4988770599215731 -0.5854944401015014 -0.8992950098332836
Ni 4.686372079714846 5.034679019290157 5.218079060400828 -1.4107072261073896 0.11356125575862377 -0.12681992054074287
Ni 6.589183109097932 6.604321260168814 7.257114029680103 0.4555190046509123 0.9171688047899107 -0.5180580037253981
Ni 2.3621434068062985 4.387123106804795 7.104510924740086 1.4680191724549814 0.8963364414255919 0.7340170424266584
Ni 6.364607666974305 8.056030183633322 9.245367299026181 -0.4230236031263682 -0.8794327236917177 -0.23181657455880722
Ni 4.564406854013034 5.35995969364464 7.773813248989827 0.568526444788595 -0.6497717620233325 -0.6701032744918329
Ni 9.128869193002503 6.634801007224177 3.9796053746260918 -1.5993601207945294 0.27068574082017893 -0.045629110693024645
Ni 3.2745845967958482 1.8893744175895661 7.775599865231057 -0.6755123613225463 0.8561403288226803 -0.43685382414124124
Ni 1.472645254572924 8.294190197487632 3.59141768348799 0.6018499986413893 -0.6223136658123799 -0.7751482652493296
Ni 1.9896265225128624 9.346166855716977 7.988553979040221 -0.7799976229218308 -1.8388429536493427 0.1337364451549181
Ni 0.6734313312461664 8.00958001086054 5.8292636460829605 0.11717237014864983 -0.45742496342437355 0.5096854633909867
P 2.311689068234072 3.700228346026498 3.227241115902452 0.10498636960541918 -0.9952138699197957 -0.6222897545529799
P 2.174225039114545 -0.1317675715387923 1.299393415652349 0.38682915548368213 -0.902264891094885 -1.1751720650464148
P 5.010764994446356 0.5666310743538465 9.74947882668185 0.19701309372637685 0.9878972816537244 -1.1572039106037681
P 4.12580736278464 2.9679283795316267 13.169575548429231 -1.3644289118661406 -1.2211248776274453 -0.877698000388798
P 8.567425963945396 0.8854505232023877 2.2893175257351848 0.2838513316678596 0.9867127744273201 -0.3418783018046047
P 4.663965396730883 0.9345612005952619 4.2703429521509015 0.7289558258536672 0.33499468731089405 0.2182079826364371
P 6.046068417256763 4.103826064620017 10.40991557644677 0.05628196242118049 -0.8399691183794565 0.5527144174570029
P 7.388499679631097 6.7918234905373005 10.955294055326515 0.8264350884487637 1.5182119912592886 0.6763664817927254
Ni 9.082714940104045 8.11907961185646 1.0847044715799616 0.4243294664219854 1.3864992614026186 -0.15584433279755094
Ni 6.77450293039328 9.003759818635999 1.6075098125464375 -0.2536051311888084 -0.5673470797685132 -0.4416795276646587
Ni 5.237929735470319 6.306302204236422 10.793446228562699 -0.2639293959329519 1.5074164433056814 -0.08603759641705827
Ni 2.765500690501929 6.943667376049755 6.849599996499828 -0.27502936250085536 -0.4485639134893178 0.4963342388950614
Ni 9.019674759376981 8.555718633917458 9.757166270167021 -0.4044826068993872 -0.14591370394740033 -1.469719700085856
Ni 0.8804947900570695 2.9295050333498818 6.467502706275156 -0.5714683010257384 -1.3598235518836452 0.5980010572089444
Ni 4.580932129494808 3.009708566787733 3.293385681061096 -1.581304034623767 -0.3040915699741344 1.820153861880272
Ni 6.8893383366231 5.656471407717195 9.1627788363512 0.49575394091155905 -1.3290286779899756 1.0740143251584664
Ni 5.010006699768401 1.439511476144719 1.6285154998753983 -2.600307550763993 -1.6389075440698484 1.0078197316092645
Ni 7.519999073783783 2.3118277806751615 12.130993888261077 -0.1569185396983362 0.7552489552222412 0.48020545165399875
Ni 6.490188663640513 7.369061442886444 3.5077195212842947 0.5998591934636056 0.9313659222258992 0.6954872617825764
Ni 0.9016549105704433 4.720273400317078 4.744448204550127 1.7073474820098016 0.4935646465697241 0.3793978960166176
Ni 8.175628050340544 4.333940756891145 3.3655929046449513 -0.9655878195232467 0.01716365626348012 -0.6855903143838387
Ni 2.0434284546633776 7.533195250679414 10.24638932914577 0.6410382388050767 0.9475602725975745 0.8384465110873431
Ni 6.166803725980918 3.193262116333209 5.195963673543153 0.46966418580304276 0.12346000292957447 0.6384823051524423
Ni 8.26812150605891 8.788061972742087 7.484347202175003 -1.8255053560001722 0.5706861714440752 -0.9855547495634769
Ni 1.215259696383633 4.387631719088789 11.292265414216008 0.46025137712957503 0.2930887911057275 0.29846831025008597
Ni 4.652711194010502 8.67637996267303 7.536808247394987 -1.4181508268696286 -1.168324703107278 0.972244405607816
Ni 2.493800008392219 1.522073121081089 12.201713189726847 0.936028360698575 0.7792985399722772 -0.5791412441899639
Ni 5.185829342597166 7.25068424566081 5.557108911916084 -1.293946746685178 1.0523856911450973 -0.4936281528178079
Ni 6.92301771731959 2.2130922651077753 1.062078622939077 2.635372769898242 -0.23725111531081725 -0.2663732294877541
Ni 8.953906567308492 5.19110041535856 7.338877615705405 0.05741530469467532 0.23948848928176816 0.22624679378051357
Ni 9.045595490868541 8.121927840646826 11.886558523571887 -1.8362525672143473 0.3525908031261024 1.641340578991373
Ni 2.493439356045387 5.530446531239501 9.482657123500058 1.0831723375086506 -1.4286936353824815 -0.797809197181955
P 7.590585211306106 1.4369591672286752 8.328908996742683 -3.1893603976407134 -0.10337223104076391 -0.3273888499391781
P 0.872244174061076 4.128933016457186 9.021328211674765 -0.48971930468170494 -0.9573075817923254 -1.1630691111352938
P 7.688294254809432 0.39317116677163744 13.11573477679521 0.29139237723991107 -0.9483213191333151 -0.5707414501620429
P 7.186562107893248 4.263289886896312 1.028867165543862 0.7530956563246642 1.425719640355822 1.1016516272597607
P 2.885921584359614 6.738317478261108 4.624057827429482 0.2108165752683724 0.5859304991976554 0.0753045262702703
P 0.32187574630054283 3.6818258288419803 13.100913814839618 -0.5236434682329757 -1.0147298284655364 0.3226017129631799
P 1.0154767912307052 0.9110457428321911 5.562603774082437 0.5004094374056994 0.009677632299080106 -0.15069852693055338
P 4.378772617851217 3.4021168151333794 6.561271391701936 0.27457530568257227 -0.364520721794469 1.3589048967241177
