# total energy = -381164.2488375096 ev
CRYSTAL
PRIMVEC
9.34726345031841 0.00000000000000 0.00000000000000
0.00000000000000 9.34726345031841 0.00000000000000
0.00000000000000 0.00000000000000 13.68066489541887
PRIMCOORD
 96 1
Ni 4.98889622090115 3.6273831756042187 11.006478412544393 1.7005595125536908 1.9572260562766421 -0.6768267092585956
Ni 1.7333845739638392 2.424698830666932 8.892405036311406 0.18572672217928013 -0.7521304641979176 2.1341511210038924
Ni 0.13900502405769452 4.973660181495181 4.991226493676554 1.1327429493479266 0.7201734516753467 1.0841203032442168
Ni 4.181956315454602 0.7869451742236603 13.454674394044897 -0.9140024912467871 -1.2807420750694458 0.18921185251440317
Ni 2.45726469648926 4.415824846704502 9.903802308596273 -0.697163878154051 0.019730645659707956 2.1457174856852532
Ni 8.091374470811148 2.5265933494181376 8.904416269830836 -0.2624530684977415 0.7285213094194098 0.11791336207973241
Ni 5.326285694740684 5.178019402067387 6.46306061571517 0.06417062114063787 -0.19415197012849789 0.8213751574273532
Ni 3.2749446076275004 6.6826297033557145 2.3032217950105087 -0.091353609313333 -1.5935771955641653 0.031745410732396936
Ni 0.24165760587382282 5.637138287676204 9.924679421487825 0.06895210168968124 -1.3223895754069033 -1.400867871419465
Ni 0.6599401669692679 1.3056631462474448 2.350748890693692 -0.4029389165613513 -0.8820416220694746 -0.6600500040208891
Ni 5.387426144896784 0.30522834452412545 6.113136461603609 -0.8008551830971303 0.47169330041792956 1.344039292466195
Ni 8.64966782151035 7.92269375478654 5.868540076104487 -0.014772787433800364 1.0117566047698254 -1.668593244059739
Ni 2.177463712698912 7.013261105728675 5.3670481758728865 -1.1008797820907428 -2.1257832086551716 -0.4645021819861291
Ni 2.632535233238536 2.739982026472653 0.8228143629454175 -0.5303962135757768 -0.707061339773421 0.7977166374681488
Ni 3.880264040689543 8.520787753210046 11.360875232211631 -0.7605577690296643 -0.880031019397349 0.27738372166564484
Ni 3.1176862475256493 4.970762529829016 0.5330996715514064 -0.2476365723101993 0.20355038062426234 1.8078768442851316
Ni 5.761475585945035 6.063392195032636 11.536808489938752 0.15582787773731874 -0.6458829684918876 0.46244324257457137
Ni 8.829583948188931 8.938778679686187 -0.11315610174280746 -1.1148179894383896 0.5411369970320488 -0.8646290830199819
Ni 7.376635971929309 1.2825380164987537 4.941702822522748 -0.3565852689974762 0.8477104528877722 1.4231007146757362
Ni 9.431762700735387 0.6496329395748129 9.788679542625847 2.452068026896893 2.6057356637580997 -2.382450009488439
Ni 7.679393834726442 2.2611591095339083 11.479048944968628 0.5823432960670294 -0.9179712460865481 -0.2962041968062576
Ni 8.178995718290627 1.955307302538385 0.34432981694317355 -2.184823964768411 -1.9825308535900181 -0.39241821953568545
Ni 6.293110541315512 2.6310022820344994 7.0272380687493765 -1.653407023237604 -0.3213035629770466 0.9104906214387868
Ni 5.142733482584237 2.631460297943023 0.6756417000945111 0.4528314305164201 0.422165368891131 0.2469238625138909
P 0.9435127715573515 2.650893258633212 5.273677426651928 0.41658967457556645 0.22842708926128402 0.23688678999286297
Ni 7.810620066149998 5.009366727833096 3.0686280700911177 -0.08081414323458985 0.9763674266372541 -1.0707207420088591
P 8.216151090461626 9.261932271307751 11.053895210518993 -0.7871602021085411 -2.0338778406034264 5.487379235967266
Ni 3.21604750069682 4.27836399056697 7.846189207715355 1.8255004709041658 -0.21637915695781443 -1.6884429317958147
P 3.552436817348356 8.676354258629395 5.204548805160651 1.3031592664223814 0.21014860266707036 0.10849078321425187
P 9.16704820013598 7.853869854083381 3.5936096433455402 0.5671023107475588 -0.4032734170826345 0.32228083928865137
P 6.142750461631823 0.5516708145524977 1.5545751632764655 0.24659424708861402 1.5474667743593478 -0.3958287878791312
Ni 4.921493104240757 1.2897447566104112 11.296275359856669 0.25442659864883926 -0.5954932031854261 0.9961410097197555
Ni 7.334031145173232 6.1124933698789885 5.190197951602379 -0.8528171779867184 0.5718179710556732 -0.10552270172486342
Ni 6.559049533425461 8.329580132296858 0.08782595254879849 0.056364237722341635 0.7433601742044553 0.5704892249419207
Ni 0.4617566833513718 7.815489990401844 10.323894499893553 0.5630795627414109 0.057010870167405046 -0.589640601059391
Ni 2.320392717948401 1.1671273548144006 11.346470164525414 0.8462585509325942 0.9041417964026235 -0.5617125071905552
Ni 4.0776595499995105 2.9435280351256434 3.0752627576802936 -2.8445806059185976 -0.017380657370292645 -2.517872584096528
Ni 6.248112815118989 8.515487854839995 4.329547735707586 -0.13339011755909283 -1.8180062194096498 0.3069298107538778
Ni 7.144889269480117 6.540401742864168 9.466226995762225 -0.1880432861275987 1.1663356977017074 0.5193749227646087
Ni 4.249854837077274 5.81611034074742 9.470179953470682 0.4720421991169161 -0.09540129702014538 -0.1231697253826653
Ni 1.2037405857059216 6.501956448338555 13.657421211673833 1.2293413519999667 0.8653158246743614 0.3220247574137873
Ni 3.2727012644020816 3.3946550104939064 12.362327950923486 -1.1207238133998634 -1.270155300692535 0.23440336144937693
Ni 7.495617288247454 4.569521899436001 10.62172261595283 -0.023157154842753668 -1.0777413963010665 -0.4942997249635358
Ni 5.216146889636065 1.2348576256951669 3.8431311019508 0.9794092987873713 -1.2311051287686088 -0.4058568615390945
Ni -0.06660486036268143 3.5290499642233657 1.3351593707563254 0.6119981428189847 1.5116531070948482 0.7066381361930734
Ni 2.8657214142573713 1.4118293643903854 4.512102594855065 -2.0812702138444608 -1.6965020546548653 0.48095210001203625
Ni 0.3155505275400833 0.5545348160702821 4.780735468288205 0.41184316102951646 0.1518465244920675 -0.3975491130043476
Ni 4.53908720967782 6.442545241918715 4.250733479840564 1.5429537169803427 0.6044753520793783 1.0253999065848727
Ni 2.134643898883732 6.746172400215698 7.91773970516374 -0.6385548102615907 -0.5422037477336661 1.065019577859024
Ni 8.853699887862183 7.821117042992269 8.122197072002058 -0.1390303465640057 0.3072303727134321 0.874056546981469
Ni 1.5917454910689657 3.196334122103453 3.1274962005051363 1.1518776132948483 0.9692467564320726 0.6307047180895524
Ni 6.748621383236781 0.33847375639848676 9.776408455182807 -1.3806286615544545 1.5503160708826849 -2.607420250549374
Ni 8.39070188792608 3.0302052089977587 6.476166413783335 1.3186694462428388 0.5709024012199394 -1.1184085350031254
Ni 8.715126707375381 3.2267501173347553 3.855758320130875 0.4041249664496524 -3.385908378805214 0.1681807428757168
Ni 1.815490936014164 8.910073233664265 6.5087266712476 0.1275763390907932 0.9011333485936028 1.1393679108636119
Ni 6.366495906577022 7.421072862319478 7.158530665743351 1.4077255177712464 0.2178606265993474 -0.1851723923377069
P 7.611130769829638 0.5063908010001088 7.709027464007879 -0.6840779915043702 -0.009200692662661573 -0.6751950871924435
Ni 3.0325607193844486 7.9270028432320325 0.46887649391304453 -2.1137244777184243 2.2222355726476497 -1.0778478399719436
P 3.9240372753755253 1.0415562177715882 8.012122763015169 0.014085274448472518 -1.6097520055518149 -1.1885207184391788
Ni 7.8188830470302895 6.432824087941902 0.9457570495091141 -0.0001558088515739252 2.5667693097972313 0.2302176055028035
P 2.5506999418279492 7.295025014841265 9.973697405689567 1.1783422352442803 -1.3212012115257568 1.4882532401136692
P 5.035875566946793 4.58388864334212 13.080248258280044 -0.1643891370437685 0.13215495960041113 -0.7248770277986032
P 5.291794292649872 4.428340832449651 3.1662116309441437 2.602542353631782 3.5875553717591764 1.1407799607197902
Ni 4.972398300930883 2.1641438622979883 9.296654550805513 1.2704898012138182 1.031400604252998 -1.0406650602740593
Ni 4.838592224798097 6.881922707143848 0.37696952614667184 2.1073411998998997 -2.265339088705344 -0.5375194548841193
Ni 4.0867918263796525 7.184605791833468 6.902948441524085 0.5294911852630043 0.629294210895271 -0.4797945893688253
Ni 1.3360884887421862 8.666333992222524 12.230952163284904 0.9206199965633048 -0.37029953325977516 1.0425471077881208
Ni 2.7680051222635083 5.100334295623824 4.132067166300321 0.6957459147606018 -2.166652436065707 0.4538760697308506
Ni 4.762776571042384 8.445168391986558 2.223983173383344 0.047844116066472445 0.6365485784648391 0.40291269130910606
Ni 6.296251221831098 8.238668648086765 11.456694964453673 0.1944337630349748 0.2930895624366759 0.4124972496737477
Ni 3.245528769584198 0.9344580774637552 2.300731684030294 0.4734401079057072 -0.25167191872183753 -1.0985801874232886
Ni 1.1607899102025927 5.971882485962432 2.947800669243722 -2.2902790464801335 1.0059394838674158 -0.6929529253964969
Ni 0.735162269496589 8.16595628579288 1.5684474369466483 0.21287114380455596 -0.11200085325003936 1.0307776259570185
Ni 7.3257588170295005 4.011424841269023 13.130757131000346 0.019351407943418285 -0.5166870915198005 -1.1997484688341984
Ni 0.7940715278697403 2.1461223383871246 12.981856159139523 0.882756645858628 -0.1305739882665364 -0.46138137696896026
Ni 6.6310234619076445 3.941096031152146 4.9372563293047 -0.49695053232282155 -1.0937575692236647 -0.6511035934608786
Ni 7.851804108863308 0.18120231012782043 3.0420734293865674 0.7361466871751515 -0.3421438967611656 -1.8383356749956212
Ni 2.4417388919166747 9.20217521614066 9.139217657971972 -0.24136359481729397 0.8195208778274338 -0.7995691172958552
Ni 2.293285653974592 8.485249457614039 3.420288945749691 -0.7374679770897363 0.0774861073026214 0.5737727807891989
Ni 8.751739938266903 6.539971768745963 11.910386828909665 -1.6192272920321018 0.3477704989193237 0.8320622048275541
Ni 7.046219556615451 2.4758937925236744 2.4268814166799957 -0.8560446837850805 0.331437566087255 -0.13231642487893988
Ni 0.8734279250162393 4.244349298911559 7.690735804183622 -0.9629274990822642 0.5834077327758017 -0.38211375228588385
Ni 6.122952957667503 4.821458690913961 1.1977704885472762 -0.4773934361265004 0.07957435729021779 1.5313027630049756
Ni 1.1886541025149808 4.683053761169067 12.167337492496435 -0.2586532351356771 -1.1066315969728555 -0.7194064916023352
Ni 0.2777146745907089 1.174371483979815 7.368871200190329 -0.24668217881673 -0.5000520540662807 -0.3854433308797491
Ni 2.466621307191944 2.04569533999588 6.888269499019095 0.13799393487969136 0.5098854952169348 -2.2609993236794095
Ni 4.258949724403659 2.9043910431055266 5.250119518606 1.5381529531575895 1.9758745246157647 2.873112909030336
Ni 6.350456002515278 6.765895126072505 2.5768077833401035 -1.148519238345577 0.4289327695219516 1.2056774327241235
P 0.42363013050903703 3.355228253307173 10.344976317854428 -0.8566260102098473 0.07610259669153345 0.7748376759874461
Ni 5.1830762715880185 7.927311302925527 9.134990825444746 -0.6221665987115543 1.0045680574411862 0.21015117377023163
P 8.9791775522706 5.233953426487827 13.6539879618126 1.0947893529222885 -3.007721729487878 -1.0636157555329617
Ni 7.754256067611352 5.12637577156556 7.730437370915468 -0.14896997427522085 -0.26744152285126843 -0.620522378239912
P 1.9534191553236575 0.5613657961916821 0.6540532604552317 -1.0118355376368768 0.02058476612988713 -1.483344232847826
P 5.841590980882801 4.2107552341109145 8.770318559078746 0.27854688873581057 0.32246184495120594 -0.0878759351773777
P 0.39820276977525987 6.2835950271343615 6.794624874979367 -0.5009105454118341 -0.8264492295161509 -0.4289625943186225
Ni 3.4152283373236836 5.865445197179753 12.214686055447931 -0.6256622705696386 1.619549451258211 -2.0928597184542728
