# total energy = -340853.0538490136 ev
CRYSTAL
PRIMVEC
9.38146857210131 0.00000000000000 0.00000000000000

0.00000000000000 9.38146857210131 0.00000000000000

0.00000000000000 0.00000000000000 13.73072754864225

PRIMCOORD
 96 1
Ni 3.122856292198056 0.647045504128202 13.533444564579387 1.5867079792481578 -0.36628964076943366 0.5682161126370279
Ni 8.869165169489161 -0.07539135632102748 5.249915683394259 -1.1301880441365568 -0.3796388083828301 0.2773145589906063
Ni 7.094369596933936 3.2648260534292484 8.785962802581926 -2.425148833908546 0.8652299498287744 -2.806211519222096
Ni 2.0532469360061616 1.9471894357934718 8.234166408927798 2.6330204676159816 1.9052535198640932 0.8153217521444216
Ni 7.233187184784195 1.6131059647564008 10.673388532107825 -0.6787748341239019 0.9320269528486658 -0.21169332144637087
Ni 6.901139492388977 5.023795088801032 12.59277973889818 1.1980659389254529 -1.3023761083994536 1.8603849414861766
Ni 8.752985064877578 3.2257991449033936 10.020767621312094 3.54617680881239 1.6986111305780685 3.175336829668112
Ni 7.475154017644495 5.6479066552892565 3.1247701117507667 -0.7801089516887145 -1.714790054330776 -1.6585839394528532
Ni 0.12625955425585678 3.965950093977267 12.498175135302885 0.639155419960067 2.0867518057843224 -0.07241460631698497
Ni 0.6001634921146793 3.8084540025512936 7.3608783511172255 0.05019513279715226 0.6912976491812611 1.754625441160159
Ni 6.446157038137317 6.102992305693269 10.774405369351538 -0.6620760333119824 1.4667027676364028 -1.7184222517667243
Ni 0.8617741816486059 9.38108375543395 1.5188522280791033 -0.2861838364557781 -0.01665277806533261 0.44319390742665604
Ni 6.6563113116680075 9.010262454159559 9.25549872875574 2.4527619676401238 0.37180054328533385 0.23668264440185688
Ni 3.2180781964137837 3.6540631771642764 5.9320581989373835 -1.0618406659104098 -0.5099088922557026 -1.1751424973600602
Ni 7.063166833050045 3.3467262725231697 3.047260419866004 2.4593051680752804 -0.969397423077324 -0.7727046888048433
Ni 7.674303828747101 7.771270686084418 2.810226363088131 0.68199796904689 2.443104647056018 0.19737099128642782
Ni 4.786565897480529 4.7071048601694745 4.467937457478433 -0.5615019338416459 -0.5726438093910782 -1.1982880822385877
Ni 6.3100037873114205 9.09059596803141 11.469551538237855 0.1394103556112438 -1.2231056555029 1.7756961457875289
Ni 4.996100994097108 6.403246201695668 2.820181977349582 0.3272163289170558 0.9940422182091978 -3.422293088081835
Ni 4.66861269534217 7.42552604983157 4.616366359700022 0.013650500903899071 0.7440263470335444 2.4979041113944014
Ni 0.27165073701093845 5.1036595292530995 2.711296902562447 1.4135030436849723 -2.0971033242219757 2.093011670651105
Ni 4.87175901198132 4.285708062774199 9.817607232470353 -1.5970299299994561 0.5739818114762115 -1.283149656069674
Ni 0.8699144817755011 4.592463316374776 5.3796032262018825 1.4085151035520773 -0.02188265900570425 -0.9786389962802501
Ni 0.29708295968467396 6.561661677024415 1.1308562726128186 -0.49542741081007585 1.4146482130330087 -4.358087735503049
P 3.748037346083384 5.619274413745769 12.183453138740733 1.7918969239171074 -1.6818927893821225 -1.1044821547300205
P 8.07184355201227 2.7911181882598948 6.856603785621204 -0.06791440445378626 1.2572982422242087 -1.8646838259718468
P 2.1394626305620763 8.000450577521462 0.24009804435588858 -0.6146893164979027 -0.21784057199468934 -0.006081430307389526
P 2.292230461916648 2.534272346524113 0.045948555908156635 -0.4128777729416179 2.0077433482999036 0.41434330174355094
P 8.164119675151767 7.543385437285972 10.948565763088684 -2.981195915283208 2.1980584611808145 -0.6746914080831476
P 0.6277731536030425 7.3146933822054985 2.9693520155744264 -0.32586367154390333 0.8764433020460907 1.0152409637739999
P 4.897858257057986 1.2789099160985824 5.3376558665644644 2.066627524230621 0.6772547979349498 -1.0120530529643215
P 0.6854288439221161 1.0879126010317848 3.675619915243774 -0.0390026065154425 -0.29081824990399596 -0.3865111100226311
Ni 9.162655026778307 2.977612398496786 4.279537871010388 -0.45949727257237 0.26617396899275453 -1.2811714492973807
Ni 2.1382899470126215 5.239944120636535 13.339895490108976 -1.670120479337543 -0.8378417876238087 1.803614726574668
Ni 4.335270360308355 6.7688232621368964 9.381107209104938 0.8307121185575629 0.9765137224071311 -0.016134700778333504
Ni 3.4020956989942266 1.934355587028239 1.8040394858381081 -1.6822799975182121 -1.7686209841083023 -4.803312043096173
Ni 2.3650400381351964 5.505768027626943 9.19220008519669 -0.3457745515352174 -2.2346126061557645 -2.1251684578893077
Ni 5.458288416076618 1.95429120736897 12.74295265609452 0.4015592626050052 -0.26211599687329695 -0.9447207462662504
Ni 1.2547244905746273 9.289680108855247 7.656583173094581 0.25734762895037616 -2.020209084867082 -1.1961324693481659
Ni 1.3570200219606658 7.921927687049972 4.879804559277419 0.3747588545827094 2.2186758803208497 -0.03451757416089539
Ni 3.8174789751478975 2.586836713944874 3.581413085908454 2.619348112335212 3.8727195087011883 4.66671087479895
Ni 9.205912977550595 6.4434270308341866 5.206870691954553 -2.7309710134205423 0.7778319827290798 -0.28693357013760906
Ni 3.4167495526282132 0.2479644056056312 9.300590756599375 -1.8283847344304964 -0.037429605601367794 1.5174977388010833
Ni 2.3344939770389983 8.836311267167638 11.870570848130965 -1.1139754389324361 -1.1358228738248308 -2.130729496916853
Ni 7.933316789682276 0.9670042363488002 2.866426987659041 0.5604668077089122 -0.26572993947680046 -0.9837503493648863
Ni 0.8809846144823542 1.9701552704259941 12.228407258998953 1.995555033763828 0.36614565899240165 2.190291672751202
Ni 3.0610324154708004 4.817609176401696 1.9939354165152579 0.45949778679300224 -1.309918696633402 -0.8527629277100153
Ni 5.065786541339908 0.5445989311009937 3.0810787371386 0.6851442279853556 0.4900525196514076 0.03459367881446945
Ni 8.132119486454245 8.148912314882438 13.04049718402426 0.3727873326786354 -0.5686493435197046 0.9295180703838829
Ni 6.887686466709633 6.607208706085238 0.7846359959123106 -0.42385278389588293 -0.27091688299437855 0.1988303494407737
Ni 2.4417429237379333 3.348020915161768 10.34946706763691 -1.8503170157272133 -0.033034818967781814 -1.9482835023713736
Ni 3.018290445460273 8.392595956459138 2.5467206169382854 -0.15219259497757662 1.244913752516927 -1.0053031358349978
Ni 0.1314390629570886 8.120111206907827 9.454045311440508 -0.42602125230211146 0.22623753780913294 -0.6061959343149109
Ni 0.877268614850842 1.6876886385017245 5.839294239441313 0.7081296331369353 0.4295408354195957 1.0265229644457223
Ni 7.799827875880741 2.7790817643082915 13.292277970973236 -1.0870536748409279 -1.3500800993436364 0.46011922242708503
Ni 9.328631965633937 1.7779008385941812 8.365692719540966 -2.7057690602336173 -1.3498965225779205 -0.23186259730539424
P 6.502173785927673 3.6875268749315175 10.875916609979702 1.1830614950968206 -0.877975936640533 2.0705931937465887
P 8.429868530395009 9.232059129969237 7.6511869524734095 -0.18440106138932114 -1.032182476724345 -0.38398602960793227
P 2.384909988197158 4.113304818067556 3.925504707429992 -0.7178473746453315 0.9390409222726537 -0.2382391902556994
P 4.312801743500802 0.5215711787770602 11.421933080955275 -0.11866155309966661 0.47236204435018003 0.11889706614924041
P 8.461859337624135 0.8219854978890253 0.2923453181448767 0.5252290675525406 -0.15683086508053634 0.2496199212888153
P 4.897023306370774 8.529077558678882 1.5381705477994014 1.2024951783414 -0.8934465214723065 -0.853274577239111
P 0.8550823802419972 1.2792288860240342 10.300805391068733 2.1607903208579757 1.1468889018310053 -2.894895552123066
P 3.3913351547444295 3.707687650513744 7.9408229025456265 0.21534223105286782 0.5324150437780186 2.8103713070267404
Ni 2.92269328250872 0.791205838229776 4.236959138549944 -2.4292983373005455 -2.535719125359646 -1.2869042380160998
Ni 7.332424357473256 4.576664923596521 5.259006326269632 1.5318627492735035 -1.8130079948641098 0.8312481935666909
Ni 1.1097526594568305 6.520477030767563 7.265531673371837 -1.078008276809208 0.9227095321024819 0.09321714488463301
Ni 6.672278570877385 1.1585550580509403 6.9793837532491185 0.044220146160639975 -1.8980264059880343 0.7573860561699021
Ni 3.959758324836146 6.771290588324949 0.4927559985998575 -0.9587954791917617 0.9346196532765065 2.1154136924953892
Ni 6.40935353762123 9.470310901344865 0.16093533773981455 -0.8253487973631204 -0.028263622831383582 1.3468528506555901
Ni 6.986004255495921 2.027795012248795 4.763683557916728 -0.6397310899578789 -0.3583477602145377 1.8981086812891956
Ni 4.460428530174564 7.558452075529367 12.21062562380186 0.7293787723236986 1.579788626420505 -1.759640634986563
Ni 6.158230391606787 7.677202702481353 7.482532542537664 1.905623244498686 -2.709295328219321 -2.4385764201683613
Ni 1.9023647797991126 6.183532211869823 11.129783835499868 2.7649075182669867 2.7061899498211197 3.6195411806371536
Ni 3.6343151861914578 3.1804866525524615 12.106945387680625 0.3007203395090563 1.0675762828426065 1.8380973337325697
Ni 8.245475769078741 5.839785828385244 7.583247296499038 2.231396413211312 -0.1711879051331568 -1.7603476883559166
Ni 8.972445755056741 0.3961812866414791 11.56624258040434 -2.538505429855532 -3.0675140190551624 0.5632343431517203
Ni 3.1399305646781177 0.9944731758112287 6.3729252958409655 0.132978483942971 -1.0306081902586894 2.94352256910215
Ni 4.851213596194872 4.745962902264207 0.12104908670891931 0.8914264057184842 -1.6460984053913328 0.5062725810546959
Ni 0.2724875639918294 2.9037051904759483 1.733106203298688 0.15888363384450702 -1.033012428824808 -0.9897132518165408
Ni 2.6071006856794523 6.42305048147886 3.4854491075426317 -0.4526681654656784 -1.373811381522305 1.5847637110375932
Ni 5.711588062758849 2.4755162099622314 1.3320878315524176 -0.26666427836561174 -0.011479204284193134 -0.11732637922801085
Ni 5.54984216614965 5.503460186401616 6.35657152013369 0.026066358069748653 2.1895187991409193 1.9455043969643397
Ni 5.426269464442305 3.2023736183194855 6.687385549434881 0.011225693512490344 -0.4929318980817317 0.1810401153368882
Ni 6.4868819924427825 9.04467368023476 4.731855988237686 0.4953626190104114 -1.0847535659528413 0.7345029809241415
Ni 3.214775919538519 6.084604627637818 7.288612900065626 2.8876746088945944 -0.20964132401334862 -2.616740242398719
Ni 5.300004281305411 1.737063306667968 9.08508716978949 -0.671110889820741 -2.571103161285895e-07 0.2891930555957471
Ni 9.236036872568988 6.2088527950696495 11.94562259529607 -0.9350827089558542 -0.23797256685787405 3.249141631464404
P 8.198821726747232 4.444217352786901 0.9547520386240966 0.4411948747187563 0.9237341167122544 -0.2266337448062871
P 2.2749310341950917 7.784142060723234 9.707665804341868 0.47460404630682135 0.13555755752405688 -0.9555085809103737
P 6.526068385931363 5.627389383907996 8.440690054189378 -3.7779234493652094 -0.3429396531895835 1.8960258306182378
P 4.911836644967487 9.038594488714386 8.091929275847331 -1.3444085028801556 2.0571332115869407 -0.2725703594374015
P 3.069081715354258 7.938279586463568 5.9693242058453775 0.7888018514770222 -0.012151547760869396 1.3832995235183985
P 7.036082533791838 6.652905838640391 4.865126313825603 -1.5951229427847302 2.446209254123271 1.3495231983989018
P 0.4179894480739796 5.180690766249684 10.259997879841388 -1.435088740275548 -3.8301551529764173 -2.3687419158737266
P 5.600614673106845 4.504849783027911 2.4087539282715116 -2.2120583750043323 -0.4702519399857127 -2.0135015909399194
