# total energy = -340869.6899779358 ev
CRYSTAL
PRIMVEC
9.32506259445107 0.00000000000000 0.00000000000000
0.00000000000000 9.32506259445107 0.00000000000000
0.00000000000000 0.00000000000000 13.64817169874729
PRIMCOORD
 96 1
Ni 5.590057819898375 2.1585467800249485 6.082512496989767 0.9079136047402299 1.2959504073787682 -0.30428465982154695
Ni 1.4133623984191213 9.095563229428949 12.825105126657949 -0.04518636672865121 -0.5155398652892347 -0.4615374429308503
Ni 5.280139373073496 4.058770683144743 0.8901592607722788 0.10369336182560851 -1.6646522571341205 -1.1155558960456788
Ni 1.413548899665894 0.00033943226912669074 9.985616184490567 1.3989534280055713 -0.6921828799996917 2.28060295684295
Ni 8.260932849870837 6.178749005337054 10.900344187006477 -0.10290403315509375 -1.2781059229981795 0.5140311419541922
Ni 1.7377346918688996 6.625960344973809 3.678468530800238 0.8909214410576075 1.6133842029877634 -0.1580940480636761
Ni 1.220790536063756 7.674405078894722 6.732574715197774 -0.36339097906539997 -0.9709593682478053 -0.0415611112712381
Ni 5.42556372024467 9.224211789452902 5.8616847632420725 0.8829890735844084 -2.4682094125434464 -0.5957243453596257
Ni 6.090571215862825 1.4215125029030973 3.424093885289267 0.21620200795000186 -1.0629894348028726 1.7416879071628844
Ni 8.111629276766786 5.252360012366671 0.7085723218518379 -0.5314007435808913 0.7769470090209653 0.9165098310496732
Ni 4.677404643752815 5.6999723296839875 4.523017979167968 -0.16207103043355314 0.49181809619226263 0.41182130665264566
Ni 9.108394515206927 6.989199498251061 4.798206163818796 -0.7439471570561768 -1.5820905350808045 0.9009916808094159
Ni 6.017201625382363 5.822223896943627 2.0704958113985237 0.7329196955974216 0.24681587618111683 1.6542405748824929
Ni 5.482800952879275 6.139630368826438 7.264661839734645 0.5056388041254389 0.521368813266186 1.0809899851453513
Ni 9.002825484471122 0.0002806843763932251 8.709785400479193 -1.9160868630341708 -0.9671641628714311 0.5634855399305779
Ni 3.905932911414346 6.840968307315954 2.3555788196968876 1.0075222549735035 0.13744654701665363 1.6833578039634232
Ni 6.7444259369239585 3.6730115043196627 8.25734829590786 0.27373661183136083 -0.600367757668908 -1.196994817348461
Ni 2.110159031549718 7.764718307644501 1.3960028623694989 1.0212738002316413 1.2521022998455662 -0.40681768279046715
Ni 8.171430901544518 8.516691334632863 6.6575918889327275 0.0574070771645592 -0.6664836754613747 -0.5505328364246518
Ni 3.9586101885653537 0.8319335715297772 7.334773253433983 -1.5534008804555957 0.11773235641717789 0.15608987314945377
Ni 3.3255503565193987 7.585966187675009 5.6593915233986705 0.8886637553716824 0.4424832545128767 -0.4494128917531744
Ni 9.180682398456105 1.5995186178854983 7.187877411425771 0.5957186889326708 1.674581857543006 -2.772430309006593
Ni 1.020777273962152 1.3415221181621975 1.8998667532322249 0.5370939373109266 0.1822775872884151 -1.7806573464475461
Ni 8.570002716022898 2.351678146120632 3.84683253132448 -0.7382814741299673 -1.0721908987964823 1.2618444668339945
P 1.360517270146018 9.104832341393564 3.1631142981238334 2.0491180545919483 -1.3355847339409386 1.0888493332887699
P 4.551143299687557 2.4235557266269105 8.63244146843 0.8738829975180821 0.9463567392077765 -0.36190179611438317
P 1.627027551784502 0.17382289201728482 7.68303355907667 0.8674128164127062 0.7761191138030311 -0.007817182051573635
P 4.3835159790880684 6.293148870107556 12.228761795064177 0.8280201735476966 -2.3088007594334043 1.1994234813946119
P 3.0047402368829825 0.7604812138661411 11.481592107686449 0.813404994737683 -2.1578417797526126 0.9310751304583578
P 0.7165032873708558 3.0485400546876 5.350983736672652 -0.10234199000403665 -0.5492506272781187 1.7398025172147136
P 7.059585068783156 5.5152708199424385 9.233369933175684 -1.2318648897527686 0.9812970027283875 0.29694364607544343
P 5.333143027406355 2.924442125084907 12.24932915255829 1.1808824851676307 0.143295806708579 1.352637061437535
Ni 3.703821510286547 0.8796359279231176 4.493305533038343 0.48224536490216297 -0.4009892490341481 -0.34988548837979744
Ni 3.2823473427044547 0.5426123223984989 0.38061174441414863 -1.6496732672267846 1.715964020034219 0.963363043957786
Ni 6.725029807259577 8.151409992703448 2.8615026168302204 0.9174523974686006 -0.18924527685549988 0.9927800636673225
Ni 7.894336674151672 3.802779071824251 5.916441529294599 0.9528449180352816 -0.713361828070152 1.607986686121276
Ni 1.0009335413055147 5.700671709359385 1.596685663947018 -0.568000397081796 -0.9822969047478115 -0.06602130119613146
Ni 7.7209930903385935 0.8296601213316155 1.8548136470492937 0.8538921562184519 0.6619024838485955 -1.1117311229829498
Ni 5.023233905643816 0.098520216114022 10.148766542661274 -0.49135529762323127 0.34257532787162936 -0.7675036042198783
Ni 6.3502275766824035 2.2494101874527086 10.156355278392462 -0.08677216059023767 -0.14457724452416393 0.8716600217248343
Ni 1.0085054919244947 4.636840622579707 11.776133526714903 0.9849937348536845 1.2357521406223169 0.5043959328572732
Ni 2.6719567372037454 7.719519730489088 8.873304098612273 0.6737262159564009 0.24162841844290642 -0.419158206633691
Ni 8.935069581518524 9.162172149713893 4.294220114639434 -1.7755634768644066 0.11312982464816 -0.8663182977969468
Ni 8.708740993497264 1.074918585900327 11.28862113266299 -0.142891886401941 0.4068279672031123 -0.12231791890533127
Ni 1.3028977099555286 7.138698897664223 11.034505723885035 -1.127918788486406 -0.8307095474544015 1.1641654295232662
Ni 3.198962635272288 5.858405138817571 7.509824256161268 -1.285911277975211 -0.24631322551308546 0.0775825236711696
Ni 3.39981515298437 5.360866437739148 0.5947562059837359 -0.8179525048990495 1.2917859915884333 -0.5045460852818924
Ni 8.614632464375655 7.5050805969495995 13.14923496848692 -0.19655029515734537 -0.07749844859779556 -1.571636686737332
Ni 6.1940887328841265 5.023317831204864 11.425976503392535 0.07641138618120388 -1.3539845766043648 0.7566844021171871
Ni 4.883712322933005 4.811471064995519 9.320281379184326 0.7166929493259141 -1.6993096993069894 -0.9956635558627046
Ni 3.619765398365998 3.6609541987157943 6.466053243484485 -0.023646435774346372 0.021156065252324857 -0.24701076580074233
Ni 0.4998410589698342 4.512248464673067 3.7343853346076905 0.10355015137952489 0.626580925729166 0.41696736962995934
Ni 5.003819125854757 0.6942369035186384 12.666745053010604 1.268315933490951 0.2969765561959079 -0.9928512832248901
Ni 6.2063605149217835 6.641831601074183 13.546232712442539 0.5461550190719303 0.40299779482374465 -1.0271372009909536
Ni 3.8979972833641594 2.2035402058089124 2.2051487790623288 -0.3657872472117184 0.5695104059684192 -0.40864265181434783
Ni 0.788457333388311 6.0126882952104586 8.929124854277639 0.08910286560594331 0.02554853789306568 0.1414536112935177
P 8.930574901471298 0.6821758678898345 13.559253296985988 -0.46157498103700506 0.6515406809982972 0.45345569436398026
P 8.245537171949733 4.343809863650116 12.501560898743842 0.7138148564471707 0.7121793777262767 -1.6425952773340806
P 8.875174706117406 6.244257568266039 7.081299408944926 -0.29585658365885176 0.04615438706887535 -0.7408240380461628
P 4.872130595508406 8.073126094370519 4.028285189347244 -0.5865529632730027 -0.6301663290875793 0.823990226452697
P 1.3624755332371334 6.567072576305263 13.249344175223449 -0.18555780070158365 0.10019871840878873 -0.31689592082765417
P 2.197348364416052 3.4336371540866364 1.3719274164235844 -0.556627379358164 -0.39937331069727994 -0.8707241401741261
P 1.4723247675863758 3.911677149814952 9.65702336782632 2.1964589779041783 0.46604921475827477 -0.4707422493585699
P 8.78379842026102 8.13816840418257 10.57084963681408 0.5780361840512432 1.7473443341177133 -0.6263937494190244
Ni 2.123587121317367 2.4857165921763205 3.7929765662938677 -0.41518379536697525 -0.06161802992211323 0.3057190782752283
Ni 0.6838487840733875 4.084004301833118 7.505798626749675 0.12125271086561053 -0.4161073356225092 -0.6639310842428502
Ni 8.856589856876486 3.671771271028623 10.30385072190905 -3.088723563253242 -0.3334682233640386 -0.1777493604007584
Ni 9.013446730474838 3.2578224287538173 1.8222626519437843 -0.6241082958189574 1.0817116938027243 -0.30773790847747
Ni 3.4102032724296207 7.820305004245166 11.317814172820354 -0.308959439589397 3.091087178389412 0.022581999065574013
Ni 4.200847332936344 7.8649534027226 0.19494509072055038 0.4107825809754861 -0.6677473726651468 -0.47247517288927665
Ni 3.2644152478272397 3.7599304103781757 12.541127138246713 -0.2327851091196636 0.2613109844734984 0.8510382317094246
Ni 4.700931776033217 0.019261848766705836 2.2474174216309404 -0.8497660498652203 -0.9128346961909312 -0.6969551045773545
Ni 2.2898529828154137 1.8698428500204884 8.95171295278054 0.3592265632750652 1.2989136037721503 -1.0195326491708183
Ni 3.9036575962037166 2.5125634466492808 10.738148715219248 0.38624140130101225 0.1512006633779525 -1.7043719443212455
Ni 7.396975149257684 2.8032536149318723 13.610898289736108 -1.127509468863129 -1.0755718994535735 0.3519729670364454
Ni 4.956373208675728 3.320356296796773 4.086221801657248 -0.42644754120625267 1.013415223419171 -0.11776989452333267
Ni 7.0431356588177865 8.857513038048012 11.42492556886697 -1.6990302203933578 -0.6904450713729786 0.6269455081574364
Ni 0.6068657319367008 2.7518165710719042 13.386917752411717 0.3488596182184444 -0.23177389424632985 0.04958321024476622
Ni 1.4515485286958738 2.0842260331859452 11.237481558291625 0.06105007323378518 2.1627124775813527 -0.02426247209179047
Ni 2.9709741861547476 4.640524022203473 2.9889491763187204 0.5552870632801856 0.010237875677924304 0.23625635549771568
Ni 7.3805723646040065 4.607336125340233 3.9363372771694993 -1.158080913892083 0.7716407663167032 -2.0938940732560587
Ni 1.4660769758194834 0.6156835108841239 5.466856961292659 0.971908362424636 0.26884611650827894 0.11614290044287094
Ni 5.376308740971945 7.025781717805567 10.368556396970677 0.3060684911948471 -0.16736621739422142 -0.7311299506868505
Ni 6.619488751710789 0.8311194935876135 7.8181499823387055 0.19957108426154016 0.33205797328007325 0.7412572689288395
Ni 9.291949042280821 8.228201881062192 1.5205978177948412 -1.9025111812322655 0.4246454550005073 1.3231920167035405
Ni 7.027749305959021 7.914059180997906 8.82743225195601 -0.31543604845267614 -1.1666558000452878 0.0573476846815335
Ni 6.723575097534749 6.973915721078021 5.4667068277890065 -0.01702070292771262 -0.19655903690809373 -1.250350607261782
Ni 3.1315237844392043 5.711050503742298 10.196043676211973 -1.7776396426671448 -0.636034357832582 0.79547180729803
P 8.16611561601149 6.502673695794578 2.873076884204947 0.3348558477401846 -0.9369130772963735 -0.49515795919877303
P 4.701267478277408 8.250358229178813 8.135538736603072 1.1427980195910834 -0.675466081465643 -0.06826561714561791
P 7.4287456366454485 0.8254694383166283 5.417887328927497 -1.0899173695419682 1.252804211008597 0.5555035501663659
P 2.4318177318589504 5.476618436548753 5.31491159802807 1.0162915165257012 -0.34223285693054606 0.7576434235963467
P 6.64536579970053 3.037377955068241 2.2445919277423307 0.9845790159137688 0.9163781905678154 -0.010562863117510842
P 5.789940531127237 4.400841944913271 6.038087900008461 -0.13524773959312192 -0.025873268222336085 -0.7982833086048962
P 8.243597558983295 2.0475319128833753 8.979896088686628 -1.1367952650404294 0.1282849351220436 1.2399144995301226
P 6.302539207882572 8.739177996970602 0.8385972610769733 -0.5716022555004414 -0.34411953243029764 -1.625088121688253
