# total energy = -340872.03105696477 ev
CRYSTAL
PRIMVEC
9.20023846581795 0.00000000000000 0.00000000000000
0.00000000000000 9.20023846581795 0.00000000000000
0.00000000000000 0.00000000000000 13.46547896907785
PRIMCOORD
 96 1
Ni 6.095130359959538 8.50949373003068 12.817049043617308 -0.6464897488379511 0.8449357183561125 1.0346173114180828
Ni 1.6982720120165542 2.1391474376400077 8.352030729256725 0.9333467001013539 1.6782816749920968 0.2737075583656383
Ni 1.501074101482057 4.199504033355156 3.3848983622268864 1.2254371318495543 0.3606064743417274 1.1764128794320512
Ni 5.577616948204128 8.363826354949376 5.673100702738569 1.5215528827070635 -1.4113430599191759 -0.09457802978790163
Ni 8.645399652136474 4.90954163452201 4.145818802061375 -0.03166930607882288 1.4860122665982924 0.389008165412872
Ni 2.188644720399903 0.278416695381352 7.296552695737173 -0.17647563589465734 -0.45282371720693626 -1.829273564793353
Ni 1.5859187002946507 4.055244294753826 1.0398753491640667 -1.3279318453813709 0.33088940689326884 -0.7361456587338869
Ni 5.2123582822467664 0.4357058116489581 1.57218918448376 0.45317235879560663 -1.1525178179820088 0.2957557964149294
Ni 4.503019899200685 4.738012389210581 4.238110993884031 1.2237818556343183 0.2199650745368599 1.274288349024302
Ni 7.788001832016974 4.194471502933285 6.1212314363888725 -0.46367762920230465 -0.44648029148741175 1.2062510458394065
Ni 2.6594025204479173 7.5826525102324265 10.469490444842846 -0.23239970075578686 0.3229285001749793 0.23637591179471548
Ni 9.227195129810731 5.8704513372310245 11.487157338457823 1.086876268722799 -2.5709812909960497 -0.8321154266629928
Ni 7.486289212903961 2.300455218054365 1.8995345878899588 -1.904705617780423 -2.1004483294348084 -0.7688022684266437
Ni 7.064927492993099 7.665887067319559 1.5131024932070176 -0.4189509757188914 1.1257325794683644 2.014080603371841
Ni 1.958040744121692 8.766419588460575 3.7115574278461168 0.38324349501495286 1.303278308498749 -2.1903186693343955
Ni 1.2974544245225774 6.506371817596073 4.203706702270532 -0.6936098422542054 0.6755121042122302 0.5343639399742732
Ni 3.604147404233301 1.4361388186345958 13.2879770480763 -0.689175974852568 -0.962273153327717 -0.5086791336136594
Ni 4.091944045855912 6.1712991339315035 6.722747625140421 -0.4820000816605764 -0.4909187243064449 -0.1507304086097533
Ni 1.974095160184149 8.284023486797084 12.719787803017956 -1.6183675151349675 0.6134107068957952 1.6983254810168493
Ni 9.044064383837549 9.064525714108555 2.166057215027446 -0.43921563950519843 -0.25904661391935385 -3.0603306139328454
Ni 6.688435335911233 4.328730582359894 3.0661027403948085 -0.21911686760395166 0.2580801362410265 -0.632895040872652
Ni 6.811111315152951 4.4109623134580245 12.087354213018337 -1.0873534654695338 0.6861698410363926 -0.7757645586770897
Ni 3.33041271018959 7.925664999663128 5.167714125259333 -0.011235977925135488 -0.9172176557499752 1.0941337216161608
Ni 3.1423230357019887 6.024481729046297 3.0025999346710863 0.06152547020830694 1.06303211511535 -1.0196671178661534
P 1.5852930840813284 5.775882086396646 9.797333905392646 -0.24995005093472433 0.37703633776297646 -0.33600461663264714
P 5.871058552967484 5.267688516172047 5.928365918131631 0.5764169032802654 -0.7757905268190188 -1.7068080645665638
P 8.481911415213922 7.016414635745343 3.5169006231663187 -0.999259500744079 0.6719742662623008 -1.1472496276045339
P 1.4657727866215144 0.4093747292588428 10.308645436421578 -0.7438903356763124 0.5041272525769188 0.5833221150405308
P 1.8272041533914931 0.27492244482517947 1.2117974446565078 1.1826151515880214 -0.47226254265783824 0.8519118925636295
P 3.9301210520894063 8.350872419238236 12.160673673148155 2.6765600427698293 0.4969651876108409 -0.9226151726164628
P 2.522944584036251 4.8049717245129075 5.526744229798767 1.6598682054819154 -0.12778536977780575 -1.254243771668601
P 7.001298644002869 0.5672407004760857 9.717847525442387 0.1366821580468033 0.470968506436763 -0.36327476520250984
Ni 1.6383692595909634 2.886528806599132 12.2629978049562 -1.9564048459269274 0.9545367039154077 2.0893591615001825
Ni 6.73116124318576 1.9676549932823038 12.483751085946118 0.570098160151089 0.8342358154401052 0.9596531992063667
Ni 8.535732810036484 2.467724752972145 4.356944033533034 -2.43786988101964 -0.3147523921220902 0.9540399667846473
Ni 6.040223337002093 6.547938494828267 4.014503798932753 0.765955543006468 0.8177702136849142 -0.3449577120608769
Ni 3.3510764457060818 0.36424387965839855 9.231474160705085 0.12996257993478263 0.07510886531969646 0.2387400411515179
Ni 4.141551731476981 6.142483987164962 9.335751503132073 0.4299254724525241 -0.6300621994095471 -2.4315660502887995
Ni 3.6802885774899727 7.097155928217618 0.4718277877775641 -0.47468477894608574 0.46786724180362005 0.0035504363554196916
Ni 7.840976804903865 4.157081733948859 9.49510147280827 -1.6717873255170046 0.07605785949652707 0.006949434734639645
Ni 0.09545983391452062 8.065812231685708 11.44386653654362 -0.1561621211482859 0.5013790004078204 -1.5090838037057752
Ni 5.128525709661606 5.841930598094282 1.6051793994503831 1.451754630967003 -0.9933217951034053 0.7491235590507936
Ni 6.670292465724893 0.40046889845743416 3.5508467429059447 1.2713768318044618 -0.387220734495146 -0.3390189779789387
Ni 7.128271134591961 2.096081121543526 7.77425391572922 3.0438547277650096 0.20040000792073875 0.5534242990398339
Ni 3.126011012963458 4.5146858015314555 10.812860823548522 -1.502644990058967 0.8655503092826706 0.7339445373175101
Ni 8.758111773157195 6.097320016706165 8.182392132942908 0.17617558815573528 0.26335501148672064 0.947661059841497
Ni 8.181072818751874 4.328380973299508 0.5100188975293488 0.7295690339576338 0.0897276436741358 0.08597923237529707
Ni 3.6133108417107835 2.3986309623537783 6.851101071518038 0.4405657257751896 0.311802822575463 -0.09694858690260723
Ni 1.3773216943438877 7.184171783299976 1.715851827610905 0.16538826773224422 0.10368770539865368 -0.5131369122746968
Ni 5.00693535855477 2.836194302141997 1.1776774404105328 1.1049760636473034 1.1436904494983657 0.024749953251170277
Ni 4.807354586266591 6.206370442831265 11.464751077782461 0.38075286738261527 0.760187273064123 1.7856342308368474
Ni 5.4863689834434135 0.8743860603827255 7.162180453377862 -2.44966610232362 -1.5220645322361592 -0.03833386258319205
Ni 5.354216758617552 8.329932676568808 9.489540848700448 0.6102814172381941 -0.8704009525067526 -0.19727148959408605
Ni 5.761400911105924 3.7835428534034117 7.609369082612809 -1.9132316529735631 2.2343094730930484 0.9832122174732294
Ni 5.188980476393069 1.8564241106490074 9.198538227145205 0.049703023652082144 0.9667769547353413 -0.7164124419710178
Ni 3.2999323202670006 1.6220940378061577 2.370866482816081 -0.6607092348714428 -1.4650361785672574 -2.83587973571049
P 4.014349234927109 8.336639650385157 7.325678810562689 1.6848148481249243 -0.5171974554973157 0.5241731154842005
P 6.75440104546299 6.122850678352766 0.12552069296464732 -0.7574053394436118 -1.1088879971071999 -0.4990015013145793
P 3.423178714291453 4.001376898739107 2.120085463634389 0.4774775111998745 0.21872477437185558 0.05177687546197534
P 0.08930855449941542 3.796239182438478 7.820588156516466 -0.5248950812518896 -0.6803889726885574 0.045472016289870076
P 0.5872309785394129 8.160915096349099 6.901973789923398 -2.2607602110854095 -1.596744023327921 -0.9162905159500154
P 7.199260174327156 0.901952734794152 5.669841978286236 0.8173069008952505 -1.4004935187991816 0.31780454868485264
P 8.755912916172136 3.588783006053185 11.790710005257075 -0.1769569464064501 -1.2309302937536413 0.40524853853113435
P 2.50083641108606 1.1761584810455403 5.350319537618093 -0.5079628242729252 -0.43016047128146556 -1.4438960541545327
Ni 7.248177842065886 8.504037988640976 7.716285053421869 1.005341959492733 1.7506476874593333 0.1622702909285528
Ni 4.518697105487462 0.7173287901235857 4.2395793519376515 -1.1042301866202144 0.3587030866714274 0.12349368438098732
Ni 3.0267496405291623 2.192821628647671 10.81900106267751 1.4080921570820457 -1.4080232515173234 -2.180982222424818
Ni 3.6224190777576784 4.612125526756372 13.302802312284346 -0.5105454973984368 0.7646702485361411 0.382573979751754
Ni -0.09156813305811994 1.0573742026602229 6.811687250078745 -0.2861714951606039 -0.11066439382680296 -0.28691480108453166
Ni 0.7117157246567062 5.4177168042697454 6.284244941008376 -2.0141145419335698 1.5717518721589576 -1.2245822400484263
Ni 0.10423042121099053 8.306876879060201 9.001322836157689 0.347017422803383 0.9916552060342598 0.6815197438588908
Ni 8.982984000892763 1.0175831714452512 11.907024939647457 0.04435590040755587 1.459970334008576 0.04068410798292348
Ni 5.12627165124596 0.9594376645600213 11.213458525343993 -0.8083972571104465 -1.5799387788451242 0.8138109719268501
Ni 5.880525598313197 2.5508397069596715 5.588012297607548 -0.5591030945921661 1.5363554949375346 -1.5941929747712933
Ni 2.242668520467952 7.193859634368037 7.9760068643110085 -0.7600144949316846 -0.7769894322231263 0.48515199702599665
Ni 0.40191517593882 1.7581931649190072 0.7631974988462129 0.04642178179764908 1.1943098143171302 -0.6763528549459706
Ni 1.1534522925973207 2.980748448373126 5.903656837776937 0.468570952738864 0.08441677298418364 -0.21823883587437254
Ni 3.29497339175258 2.8608509411376324 4.129700904353744 -0.3706797994173293 0.38207852817257426 2.575528801157416
Ni 6.420524392794477 6.449505143852781 7.565242899049053 -0.6835280325381712 -0.37675505907713175 0.08037988391064867
Ni 0.7856322802607119 3.5205080366551953 10.014007800662165 1.792687795249519 2.3007701758194443 1.0955244313161003
Ni 7.102078055778313 6.9723454936598595 11.548358244526057 0.5426493199115171 -0.22810364448359427 -0.7776969998131122
Ni 8.907597247187452 9.079476101559266 4.22671925865851 -0.37777167326710426 0.31709980930834425 4.50345816535247
Ni 2.1821401518290395 4.749632290349196 7.7956104291995825 1.000567163811909 -0.8456774816181436 1.4322152753824946
Ni 1.1614933009861959 1.8365331951607373 3.288296778723053 0.44936018413836804 -0.828702801437018 -0.5227798346810997
Ni 5.273631870198607 3.958862596948498 10.2432979828924 1.2852240221001996 0.49244236003982295 0.17243103351163852
Ni 8.001750971489212 7.274426122310119 5.705794670027708 0.47724662613599095 -0.7318912543329074 0.265475143153517
Ni 8.744697825524495 6.948627278984207 0.047801678817023734 1.107758511488447 0.06745983341487091 0.0772649924307508
Ni 8.885084263746286 1.7055402003772078 9.352461896194676 -1.3846989749690863 -2.237096548919883 0.5330902154681723
P 1.7128727904068801 5.881362820010437 13.085591123090444 -0.31730215512713744 0.49315815515992495 0.8696193371457217
P 3.6598548479342607 3.537795284667434 8.79442511424517 0.5487649458909517 -0.6768341654577634 0.304156875994431
P 7.7069569316764674 0.605810860051236 0.455838693407969 -0.456886060201768 -1.1460373524639875 -0.045149857063760956
P 8.927681367682776 3.5813216126854757 2.4352451512384534 1.5647533293539375 1.0222443916750266 -0.2957833072187551
P 4.3095664857076885 7.873987260395037 3.1048164236894853 0.9668885406125413 0.4538745270689538 -0.3671039091406129
P 5.801467949473832 2.4636490473471198 3.331965710436778 -1.4501682603164896 -1.266447769933961 -0.06713638863718116
P 4.7100528646181425 3.140924599460445 12.306949183989763 1.0002385768278967 -1.097319061322678 -1.2396715302813812
P 6.703937737667818 6.165751390157485 9.606057268312474 -0.5067284376451918 -1.0186512750071295 0.9861813274038822
