# total energy = -340868.2925969103 ev
CRYSTAL
PRIMVEC
9.29653954390364 0.00000000000000 0.00000000000000

0.00000000000000 9.29653954390364 0.00000000000000

0.00000000000000 0.00000000000000 13.60642533111898

PRIMCOORD
 96 1
Ni 0.8822230232278482 8.38198329885546 4.265913392420159 0.974204357547664 0.8255388018867396 -0.9184379013103214
Ni 1.3965261917984295 2.3780083692656055 9.41047621821244 0.4156558499073874 0.7269264541284641 -1.7195342538839806
Ni 1.2347664012426267 2.631357668818866 0.25628142817057664 0.21719908175594854 -0.23859657359511813 0.0645683707996888
Ni 0.44265194824007914 1.9527009751197772 11.491905448725731 0.26570397133487145 1.3683524152902626 0.7831328261167029
Ni 5.017481917231323 0.5083078301263607 2.7268089604023515 0.06776168092600589 0.3392349506444867 0.6170485607586985
Ni 5.636938246202863 6.281290708456498 8.579844341978237 0.39110875669564255 0.3916823698109254 0.04884581785810943
Ni 4.693172130246313 3.0778239872925686 1.6449892300921425 1.999609920559492 0.16812340727522013 1.9294378304197801
Ni 2.6867743418937593 2.7877626525148904 4.116896368813485 0.11912872254407227 -0.9884305284493752 -3.041546648457123
Ni 1.247939597979269 4.445995733045297 5.402090919934899 -0.5632770234641976 -0.45673127979145856 -0.1427892993858057
Ni 8.842041158351725 3.9736199584636047 10.032099570585046 -0.0716000808354896 -1.60456017693823 -0.6556215359358902
Ni 0.4894925634536085 1.4978584743879841 2.6498373304089133 1.8297376489139647 1.0006183287648187 0.24747382148008995
Ni 2.456750060415471 9.251683883124764 8.615411973167172 -2.1058782422011277 -1.0537756295140883 1.2653388531404983
Ni 7.235496838481678 2.1673487799555775 12.213372707683986 1.562595145360354 -0.28553591845913406 1.5343878296882025
Ni 3.966777705253888 7.355357124667654 7.453545317535025 -0.8809275630696893 0.05876641940593105 -1.026868263600283
Ni 0.1374688620073396 5.983829328087876 10.875180443114266 0.8410309839850677 1.3109877613278649 0.38340804561727515
Ni 0.4314607737647299 5.044200172292092 7.858323163089797 0.10786831913890454 -0.1446240386016993 -0.5231356753586216
Ni 0.31946907876992925 0.8623842075355447 7.459967367150885 1.1304968336262273 0.602623129361988 1.1335626170357447
Ni 4.987723693692868 3.8775309242575835 7.591950341088857 0.583594137754995 0.5766346757180263 0.6327623719495297
Ni 4.680510243192463 0.1484834022286336 8.439222093709027 1.773302962965004 1.3010342496595786 -0.3279789181146932
Ni 7.232001339559322 0.6774611586953261 8.081549814748868 0.08257689156196746 0.4101904559174419 0.5949219040629883
Ni 3.845504345035472 8.001950052985881 10.18815128577296 0.5230446583067121 0.15918522424532586 -0.9044762969239069
Ni 6.025924059791134 8.778173930701245 0.7517851341858738 -0.13825413051961352 1.0925555784957635 0.11835507760284135
Ni 5.9988990189206906 8.813854050020392 4.7891077715474974 0.6271838494204875 0.5011995374071626 -0.07471522942570359
Ni 1.0783335279275412 0.21350711941619138 12.726022021844228 -0.2766046774077753 1.183108289174356 1.6697810937202535
P 3.4164783350147974 2.968989397175512 13.710786807474925 -1.6937275772335219 0.7985620161875795 -2.572467645733589
P 7.996223384538619 5.683160641527199 4.508448027355399 -0.5501895941526203 -0.4709371389781954 0.24219740357249903
P 1.081717468373651 3.792858040787339 2.9714799401576903 1.8240336565506523 0.05729806239052068 0.13216190157894658
P 7.984044917548498 7.6983622529634514 12.385792840299002 -1.3652814896744228 0.5231552157426475 -0.5094098411320969
P 1.1867404772189902 3.043975286291783 7.039773999486939 0.08978189395083892 -1.1958113385633213 0.24800758249637286
P 5.982685853706361 7.3359831359597045 2.6742472546653717 -0.28912492136197304 0.14628162880978032 -0.14573886893243287
P 3.3690938722295716 6.45997020124285 13.702214468229435 0.8111974455634029 -0.7382660475109994 0.41953281636429035
P 2.5476144393173334 0.3156547085363059 3.474808543627632 0.37648766434835806 0.3995160069227313 -0.03508707351112022
Ni 1.838967108587611 6.044628697641608 3.745373175373493 -0.18465842881576586 0.19639808585019725 -1.4499877688745675
Ni 7.828309284709946 0.6360422854273221 2.0660536835247716 -2.2252859294381997 -0.7661841140775063 0.6762114442721
Ni 8.669376526742935 8.12425532910957 0.7973614200019555 -0.8272007629701947 0.44414135894158996 -0.1598935631662601
Ni 1.7014991762342402 6.802910253760839 8.899717820224556 1.4192240053291494 1.208663511935641 2.1196984359136724
Ni 5.235634517529166 2.7999597125843856 11.497076184099706 -2.14358912648834 -0.9568144442059908 0.16445804260849098
Ni 4.031146946047473 0.7604030264758295 5.217084202237496 -0.3811112791632985 1.399592861361783 -0.9445636518630959
Ni 8.797110982043897 3.977589580910003 12.481636445857285 -0.5954507799832648 -0.6021068518472018 -0.02718941593059834
Ni 4.360244450971347 8.281143732869323 12.580813790547365 -0.24114505104858472 -0.44919409087414897 0.14692209060725664
Ni 8.214487543312707 2.1475192608029614 5.874724208665925 0.7587083745257515 0.3537128325456876 1.0250538360993637
Ni 1.6433772101103967 4.949254612467585 12.91173620621182 0.9340604383389268 -0.3951816412134355 0.13888559345602533
Ni 6.015874500389362 6.519886399526306 5.438189383539967 0.3466800940686223 -0.41059566177566054 0.5224358210781197
Ni 7.937543626033549 6.147243902707985 2.283634546631857 -0.4698878717780746 0.07306586674773868 -0.6620546931557437
Ni 3.6876676942276316 7.811454658257206 4.396127234855674 0.40794536863700714 1.782374586248969 -0.6566918861819336
Ni 6.690477902784869 4.688170591894645 11.165079088447419 0.7129653639626818 1.1959602054363596 0.5662273643417732
Ni 4.499311388150902 4.873766710208211 12.352933291120925 0.5615207028947232 1.053168849168025 1.413466791130398
Ni 6.937431183033394 7.843360382463386 10.19232822105438 -0.5010506705341242 -0.7476983965684929 -0.059634938053813424
Ni 2.3804905453620653 8.904142043461654 6.336335519943906 -1.0315666975172169 -1.230019609013914 -0.44257530000605066
Ni 8.645605274762982 3.290296401841584 3.9067862049989657 -1.4555773471472029 0.2738253148904252 -0.14554423642312353
Ni 0.321406477640724 6.707499866951976 5.6433333358536295 -0.8342676971193052 -1.0059423120808935 0.691417462588577
Ni 5.615835101113112 1.9446501717507356 6.693013998811514 -1.869813176778612 -3.0772019357668876 -1.7250875796020422
Ni 3.569173999375663 3.909501724241572 5.71663097336272 1.6622462187957887 1.1313290997195355 1.0827838438209805
Ni 4.63788560872704 4.5066556545037235 9.78685685363895 -1.1271464290967554 0.2963453503698122 1.0364127127556086
Ni 6.511826299617578 6.57523799682339 0.26404310915534907 1.7897695931614597 1.8164481308939102 -1.517941254096405
Ni 6.422774745954702 3.9886989458361053 5.377014433782875 -0.3415597421229215 -0.13423755316105268 0.5088637388206397
P 3.0616666013163627 6.266072272988691 5.50461594856631 -0.17006484727230708 -2.525922708094514 2.28346330910988
P 5.314682994488706 0.9532764760564688 12.747819618448608 0.7119652048329417 -0.372588586404268 -0.7153474910416132
P 0.7337926112754312 6.323153026667577 1.7137157590370782 0.5015849457710394 1.3796241315493403 -0.326630888727231
P 1.7386016661255164 4.772285682983663 9.661188089456466 -0.04244557075872045 -1.5489099345637776 0.5997704904045412
P 7.841380219510031 5.858102925359331 9.4236875307618 -0.398947536013771 0.24544702085804826 -0.6754025752175594
P 4.181732295899363 2.2921269356360363 9.353996020997341 0.6589788824438974 0.3623931339285049 -0.8999496126981469
P 6.720040898989895 4.556187617956672 13.534379388988103 0.17065517255813836 -1.6999954125201047 -0.24915198051346124
P 8.583653134288049 1.6286607877856936 9.791701280469907 -1.396029569490557 0.3532567188448755 -1.511232988838294
Ni 7.964577963443679 8.000722909747182 3.5407591258219955 -0.25837195644983246 0.8478156110070689 0.9846798031576912
Ni 2.841896403112962 3.4010646722135607 11.317308066515992 -0.8160038658131108 0.09133843980468141 0.14578720567186504
Ni 7.365425277148798 5.116397099502228 7.369485076030163 0.1950256309827028 0.6594702202580192 -0.058873891518072805
Ni 6.535095538454427 3.0198693588830934 9.455717828599786 0.8035579267402742 -0.48009977931406994 -1.108178372634685
Ni 3.0969469694289646 5.124503682109393 7.822402263392753 -0.9383492955222678 0.2773770367974255 -0.31337865170301515
Ni 4.981457825943752 5.530874024912567 1.3941416293686846 -0.8892859623367136 -1.1956267333563408 0.2518560097081856
Ni 1.361032003273024 8.702853366156239 1.737717565201272 1.0891565801165437 -0.7703662704796539 0.013636102726195871
Ni 1.1533937893613084 1.389702531668087 5.053575732566547 -0.49954143297844933 -0.1355992093952697 0.9571165488274419
Ni 4.421703874842866 5.478943554220343 3.7692383224042856 -0.2700241959767801 -0.24411570364113444 0.28013737315138204
Ni 6.594807212864767 4.465574245626361 3.127342005935987 -0.725812395128679 0.04448111313151049 -0.5782567847024815
Ni 8.360591961035409 9.063810112587856 5.901460127152099 -0.26049517344042233 -0.8895513001829582 -1.0545132790110614
Ni 2.754666971228761 5.997123379840451 11.082814938410106 1.0634818010582587 -0.40961632858152686 -0.8304375247399376
Ni 3.9158233712288104 7.571473782774018 2.0258331342224367 -0.4797156565017738 0.7650458867080049 -0.6897544730638573
Ni 7.719214391481651 7.624677879403377 7.753294576320646 1.1596400308490868 -1.2146115019889598 0.519783213946621
Ni 6.3616407009722336 0.9162836853335006 10.451667281128051 -0.32450175819937016 -1.2481474289628762 0.1628935263348485
Ni 8.726001749977154 9.057228162489377 10.94770274921345 0.998113560065094 0.1259007511605832 -0.28469002551907097
Ni 3.1278858535076837 1.2808400519319694 1.5321245900207217 -0.9942993285253262 -0.6890255653176327 -0.23812709015786732
Ni 8.967228361778417 6.113172084754709 13.209185501078847 0.1363168042875846 -0.2164956279310207 1.6444876092607874
Ni 2.602622064645993 4.664427229533754 1.562330906772096 -0.4015070692108311 0.13388839735175007 0.47853114927536944
Ni 1.877426893273206 7.482487304888952 12.583903030685393 -0.8837660609597489 -1.2368096353525537 1.1776279827860752
Ni 9.032369215366032 4.333628457847137 1.3465070896658755 1.791657554212792 -0.0327882501746145 -0.4027417129488806
Ni 3.0793672128806295 1.718846519290397 7.296064724197202 -0.049513790459411504 1.9266083313907851 -0.08408870022080357
Ni 7.321266713635001 3.0128690644986955 1.4607178686839906 -1.2171975175485812 -1.4236807555489221 -1.1741762767920487
Ni 3.0894539584411493 1.1087889919425302 10.731673478580145 0.45090670268988153 -0.2835201735806859 1.2034711691014242
P 5.25353965296655 6.557872060687859 10.740490316819404 -0.6041313384763982 -1.372903782106371 0.8971537951205646
P 0.6993061676521091 7.759421925628423 7.454566077592671 -0.9345880287076226 2.090110952064542 -1.1803047582872899
P 5.910526112654974 8.315327109298845 6.931167174592216 -0.5303723023163769 0.42093920979351374 -0.20742734708116534
P 4.956533803042597 3.119584043567089 3.8735176080746556 -0.4630214836755446 0.10638273573231356 0.49127816452839257
P 1.887746052325904 8.625357411324446 10.798032178866771 -1.0509407311684547 -0.2547945235112193 -0.7058997153651521
P 8.706739319745452 1.3450605480905604 0.33735933974381355 0.7151626287243167 0.39468593252393963 -1.35000810845512
P 7.585139696114077 1.1373200722422865 4.144109199785609 -0.031147372137081842 -1.181878273421997 -0.47503059232127864
P 7.102463355559061 3.058924122108664 7.362423424483829 1.1416222541154273 0.988126366945395 1.2531392257505127
