# total energy = -340873.733306988 ev
CRYSTAL
PRIMVEC
9.19340190755688 0.00000000000000 0.00000000000000
0.00000000000000 9.19340190755688 0.00000000000000
0.00000000000000 0.00000000000000 13.45547297501589
PRIMCOORD
 96 1
Ni 7.585521949662412 8.603810734375216 6.074150565211425 -0.2538254747297306 -1.4390662368660572 -3.228743527424027
Ni 3.713040389467528 0.5897696084759797 7.835781061296605 1.4795536554571425 2.2298100425607985 0.07915835279872174
Ni 4.930862770989796 7.201256133248756 2.14982097580873 0.16212348093804338 0.789071560198641 0.12362789596600644
Ni 1.6825856257678287 -0.0013661395358406925 3.9437855860359363 -1.3602575540972701 -0.3846648008425117 -0.781669611307615
Ni 4.2021845357928305 3.172330451375534 6.073410496351162 -0.7948220895291731 0.7256355032311826 1.8371807354555714
Ni 1.818326206162767 8.690826284218636 8.125261983844371 -1.2589854001186447 -1.2934692928281273 0.47003185355510657
Ni 1.267650620312689 2.463923667568398 13.427822271386129 -0.8060043313982377 -0.5321088253915094 0.28320752743627353
Ni 6.216936968892154 8.27951347914789 10.850896983906967 -0.42267393309643336 -1.491577419390896 -0.023384183251895212
Ni 6.198338716664659 7.022223822878893 4.631858403319705 -0.9276288237809702 -0.04751604330309236 -0.7331294976153826
Ni 3.197253764172735 1.1573573766284304 5.481154072636657 1.0434379950335062 -0.2783579126534561 0.5765372309082135
Ni 8.599784024303222 4.107115565805423 3.8675198811404212 -0.061903165262699844 -0.10480202150875498 -1.1465829405548122
Ni 6.6159490020991365 4.019557605244544 11.319578456081029 -0.2215622438206507 0.8104723944719202 -0.22914057038854088
Ni 3.748343053112402 7.102142066385375 4.358537642791459 0.2132023018917296 -1.60783164860065 -1.0182075026014916
Ni 1.0957983568976815 8.2869417479565 10.277949462393849 1.0851315181175505 -0.8734849907487151 -0.19844057020152275
Ni 6.436043318540142 6.118512407178086 6.92597625875626 0.060402669457773395 -0.06038312907374763 -0.2873079227578923
Ni 0.8087849434442597 7.54527323574646 0.2508502473822042 -0.0835755080298109 -0.11178025259880105 -2.5854630295519927
Ni 6.217571313629522 8.615523128511562 8.219625819899079 0.7909417806381605 0.5827284473205899 -0.3328308468903558
Ni 4.963177578987643 2.3276958368679446 11.152528825866044 -0.2210562507185096 -1.3115809148271735 -0.8755938095616017
Ni 0.1912291967911271 2.7654028990544264 8.389998864933759 -0.23143759395283364 0.9108189513124829 0.06911305274757774
Ni 5.2841192424883054 6.161960424986855 11.581193257854324 0.6472510524840078 0.03461630452228877 -0.6859821505056186
Ni 2.9667200158501164 5.3752258562176545 10.48949699692496 0.18811193458200506 0.8429837368360643 0.4024334376798424
Ni 4.341758764817953 3.980071943693832 12.768625010415429 -0.6487374072215472 0.898284566290898 -0.14400080319540362
Ni 4.09845538113004 6.385111871510819 13.47161963847055 -2.028343026828126 0.23697934970666928 0.9314124591931184
Ni 1.8185928148205017 0.41666152634902215 12.205836198102203 -0.4199889300651025 -0.42342418099889656 0.5990472390852715
P 2.818320120913774 2.4874587766649805 11.762182843508038 -0.8501627710830069 0.25637832305857133 -0.8402046314290305
P 4.971028744287831 4.635423604611757 9.971823885541644 -0.7748140218383625 -0.9511726725391813 0.36881780650792606
P 2.163786672773034 2.191164623901793 7.161796213223619 0.4839587480488439 -0.4567176529447038 1.7023693120689196
P 8.496440992524048 4.155629148111153 10.356919866155074 0.5660782403584186 -0.10902403000990257 -0.9498202722763447
P 0.43300187904756354 1.1078417135056984 9.685841971791596 -0.7656873769467458 -1.3079813704013732 -0.02462036965184147
P 6.315113308752468 3.3669639649238734 13.336311147969182 1.0005913321816253 -1.0992674432983003 0.4375549639733239
P 7.160667263459143 5.664339962025987 2.5167655035314205 0.12434831907179877 0.2012620988107179 1.1134771591397792
P 8.099616988990888 7.450415714004843 7.692709662154161 0.6132127319523761 -1.057387515235063 1.3207348134122998
Ni 8.423298286284826 1.613543176816526 5.191551797182611 -0.7959921985778743 0.44862484863424024 -0.1531107359164718
Ni 6.50707154232147 0.22304020635987518 3.8207355777491716 0.5779893899737077 -0.13853566631577433 -0.6583235082480856
Ni 8.29783592931566 2.4156307269104498 12.053533704020746 0.20095613753452488 -1.278108751211657 -0.6234763186619133
Ni 1.5128754250166905 2.847555139244685 5.226684382890653 -1.9393915991983826 -0.1866024399160141 0.49704257781599553
Ni 8.265328059876007 6.147499203655244 5.1709925923104665 0.9587327442746263 0.8786467374553127 -0.07814199571906542
Ni 2.866465967139869 2.755032741608745 1.7505028023154514 -0.9198535507109256 1.3891320710397754 -0.43375230239778206
Ni 6.642334065812883 4.206863977406174 8.663306754699217 1.7192406339029616 -0.46204857823931395 -0.2727490511071109
Ni 4.932398069122268 2.538849893793847 4.051133263722326 -0.18470162334887547 -0.04212058331913391 -0.6933288206786768
Ni 0.02698723154414773 8.848971185265281 1.9457155001892146 1.336320069445066 2.0879658806970816 0.7802030540644176
Ni 2.147643058877097 0.4160041981066762 1.355437496583141 0.639315342576699 -0.4100436459269325 0.060844642091198435
Ni 5.961866030655949 7.889005342782446 13.449364250931094 -0.4069315826605121 0.2961887701872899 -0.8074449204995062
Ni 4.220718434206389 8.979977163634931 12.087347955883299 0.2300232301038103 -0.5745903915944879 -0.6557544619693286
Ni 5.2783825596460145 2.6427537230944624 1.7587106716128844 1.0281820973157003 0.7574850436416116 -0.6136930140229043
Ni 0.34418350307373774 1.8252120642539156 3.009612752178638 0.26272277721936044 1.1415690322799887 -0.44936301235184545
Ni 8.479791741518614 4.462210717702104 13.210260413272602 1.2820363684008373 2.50535234014233 -1.269533093727504
Ni 1.101011015826495 3.8630491297522696 11.543974689234554 0.8948076634858911 0.49748275067720776 -0.671412994442192
Ni 4.254246771267028 4.943209509863511 7.814723574036557 1.0360465876654414 1.384622098984564 0.26384172131515204
Ni 8.134892072429789 6.474894635353485 9.792422000411749 -0.5729474566744261 0.3128636597398096 0.0763648492139846
Ni 7.079489523879914 1.3540594056247122 9.758985597371018 0.42808841924378527 0.5195183903210085 0.3248995078584211
Ni 4.683229294964191 2.694025325997447 8.677125357231668 1.5399738084164123 -0.8495955857256271 -0.2190201941250873
Ni 8.32792593403172 0.765925303362905 7.592129247673238 0.6248063503272464 1.068888573896127 1.691354706125971
Ni 2.18024286233666 4.431927651544235 7.197871122635725 -1.4437057925205976 -0.5036001764288552 -1.0077549398096
Ni 4.297878657115615 7.688147896086299 7.351774188003792 -0.4211199583457522 -1.9457131705410362 -1.1966975978230165
Ni 2.553991426872781 3.247146356777092 9.185338457966397 -0.6369766671411933 0.07793476480426578 0.637771909348979
P 2.1613320344414766 7.1762316930296555 1.7961848168079977 0.8715792890855698 -0.036263096097092384 0.8712332186000608
P 4.605554241543478 8.761587899342228 5.316714449246874 1.4212376933250686 -1.1976617615084986 1.0279013328504878
P 2.7269468985266903 7.4614753765998385 11.625771144767768 -0.8040328094941637 -1.032185047827506 1.5761962810835564
P 7.019741604341363 2.5027382107737774 3.468982227476166 0.4557630023409183 -0.5967095920910304 -0.469928495208023
P 2.5918038892611572 6.542098403906618 8.368954248436497 -0.5460295492376596 -0.7196304346876832 -0.34824306768036795
P 1.2327800465613847 4.983660478623262 5.269486104539466 -1.4627085588753455 1.392236678107028 -0.15667377067738178
P 8.651901420189366 8.352444737141324 3.9371792073653102 -0.6517016320561937 -0.13994514506879124 1.4765488071925472
P 7.748824349225926 6.631899554553266 12.250871916434793 -0.48713328912208365 0.4287247672762036 -0.2037398709272491
Ni 8.317362715144231 8.746712974921028 11.216778754359515 0.764346032427503 0.9476734011366711 1.6002515222605471
Ni 2.2326084800765567 7.654693106241586 5.935478208921604 1.418176280790925 0.519357439263112 -0.09735636386398717
Ni 0.8383821818136105 6.388449076433499 6.976111557173175 -1.7776249873791257 -0.4897175049094922 1.078188511140814
Ni 0.9352815581373957 5.067384790553956 9.220282578933627 -0.34891566826736037 0.5087472678474334 -0.10242143709172037
Ni 6.529889566062765 5.629423421264729 0.43659466054558865 -0.5639303407774804 -0.44555006636365846 -0.1296648461887057
Ni 5.067485917975856 5.151908928457855 3.298986111923112 0.35139575437673676 -0.8615645851620454 0.08893214435603394
Ni 1.175652246590227 0.3518241394683353 6.1535778810515955 -2.4489140546489434 1.9120998533619649 0.3693970760501638
Ni 6.478902958621497 0.7826113279763024 12.574421748080262 0.6021050520749889 1.5428094780929946 -0.7917768749449461
Ni 5.939158327738543 1.1947193623192551 5.860974879187736 -0.7736220584127902 -0.06604109869047335 1.1495965305701557
Ni 0.6442607407561611 6.272170928053196 11.568127594944922 0.2600377741880296 -0.0518663498519881 0.27026767944615393
Ni 2.679554911263845 4.359171068188629 3.810966668793691 0.9229260189886622 0.594207394494467 -0.8311754313472267
Ni 2.6927014761107646 1.069394906379953 10.042128588586293 0.4526743361132656 -0.42595748894371155 0.33712278939749035
Ni 3.935980387745703 9.493014961734458 3.420959572836748 0.8599836138281706 -0.34328778055762166 -1.6810327553746727
Ni 3.8795880599338135 1.6745689792318055 13.427512453739036 0.7142267471736087 -0.721985308073105 0.14751293011372013
Ni 0.2812509890855555 5.837635589553558 1.8320565520361054 -1.9697308736118724 1.261907458861446 0.9658048206300592
Ni 1.9614490883563598 4.975312869615568 0.4030093243926061 0.8984018085950527 0.4374456920889692 -0.836962727452965
Ni 8.595720540623265 4.054088023122186 6.368193253827053 0.9535758826640351 -0.2103442636176442 0.9436905052295231
Ni 6.603464362195559 0.6807723367628321 1.3947806604029944 0.27276319217449796 0.007691969327619012 0.55875882387887
Ni 3.6391346308630643 7.869717585405637 9.74881309806814 0.6594758766849739 0.26559315678861994 -0.028343069919067317
Ni 1.2534284274328398 6.809396566790656 3.923050787185768 -0.21003804523113503 -0.7260324815592851 -0.4445565921021376
Ni 8.089439892987015 2.7586365551891587 1.061574998646534 -0.6647389248561262 -2.237326919763134 2.0823053399771947
Ni 5.689079406783371 6.485255599397176 9.147097583045246 0.11934520943025251 0.13084112588499403 0.5564594863217319
Ni 6.446532990211705 3.9497888775359633 5.527292999208148 0.16348462295162813 0.5683670363925954 -1.6801128146635647
Ni 7.500979424954532 7.683670709316754 1.693694013393376 -1.6231852482385851 -2.454650185801773 1.0599863863104906
P 3.95385236121592 4.583076373675843 1.4053567500532713 0.5246896501093028 1.013403139234313 0.7679975131371611
P 4.677143262846247 5.24307989600114 5.5918122943799515 -0.2042602622070934 0.9535722831196093 -0.5243358663143098
P 0.7365863995894972 3.848367266772878 1.7423087231210044 -0.46230234612133286 -2.2992354843424727 0.22448198857060692
P 9.070670074274691 0.4053260616943009 13.345555113670985 -0.49997312119922926 1.2524689391563655 -0.5373675026872874
P 4.413283432306787 9.207467895898578 1.3352929141407848 1.0587306595265185 -0.43304113526337035 -1.2127495090795566
P 2.603755311849266 2.0672375650651005 3.612821275684846 -0.01594443914439835 -0.9723199960407577 0.558824901230115
P 5.092988415098481 0.43284099451272356 9.796647287966744 -1.340586300920588 1.9905658080793525 -0.5954404955706197
P 6.894564242833915 2.585101899209826 7.072183527317783 1.3459519361078753 0.18084445438631436 2.2020750385393755
