# total energy = -340857.56528557034 ev
CRYSTAL
PRIMVEC
9.36802501508944 0.00000000000000 0.00000000000000
0.00000000000000 9.36802501508944 0.00000000000000
0.00000000000000 0.00000000000000 13.71105154406544
PRIMCOORD
 96 1
Ni 6.604373438148597 5.794123572492284 6.9707672076815035 -0.2168645812346652 0.43189390903280456 1.944237614436774
Ni 5.509616647841369 5.097592164469734 12.663513758909305 0.5751241526107709 -1.377296511857428 2.57266150691195
Ni 3.731649781314476 8.368709828041736 9.13553702339374 -0.1294128780788997 -0.6041341666898756 -2.122878119193234
Ni 1.026379574534195 8.757810753803202 12.445220036215343 0.7562378014980718 0.709590533953178 -0.1643819379549169
Ni 1.3282079777389302 9.096755272762529 1.6584205604299944 -1.429438741078622 0.062346166337389396 -0.7168950380343911
Ni 3.7441373588765336 3.1067088217009595 7.571517115878292 0.07882282383617392 -0.35386427052188735 -1.1709513420968478
Ni 8.329907467755135 7.146744623844657 9.562320830433055 -0.2373740140419267 0.6818560441523869 0.169054917950554
Ni 7.826769571503856 8.757829489853558 12.884631941194383 0.6173200692525304 0.6918329528594408 -0.2980219667412867
Ni 6.226870127557293 5.178644318308382 9.51792388551025 3.1488742646012096 -1.9705932216121673 -1.2008699840331511
Ni 4.176621609236563 5.189539331590206 8.34354543880903 1.2497566824315252 1.0281592144975649 1.8692243941546778
Ni 0.9510981242050955 6.836915927138048 0.1703669058841466 -0.38657410205008264 -0.41358148387686194 0.03590494142672526
Ni 0.9472291298066486 5.696780422869377 9.42477105354939 0.12025383728745097 -0.8143964121166748 0.023091591712140876
Ni 8.601467781610278 1.719369869039521 11.755924490840155 1.7208527155850877 1.7024109639401326 -0.9401614090303422
Ni 8.4893606243071 3.5057211181005776 2.185431932044473 -0.46521489178243747 -2.8966266758815595 0.5661227204431089
Ni 4.650924723990459 2.2266952725452924 5.4035940228911965 -0.7828168375381809 -0.3436564767509501 0.2316347975653043
Ni 4.87853026371119 6.852560529185037 1.0067760450470529 0.2458080037418928 0.13922909283837312 -0.8650039498608975
Ni 4.611710170596033 5.080917079653184 3.2400589128974002 -1.516697097276659 1.941953446388288 0.10974728132917227
Ni 4.409969748391309 8.93692739520345 5.063450396709108 0.5330799310555271 2.100228243004202 -0.5041822741845704
Ni 5.179871529606678 7.560652080277036 3.1510186439896115 -1.8838562851352394 -0.8475669853313725 0.056675084094541105
Ni 1.8347464671297633 8.289578119364545 5.425833714663383 -1.6485563800135221 -1.9874766276310676 0.43908425613365676
Ni 8.864484456503234 1.2365886914996829 2.2472683926383406 0.36700260767605825 -1.63390392020767 -1.5223653513060298
Ni 1.641587155987939 2.442778141297284 1.9392224311230746 -0.46376196138599485 -1.329899510630703 0.17998210638601905
Ni 0.6046807315614086 6.917911872825629 3.5652436764755193 -0.46061158868247126 1.597955527137519 -0.4537698831702895
Ni 4.933024066170669 6.796483530470503 5.391665716432256 -0.5332974463829718 -3.1420263884414403 -0.3955583078265639
P 0.08582422586423735 1.0056762388911749 -0.21987410854146264 -0.04376557512172463 0.4271692498636256 2.661002040430572
P 0.7582348426588907 4.337751642295363 0.8902490534649721 0.23173584191954283 -0.030589699861398936 -0.9192531981227653
P 6.1378738883678405 -0.011348425700431935 3.5192298104070185 3.1597975963819325 0.9350138033911317 1.3042900375927151
P 1.6080402578261042 1.8741952211536355 10.894185148398895 -0.002982222556775509 0.4144307192510347 1.4121876673076583
P 5.953764089547806 3.7762884212868704 0.72464391477872 -0.2879314152745041 0.09357375689310336 0.7730134782945138
P 2.6735688095784806 6.7379427411342 10.02196954340126 0.9373373093179858 -1.15985831750748 0.9757009966978487
P 3.1270468043620436 8.217603581923223 0.8814740242808918 0.26295109118008264 -1.6478909785153812 -0.4753959460804974
P 0.006295312919506571 2.123740675840862 4.090267153147261 0.1988177510352834 1.2782848717782047 1.4339407427140336
Ni 9.096464863982016 5.927374362621839 7.353045400705951 -0.5940127619851576 -0.22253206393308775 0.26849850336087305
Ni 1.3863553100177657 7.689855883529766 7.660913369742839 0.06370113770338706 0.3130462080642609 0.3074592008947866
Ni 5.473830791662031 3.0538075835217127 3.258006175533101 1.8504319440385228 -0.5512650866049861 -0.4618305486912368
Ni 5.598697199257423 0.397661427168974 0.3638868859953177 -1.43624882202192 -1.5383810100079955 -0.9376972637605657
Ni 7.86812003463883 -0.06929340863542591 6.637301109846177 -0.2964985881182249 -0.24647263390908516 -0.8925870016854885
Ni 5.02752870416469 8.754916034023251 10.920016541024264 0.3143597846693618 0.6386591970499388 -0.8264913956079959
Ni 2.7980417601164027 5.752107979569684 6.793401450186995 1.1257366932334225 0.08445276842844164 -0.14084451695460906
Ni 3.9853359031303066 1.3742424534628221 9.183360791926598 0.9015064156623055 0.28255189613014564 1.1599282515134668
Ni 3.8494433299006006 3.266742795813952 1.3830202930544557 0.054553409765847986 0.8594763351744489 0.9869585718895388
Ni 1.3705420835175766 8.440534477080213 9.907057599359838 -0.9849204584135876 0.5815758217733855 0.7075508778153299
Ni 4.421998292719652 0.9295882015942635 3.0446212980323257 -1.1146243853703448 -0.07009778525835025 -1.1109099126332351
Ni 7.431588797401974 6.672891174299298 0.0031766973378045808 -0.11854302524393134 -0.6426729461950222 0.7155940598347805
Ni 3.2636513475052653 0.9524283837803483 0.9367772241157357 0.461032992490606 -0.34231024713570074 -0.41408567720679007
Ni 2.5992335297923423 5.582162634818539 1.4312965372034039 0.723073141820645 0.14990148495055475 -0.13439284779199434
Ni 1.694169881311139 1.456231409819253 8.767806436667955 -0.5681176393859506 0.5230958232596217 2.2127011507946537
Ni 4.891139625600559 2.34945387447567 13.217440403662227 -0.24539945544956449 1.107700918777634 -1.1602331843483955
Ni 8.820126857286175 3.8235782123845925 10.173682837551299 0.18045827469148923 -0.5999625518106894 -0.01421023006211101
Ni 6.054376679957778 0.16276756385988508 8.620522344822 -1.4115050394183368 -0.06494195208902365 0.2399345756802513
Ni 6.864963794520493 8.499637347927187 1.6291745226273049 1.5197569671489053 -0.2592255626993794 0.6342230156554561
Ni 7.824942806594178 3.9478356983434244 13.316557857253814 0.37148712580997306 -0.19764404244215641 0.0951300456366297
Ni 7.148749381232714 1.9779835720988934 0.9291975549443477 -0.30293097400712987 -0.3124211728857523 -0.7624447016397321
Ni 2.7702843015144714 8.55412178236149 3.371671235423352 0.5713184057114354 -1.771621975718155 -1.8869287534129762
Ni 7.915241201283351 5.23963953024128 5.2272147184479145 0.6999118732128333 1.4381529810231684 -2.406759532768081
Ni 7.534393505703559 0.2963490452782185 10.07725307038323 2.898879733581795 -0.8322948896636506 -0.0911630905690817
P 6.797176764333663 4.961727695315562 3.192165820978225 0.41822618173772486 0.08238097350107748 1.0925982588082408
P 8.878171141288055 7.417218246779171 5.645155109719352 0.09348402539277449 0.2809035618934453 -0.16007302616691788
P 5.845694551096277 7.167129446631631 9.229607921822026 0.6733899156629047 2.175421183397273 -1.279764798757841
P 2.680969549468972 6.318292685267806 3.6000149755280977 0.5791733829794798 -0.4335095902593566 0.26775468321631307
P 9.00163234510677 9.184692925106887 8.427045457626646 1.1771929521311855 -0.27783392182918604 1.1170165397516054
P 3.306519430719048 2.6223163438305335 3.6885606127064965 -1.3627173284916725 1.6490636586672438 -0.7753236144849293
P 3.549235595051631 8.107941479191462 6.761948305652408 0.45619083390695625 -3.5869923001668544 1.2023643091904905
P 5.85594317064083 1.5507173117629187 7.124385958152713 0.3361686530143372 1.0107926981946591 -0.751801362993273
Ni 2.281985357144887 0.9131698006675861 4.759969473863001 -0.5056030657914969 3.5602924222781653 -0.9297409850279665
Ni 1.6738131625996988 3.4279946132000627 5.5958774236788935 0.5992251594240325 -0.880718789492993 -0.2494533138039639
Ni 2.2054673274923133 2.594380892750223 13.31204621632817 -1.21083326589345 -0.5254820641036112 -0.31630251021802946
Ni 0.824169814268062 1.200456218388765 6.83151807103058 -2.288256873843782 -0.12910897368523572 -2.6563339455309416
Ni 3.428725319163934 0.8514082842751413 12.124463538138787 -0.5870838960758082 -0.3274793527704554 -0.964384543243765
Ni 6.262421783107185 2.8056485965608062 9.302208243345229 -0.7542295128187914 -1.0611876057074432 -0.7082725864727027
Ni 6.514505972617605 1.007043970567139 11.826577199928886 -2.8690235694523105 1.5283225973307293 1.309430958363706
Ni 7.383324731685756 7.5308336561359805 3.880776563712913 0.32975657884040627 -2.6452429778241027 0.14988862943474832
Ni 6.404956286187977 3.7490368360445423 6.078616445105431 4.45067675988538 -3.533600514809276 1.5596926270015783
Ni 8.716057465585584 3.2953902168077778 6.1807916221150645 1.3289296905182661 -0.2203962485370075 -0.07929590681785054
Ni 5.839998791788152 7.9530224468255675 7.084678646633933 -0.8770984191315861 0.04122558230869029 0.25165160700686334
Ni 0.7974765633263328 4.135008841396611 12.067836636346316 0.14777004042984876 0.3528108895567085 0.5101410628711666
Ni 3.5308648976778927 6.73698720256606 12.7558571934948 -0.9636926593830629 0.6194859665555977 0.002420179405718412
Ni 4.887073902673379 6.137639687738394 10.907813751427613 -2.769073476719218 2.067097521888505 -0.6836553021446549
Ni 8.181592893139618 1.914505833493869 8.018922756741581 -0.6832148721731266 -0.20209307935244547 0.8856961881029263
Ni 1.4747613636210148 4.3033709898927 3.1763984978014075 0.017328206865802415 1.1838173994262386 1.441287155776776
Ni 7.029288324164935 1.8951889655771688 4.986901452573447 0.7030177658316666 -1.877974886653798 -0.8793080251883955
Ni 8.466399594596222 0.07272585306058543 4.207579185239244 1.2297409014312306 0.499384595685611 0.9277468374160732
Ni 3.3018073140545963 4.148217756897361 12.06504028083073 0.7000149744496009 1.0226115452064581 0.1807830050207596
Ni 8.629496912942367 5.5588643562012585 2.1806055254728514 0.23805149972492554 3.911955828493992 -0.7471877754806616
Ni 2.822398625578779 3.6772215550312426 9.807158852468419 -0.8897217643225516 -0.11155939483724658 -0.20252605312480607
Ni 2.9604458445993878 0.6344869772697329 7.020977012227157 1.6706478125959228 1.4248860887109331 0.28110127972654814
Ni 7.612550939762254 5.610828791862721 11.641930613266162 0.739902554673158 0.29821762769186055 -1.3520865882507036
Ni 1.1245564783979283 5.8017678810373985 5.504616932803956 -1.0446021905449365 -0.5106624825922753 -1.798094053866755
P -0.18989549116986593 7.112766796524642 11.827304158682686 -0.47706356359090746 -0.2289423383348057 -0.2756885933514091
P 6.921171945587516 3.511744758289927 11.173945294692201 0.501538151693504 0.15747929729781265 1.9404573214587357
P 1.5960585536236502 3.580543535195963 7.8193716420209185 0.1665573483396809 0.15788476026634743 -0.17117222140387295
P 4.5150508868111086 2.592825800570702 10.985034382968525 -0.25650250734126145 -0.33782161523672793 -0.11457555595575106
P 4.762348015455654 4.529449541509445 5.902552843110642 -6.249277063964592 3.6881986339045514 0.07056778291623331
P 8.042206046518578 4.157726302452867 8.257083250430181 -1.128337106970747 0.6449350027563215 -1.5183266624602818
P 5.708424878165429 7.793222673342021 12.56272411282347 0.5458639701940727 -1.4199099756525801 2.412561998382471
P 8.933292601434449 7.760425217194413 1.7524502395474995 -0.5645386637854407 -0.05598834244016164 -0.08505980588482126
