# total energy = -381170.08677855256 ev
CRYSTAL
PRIMVEC
9.22076192008070 0.00000000000000 0.00000000000000

0.00000000000000 9.22076192008070 0.00000000000000

0.00000000000000 0.00000000000000 13.49551711893219

PRIMCOORD
 96 1
Ni 3.33463326721404 4.261522709004557 10.534358254815894 1.293300885571063 -0.03833746212761785 -2.5828320196870487
Ni 0.05514661153296338 6.353003617216196 7.87394618589455 0.6502070497885383 0.5771730647199995 0.3725299652521907
Ni 8.217358714857173 2.4705003318681444 5.517561082957935 -0.5672054119843263 1.1380628188989432 0.09438211172701164
Ni 5.261809416633921 6.097228898987081 1.5013088000664623 -0.2849630766747996 0.9098774133348201 0.9770834788676722
Ni 6.761778439975962 7.317771949467263 3.511439535179707 -1.1593363835657389 -1.3966497195730592 2.5441271469176834
Ni 8.094160113239985 3.0008970059362503 2.39739813041458 1.0283564181100355 0.5102549627412116 2.1414491973272023
Ni 1.8174398603811728 7.177708574078812 12.023359181711289 0.6529974680494818 -0.974857931971263 1.37578881696365
Ni 2.933972715049523 9.224450344872098 5.814327620912324 -0.1370022603903834 -0.6187146356072118 1.3171015875350864
Ni 5.2759264033172455 0.5793958035489637 11.695121260837984 1.7728764169505469 1.5401632987193992 0.015312461987354274
Ni 5.221800530142116 1.709132789458674 9.560616276947442 -0.6884714925863755 -0.8543806658190963 -0.2735700043465095
Ni 5.4847213389522755 7.969347878265786 9.52466360367706 -1.034345802924251 0.04272942054772641 -1.62611039230518
Ni 2.2248868934071706 4.458247667129153 4.005483354904892 -0.7852591284310864 0.42662031933869105 -1.6186973876705608
Ni 7.521864296461864 7.852917315985997 1.611634295799529 -0.8952637771867034 2.099669799397571 -2.888097041143994
Ni 8.724454523250058 1.4051242649980253 7.586504604591269 -0.023625866949056086 0.9127920158784537 0.5706509473307656
Ni 4.244851571236135 2.543012404551145 5.971618146020212 0.02657466516473488 -2.0325146417073126 -1.0449580312224584
Ni 4.3879393565737255 2.944502825299267 13.398214451160422 -0.6680533339413397 -1.2257392364710051 -1.357917593110184
Ni 1.7458498639021776 6.321109001319642 2.255208447299691 0.6094998018771632 0.16722326405845395 0.3158631086877657
Ni 3.3826457751566115 4.490769294844431 1.4291618695602475 -0.46647601788304827 0.39018958731548287 -0.48634190356903984
Ni 0.9141675564038516 4.318211954026822 1.4635211951501086 -1.3186378216739547 0.7259340083082079 -0.09660817284405297
Ni 3.4924650510536797 1.0612728277622943 3.98847842555062 0.6852588991863487 0.9837644904322734 -1.6278152908114287
Ni 0.6270514680005854 1.6636283287909974 10.114094362554217 0.10194989677194055 0.7444711478804469 -0.4965970056381447
Ni 1.4087849075279275 8.529960989539155 10.222152472901634 -0.9803575216332534 0.539571966537774 -1.1084470529150394
Ni 3.561740636260621 8.625524967322296 10.933555472044652 -0.07489623508825811 1.3482335330532007 0.35605407908435455
Ni 7.814743361140166 5.523439318758472 1.8309233807123468 -0.3761819601824812 -0.7818866124144277 -0.30492280762617807
P 5.6699480068129215 8.24460606668554 7.1918421581338094 -0.915849571757855 1.166262935482243 0.4401718327708806
Ni 4.322084674083645 0.9473318712333212 7.666763039464121 -2.0621396636625966 -1.3241914045023324 -0.3516307532056783
P 7.306338204537593 1.4236211136503778 9.249368532209147 1.2499330601083893 0.4659610259198427 0.9988833483515829
Ni 5.969226280347023 3.605714450429648 1.8029743288927327 -0.3626121919178465 -0.41072653092657013 -0.4175543524816808
P 5.661704645549112 1.806946633179589 4.237471273299274 -0.390057946833625 1.733179612581557 -0.5629144979184563
P 5.2477200922367135 5.644821430253769 10.110490888748963 -0.5185943358448424 -0.04668223454788734 0.24484949648336538
P 8.964747582013919 7.204670082283935 2.8712115982238813 1.3982054940959534 -0.7871825707060442 1.5265909593516032
Ni 0.8855868823844937 4.763925149519052 10.696520108509544 0.4159713242652771 -0.3709867891347869 0.025026603951324642
Ni 6.391693934736272 1.7097229182292377 7.313180009971315 0.3195577839305335 0.6073066508805863 -0.9899688194707724
Ni 4.100675735977818 7.059323210246531 5.865610733150504 1.166798753381055 -0.19357732857195048 0.006106370008053999
Ni 5.310319845726655 8.832162244639953 2.0575134650084808 0.5092242074838521 -1.302080431535906 0.7745769661268919
Ni 0.9246949004249836 4.710260314445925 5.971213354566654 -0.15544349781470645 -0.8571924242362785 1.1886454169425014
Ni 7.614523734202388 5.470253963311427 11.624646976565835 0.18519630359710687 0.006171676028350661 -0.6469481765316084
Ni 1.8950325729482447 2.543408897318868 2.1973942693085395 1.0411191170923426 -1.8857874407196813 1.8775776512153792
Ni 6.69243830943474 6.492937901936087 6.590886368782787 -0.17673197487983758 -0.3179814405823491 -0.15942022307426737
Ni 8.85634830347102 6.849043731923053 5.6814776476678075 0.23611391638258045 0.43626144197288086 -1.815227885333564
Ni 4.748212971002796 6.360675291233523 12.167679782933634 0.028689140404576395 -0.4104583648668479 -1.5672383005593202
Ni 5.549156024088187 9.069449334978756 4.880248750959176 0.6307502266155073 -0.5687727564714462 1.8932212712899075
Ni 7.878523372171234 8.703016251506927 6.706637360900222 -1.206699960451367 -0.2873516315116342 0.5390497754857169
Ni 1.754166991262308 4.657425347956405 8.262495267119453 1.1035701844387125 0.5768858724968838 0.7748726429904397
Ni 1.4000251835898743 8.42393144684055 3.6333850352356527 -0.39728248960652224 1.2910779097778153 -1.2565677918160876
Ni 8.93003141293311 0.34018987262962486 2.164208746726378 1.056887949890825 -0.18706395293346492 1.8111066640763391
Ni 3.0348570725297765 2.12942434400647 11.284493064908167 0.45650296583073635 -0.9623351169139039 0.39164406037382227
Ni 8.753509144438274 3.7246161769361716 7.9309240407686685 -0.39164200349129324 0.7059670782679777 -0.4255594821743445
Ni 4.787290560528555 5.965159924287358 7.9415860079155856 -1.3995954324649444 0.3497111675854622 0.15258340265809206
Ni 4.330014529438094 1.7794042169659416 1.9308035972064383 -0.05924541592487862 -0.4926261939158549 -0.9005833896274039
Ni 7.3638296558573435 6.053043007291132 9.17614185046804 0.7798086468394763 2.5984761539822085 1.0252695516545955
Ni 1.2056607405475324 9.263085337819934 7.8089379693597465 1.5916090160942007 -1.3448057383185743 0.7085109277357539
Ni 3.006623099163125 6.655573702798596 10.132070238151305 0.44121801464720783 -2.3287198669548346 -0.9420897364013066
Ni 4.2675530873787535 3.610297169163556 3.364972340554436 0.4588249290956936 -1.7259923508044983 1.7859275937075498
Ni 3.470473533588146 7.895692431089818 8.172129954974494 -1.0615329048620041 1.7024649571065198 -0.11947556436052972
Ni 8.90403808474219 8.03404074473882 12.140149353710639 0.4910274819701672 -1.8092822092730902 0.58141281383296
P 7.8934333443900035 4.8178020621191004 5.965450378291619 0.6161479033213002 -0.762284521912784 -0.5419234974890861
Ni 3.949289264804178 3.5199244804089664 8.267947503713737 0.15758214142426408 -0.5414810106350287 -0.19032514018323998
P 4.097236391736877 5.626804061227499 3.903510947503911 0.2504673568907751 1.6346981339741915 0.4059543063489073
Ni 6.821584302567766 6.869181876218535 13.246552279201783 -0.05006092121213314 -0.1025960149963717 0.05593692037693593
P 6.8877801532533285 9.10981783119012 13.142177863289369 -0.2840714180984656 0.12786224576232819 0.25391263512689816
P 8.082744809834397 3.822595994373807 0.3665400443114931 -0.06280150870725312 1.2881363106509878 0.5127149942459299
P 0.050536230512935335 6.62662050999282 10.190141675403376 -0.19738873189824072 1.1575296693743031 0.0961911399112924
Ni 1.8607405589212762 6.655472274416155 4.7982365271463046 0.9624438745776263 -0.6390777726445962 1.253323830957493
Ni 5.920171826293923 4.596411565537354 13.292680063383369 0.953529602807132 0.5215598462310694 -1.2011674606689118
Ni 8.999150245185369 4.921673946500332 3.919219437715351 -0.12774037547248324 0.37746699754249186 -0.4888993798835709
Ni 2.0616794052981784 2.4131103089308352 4.989725014508353 -1.7048108316308768 0.11609687769628392 0.4929951472194994
Ni 1.7541024459280274 2.400035268358036 7.499769506461482 0.5779461954405982 -0.34209298891857215 0.20352518381328175
Ni 8.126773948575664 0.7375060544022132 11.507101624155405 -1.0473555849203573 1.8603743999632156 -1.0107057949078075
Ni 5.805576195660106 4.093418996252295 6.247871254664089 1.1308076799984268 0.5212988792601989 0.10023779917684028
Ni 8.416287435109343 8.644731814651733 9.262418676724439 -0.39865443025338443 -0.12177181659387414 -0.18827185719863707
Ni 3.487402852693689 4.654613015534188 6.087287995431696 -0.8196900564154463 0.9189042994237787 0.04494468303149034
Ni 1.2394548334243378 0.5868913610113251 12.48549916477788 -0.3894552802526196 0.08967750716249072 -0.7979927739476708
Ni 4.670196103381882 8.307860494280325 13.313071778634951 -0.8230684859693761 0.18763525205590265 1.2992635309124012
Ni 6.965225333627759 7.794300931697362 11.070926384917408 -0.4742219803770543 0.050400563939739004 0.607963824848611
Ni 8.857657651680707 3.1608587858071426 12.02959333892657 1.402008155671495 -0.4631862913881829 -0.03896532551960386
Ni 2.9039406930850604 4.889318292501775 12.496458040462485 -1.3066500531844594 0.18264036994447255 2.202304638051678
Ni 7.68391918931585 3.778234908199097 10.145457862557265 0.9223248950695534 -1.8977723809956997 -0.8571739122935174
Ni 0.6581890593336509 0.283645393571389 5.515024451320716 0.008144740594321458 0.1677266860574337 1.5216066187631343
Ni 6.469839893025746 4.564784351739961 3.924482648687815 0.31661309947991284 0.4861534417073176 0.3142823944642071
Ni 1.8483939585496412 2.8202253945233915 13.26315149502629 1.4160147543632322 0.4150459842375303 -0.46508299419026355
Ni 6.23362241108359 4.436624980145221 8.51144754351513 -0.7496817455471089 -4.060868210058399 -0.36075148456002387
Ni 9.29701774212734 1.9033958041185755 0.7751027895443378 -0.6264485139163598 0.4350108573952315 -2.261978656873543
Ni 6.827089097505679 1.1888881743966702 1.6297724568085235 -0.23844822094271192 0.04107851520786474 -0.529466759782972
Ni 3.0555761248337827 8.703929106948893 1.857779772230214 -1.684828732081995 0.35299060966768236 -2.061944774042972
Ni 3.8583356680410645 8.086709737511619 3.795263811534673 -0.2277730006170529 -2.928643595107789 -0.012573980010268668
Ni 7.861354313252649 0.024561343846097372 4.371184309870739 -0.3882610028342023 0.0340887141535929 -0.42572171878382165
Ni 0.1256743762249443 5.754862004439799 13.214432676711453 -0.009390440075964474 -0.32722712755033323 -0.004232292913792712
P 0.13051988667699374 1.6028635069470278 3.9539973859018303 1.1024833791324369 0.8406283492300104 -1.7404023555822412
Ni 5.680247598011665 3.044511210385715 11.123288326314276 -0.5642008208300476 2.351048869469338 1.2295159299046179
P 2.7168053274821227 1.299177709157781 9.360301676160653 -0.061054958329791624 -0.7313019574883405 -1.289641948662237
Ni 6.856945924991381 2.2975649398068927 12.91861126686617 -0.5506521356113355 -0.8298837091189966 0.8346176242595561
P 2.9912613096043916 6.645725928939816 0.35195740914514445 0.1595348942752607 0.16731659510320862 0.8464557545450649
P 3.0028241452026214 0.7183941809217889 0.04171749369782571 1.5097700311395224 1.1098948411051592 0.26619582336962544
P 2.3361446081824875 6.502933207987508 7.029477447675277 -1.162575716438643 -0.9339642790806947 0.32822522979754437
Ni 0.7736966233332293 7.927135229646409 0.7193079584399584 0.6389386759635706 0.08730643582715286 0.4387777806368314
