# total energy = -340887.1388918462 ev
CRYSTAL
PRIMVEC
9.12261047296633 0.00000000000000 0.00000000000000
0.00000000000000 9.12261047296633 0.00000000000000
0.00000000000000 0.00000000000000 13.35186255478342
PRIMCOORD
 96 1
Ni 6.514720536258211 1.9751454681518346 11.778759487134314 -0.2547757544581418 0.12542689684795819 -1.0221173791788591
Ni 4.464222307429393 0.26269559706179846 6.1714038710992165 0.2783887658913915 0.1251150220344942 -0.6215657319027619
Ni 2.9082972707727226 1.7951198774497072 4.889999158912275 -0.24805900455959862 -2.287216862615041 1.2162991741040279
Ni 3.0734530067649857 4.192742548956473 4.962526647194384 0.9699882625837876 1.488166593937134 -1.6384383177429136
Ni 4.9649258936905145 4.6424963569632425 2.533129011920789 0.09618599770496984 0.05572737546929112 0.2754476809851966
Ni 7.186837969144089 6.1344992635879985 2.467223626420209 0.3452137939357409 0.4136120800044812 0.6882148964908793
Ni 5.3746953009651754 4.734725946605408 11.513404649184219 -0.1983426111710778 0.5900226669891581 -0.5385561236787499
Ni 5.576879711968076 7.86361705586846 12.290228665753173 0.8426620918305874 0.1815841607658163 0.1838611297254511
Ni 1.9826624989990298 6.282613963630552 0.22443536966721434 -0.13474791713856793 1.5863837631395195 0.2694816932097488
Ni 2.7103913639777524 1.5670546211634406 0.5767560511443899 0.4598916797973112 0.5209345539422447 -0.12879787020272013
Ni 0.25016021831528007 9.172875833936155 4.935609473386453 1.9149553205328889 -0.7479750472686473 -1.3846889476667572
Ni 8.653662471474842 2.5134706990899383 1.3546264311091853 0.9991589706104728 0.8100898143215209 2.0930216979534344
Ni 6.9991585084409955 0.6682704281428422 4.785187665211308 -1.7440422663276738 0.39686057157775523 0.4044584385296712
Ni 0.6055515704030938 7.3909107604690405 2.361450609598739 -0.00260838415712454 -0.3807595522508346 0.7388152351462502
Ni 7.792332979363624 3.8484461154564737 3.788283413109182 0.003540409053090677 -0.16996843090375888 -1.9309085014280358
Ni 7.8870165511634305 3.8621665212746557 12.787999332818451 -0.6941762562806367 0.5519369158610301 -1.2315648420138468
Ni 8.207092454445828 8.966896417068652 7.127424233098441 -2.076634257734346 -0.6954453528010474 0.11286525813286369
Ni 7.134054546229196 0.9577007468075421 0.6083111600041576 -1.0536799844764886 -1.7323447753850876 -1.5180497546498115
Ni 1.9549023960038656 6.678188589353955 9.100589182564686 0.5493159332984152 0.8401346974230435 0.0036905614777097734
Ni -0.03736347480686648 5.056918295466144 1.139233392723209 0.3135537438282987 -0.23674872175310196 0.9377574275745397
Ni 6.405933409009662 1.641942128717599 7.107997634567977 -0.011158073499348525 1.0125284499388434 -0.17792625229825487
Ni 3.4022592480580216 4.3748663400164345 0.42039451143452544 -0.18812993230413405 -1.0015205288641138 0.8725087428783747
Ni 5.983811987454536 5.5418671338230086 4.82497592982301 -0.03595122128362841 0.37395512773449147 -0.6137907159430332
Ni 5.42201428033945 3.181218401665372 9.232025014284511 -0.008102574502476367 -0.21730192588239994 0.08517884796118878
P 0.36903056667475764 5.634826532285292 12.252643511517196 -0.10310329365009341 -1.1293354663282742 0.7019517864609975
P 4.158915910144094 6.049111631634419 12.69951731146758 0.5513062242555666 2.21434511415598 0.3754103721237793
P 2.350312814742743 8.386287887615074 1.5768012179560904 1.0463435987160754 -0.5971034850953393 -1.0887112650490087
P 6.473221782224361 7.81871556821082 6.055937168624556 -1.4000422901943759 0.24345338746678716 0.46280216857588685
P 4.544209354114113 1.2012014596392633 12.820605366379187 0.9537005811673576 -1.0801245518212623 0.15032777385469595
P 3.9197484371818123 6.129472705339449 8.148548103157145 1.09965465143439 1.3067804081147367 1.4196824330228066
P 4.879200725157633 1.0599743303365554 3.8697565330038626 0.38130899699640136 -0.2638666610158165 0.49023583930680736
P 0.21743559082127625 5.565969070107342 3.6109581150414836 -0.3829588738949985 0.5673661059319067 -0.7376225003897298
Ni 1.9173354869883916 0.9551920289883931 2.7702977209769784 -1.604589487514269 1.2284376092387748 0.7747350889713109
Ni 1.8916279712998039 6.488274089139256 4.762703167724557 -0.7616407176811979 -0.03394164705276735 0.019127464858070285
Ni 6.06815964183945 5.698000608276587 9.034337137874552 0.42551063121428007 -0.19606795620428813 0.3460095503641589
Ni 8.783988081527065 2.327415063011602 10.31826607631807 -0.10291328912647436 0.8709964199989064 1.053305117635573
Ni 2.46876990885783 4.981191507768852 7.084364600450569 -1.0854055977145436 1.1506280571584635 0.6946282562163908
Ni 0.302845117039458 9.124434773500953 9.512080026393795 -0.3111255940027803 0.06890067962645553 -0.31044039501029763
Ni 1.4576471564177929 0.9402127029555112 11.754579096401818 0.1618838541234115 0.8263229883509317 -0.2713609125103326
Ni 4.315487269889742 6.8361283406373206 1.7027625712640206 -0.08398894141814567 0.18783605521279909 -0.5889911404008501
Ni 5.561909508545446 8.123511099322037 8.123699937354242 0.8776144395360562 -0.6404535699462002 -0.22270149963141644
Ni 5.180666503527071 3.1553558016025094 5.0630660225145965 1.4962974505743842 -1.0485909999893555 -0.3744510935343035
Ni 0.7344412816017397 7.368432648809466 6.782879664599602 0.4152699273228784 0.600701743969559 -0.41731523988768127
Ni 5.075154393358793 4.7771643294951565 6.958015536206952 0.34779543861998813 -0.8248530886736246 0.14969811069049702
Ni 8.295846329582192 7.111895725928422 8.847558078803274 0.37339951234133756 -0.10238492742683013 -0.25339430072958297
Ni 4.30339981130657 0.29371155965570556 10.800735389208592 0.03928337098065492 0.7544336584097975 -0.887093325560769
Ni 7.984236208613141 7.391476362304631 4.715010161329974 0.7821349809798078 -1.5968208993124435 -1.0982053205823732
Ni 7.426087545598634 5.884120102626683 6.78456187392997 -0.25521284199556044 0.8430765536601867 0.5498622927201885
Ni 2.3051011583365537 5.486328682612178 2.418663059790712 -0.41556329019358107 -1.1575733781280448 1.3662438535876922
Ni 2.5382750763636324 5.211209002648928 11.478302669458685 0.44886473255918824 0.15967090563249275 0.18296227206026555
Ni 1.0100006713791088 3.12844410136073 4.220563773440323 1.067217099730975 0.38188543832516164 -2.360915992071405
Ni 3.7278999435938047 2.6703887180251407 2.9874121959174036 -0.5166685795770392 0.7011837979467215 -1.8868292517206344
Ni 0.7498639664928423 3.2881080259816198 8.234761331338479 0.7608153935664252 -0.3155712884789597 -1.225926927001779
Ni 3.7104392675725277 2.6751963336276554 7.057087083537707 0.5079530540809123 -0.09224552499998306 0.8697643473640183
Ni 3.979446798667305 6.97774774218084 6.031329839732292 0.5268272652775958 0.09789706685880559 0.5962601632584377
Ni 0.8188254264276583 7.567916767177938 11.425775591891858 -0.13242929630772032 -0.3669642982389551 0.12789592721374102
P 0.3768449946161503 5.647662044909082 7.835486574897087 -0.3576839013782937 -2.4418180670341108 0.8421285879246206
P 8.320878772112174 1.629106616093808 8.306060004019717 0.1412831471539244 0.36698820949835503 -0.4732616733463139
P 1.9290397959410028 3.080632501032877 10.757168539430737 0.010536380754949596 -0.5477663294231082 -0.6810428042224722
P 3.963637315101541 6.1839529337611125 3.9644218595831657 0.43267809549699676 -0.8918709494550704 -1.1368726552455841
P 7.132029326753374 4.085351181076396 10.565768878267102 0.6174987609222398 -0.6030471042732841 -1.3042231889105216
P 6.8111506337688486 7.874135425488383 10.10225908626217 -2.093960664827936 0.8681391530557694 0.4296709332395568
P 2.2791108417301706 8.632917655763043 5.761542325461017 0.9393540826376984 -0.5038940535201901 -0.03204622980226739
P 6.845862165775618 4.004661693402315 1.6219845942705002 0.9351850388616734 1.8257372695053202 -0.7534712944965282
Ni 5.374959856662468 3.147948242078332 0.16935761027408097 0.6915593874830799 0.15933666222152557 0.9012673030683058
Ni 1.1886578705435185 0.796719517266343 7.0075248543026 1.1378617586317308 1.3518600740621944 0.6623981925380914
Ni 6.537682146261112 0.972132716225337 9.49824741246952 0.2295717443886885 -0.8877214460630711 0.5539115230888977
Ni 2.1767004190473855 1.561033698397483 9.00920890793693 0.9764676996605441 1.0188975866899805 1.9583748251691047
Ni 6.142618386711789 2.0981821126131495 2.204486065351254 -0.33749739912808974 0.06639385404420178 2.6766330620996093
Ni 4.4276953759825854 6.870374619521265 10.256913785593987 -0.8579236459753483 0.4580533410369917 0.3780820054186715
Ni 8.68854733307639 7.344421938627648 0.19070360600145037 -1.3245184488244477 -0.652132034725393 -0.11807559868920955
Ni 7.635186895172136 3.951485998246609 8.27896950061701 -0.446590848923347 -0.5146037266282105 0.027895955079319697
Ni 3.2555038169429347 8.342836894987414 12.81251361108615 -0.5003816694915576 0.08059817056904182 0.30918981043264815
Ni 0.8692287603279484 4.877513042261114 9.94306497606923 -2.372460759486211 -0.5323793054440766 0.5544630247169935
Ni 8.646893494668264 2.055096024395548 5.833842660747863 -0.4856952711239765 2.10487859729202 1.3592645940563817
Ni 4.013537993176977 2.9294069908945795 11.62889780722861 -1.8397261275852446 -0.7327859982330348 -0.9825223904950562
Ni 1.2062462631083155 3.2993105913704013 12.847455945132282 0.0025083682441505183 0.3140936754921687 -0.316815445298706
Ni 3.1769398974574417 8.701017941290122 8.401486156293991 -0.19432346270935566 -2.0453812132573357 -1.092885965251989
Ni 5.637271391832679 7.927201649321071 3.886299474433843 0.22244053266054598 -0.09256279913008575 -0.17153783227340777
Ni 3.2086683359119874 8.303500199583159 3.7874158528742687 0.15934540397227395 0.4132467262452625 -0.031137344834752827
Ni 3.241163073627655 4.126393804597672 9.376959572393408 0.2848923713378642 0.22024558189175616 -0.5966712826539272
Ni 7.623874858460336 6.226254477497089 11.226338911096695 0.0031755695145042084 -0.8186413034359579 0.3860753080367932
Ni 0.5117756983233068 0.2708338776671176 0.6832105269516431 0.27040034836927623 0.2697305759957613 -0.013095142621061318
Ni 4.547019118071559 0.13189196223239824 1.8251195812616026 -0.13781755720282718 0.8403550409639657 -0.7128167541999595
Ni 6.431038832421653 5.957246946402313 0.1511151265542551 -0.25823903041639396 -0.4562489408384013 0.5250992268428957
Ni 7.855844591934224 8.858620155994183 11.755526935606945 0.2876120842618724 0.6618492620131569 -0.18661529543182054
Ni 0.15104579471634405 4.754376049087033 5.693634527010243 0.7725987593545984 0.6556703868959546 0.8676192759965574
Ni 7.96870040335492 9.029240335527065 2.7077841219678875 0.21994244882904057 -0.23940801375281995 -0.14042362736710653
P 8.731870609160529 1.6882667435744656 3.6518949162838434 -0.6692486398010216 -0.48747447451158626 -1.06546746402972
P 1.684791029068663 3.34772428397485 1.7376784497404227 0.8231147658262791 -0.08187678017114931 0.24580697530062828
P 4.563740862662469 1.106992263572532 8.353445578448827 1.1942383376492465 1.6042403317049663 0.35545681181998784
P 8.656417499770779 1.7539769052156646 12.613117069776091 -0.20289886308319247 -0.6964892206845296 -0.6944323381555009
P 6.525731526831711 8.15510269862281 1.3556408653691467 -0.6308803244354684 -2.278164779715102 -0.35836447238508606
P 1.75438742267698 3.139263517118951 6.258498343430841 -0.920108604144525 -1.8010325676697887 0.45814847185395935
P 7.289786625831709 3.8777570621943847 5.813240157755987 -2.835317435449117 -0.33472934946464933 1.8536103417665044
P 2.2883794137456444 8.59195713573403 10.342726531185283 0.8830206981532921 -0.0015015242461909625 -0.16545871595886344
