# total energy = -340856.2255031531 ev
CRYSTAL
PRIMVEC
9.42073478862027 0.00000000000000 0.00000000000000

0.00000000000000 9.42073478862027 0.00000000000000

0.00000000000000 0.00000000000000 13.78819762561185

PRIMCOORD
 96 1
Ni 7.805220202210529 1.7571272173173704 2.029181084831509 0.09402190017411549 0.8773868969062826 -0.15219850851484756
Ni 7.869912388988776 3.9503873583130527 3.6186295831671766 -1.5365125893406892 -0.9517925655113672 -1.8302958354102803
Ni 7.993380541007957 7.6952990670236066 5.6745467137357855 0.3651750675490163 0.21614287257729226 -0.43339260506551813
Ni 5.6470146158969285 1.8317771209187732 5.730085714454073 -1.3565428242498443 2.1324418516222696 -1.9995713540120725
Ni 9.03185641477038 5.918906446770236 0.8862650594656195 -0.2570308690409057 -0.8452853883860475 -0.8460556908931687
Ni 3.5108347078544138 2.1673908028723288 1.6551487037516428 -0.9029089524367869 -1.0251373969521054 -0.762208674369526
Ni 9.016236836253073 0.9927476264023504 8.995433969376165 -0.43416470734485224 -0.6841139869486283 -0.3600806837452444
Ni 5.6507358061950805 9.026609065413238 6.231479837300527 -0.38763931008980335 -1.4480725541297255 -0.28375003020330486
Ni 7.203828746354553 4.34295880366566 13.427029641796812 1.1757374506315814 0.9397258641548203 -0.4293567444332476
Ni 7.130120916246354 1.1898294011804103 7.247242319141825 1.9627685833614261 -0.27003268061721236 1.4941847751067556
Ni 3.5038445225348482 8.861633155283537 4.533959494045094 1.1715457811477372 -4.3779793322206535 0.45929055587820256
Ni 9.065215237164695 4.665251566425325 5.394245934862148 2.1437909580865013 -0.10125904135250303 1.1737924110900688
Ni 6.109817640167816 4.372662380906348 8.984500264414052 1.2231820172667902 -0.2279840881865945 0.9572327626903321
Ni 2.1574613482539697 8.258903955067211 2.578544647878364 0.9687109385332606 -0.2030281895722052 0.5606365005175571
Ni 5.505477494278116 3.0279655181783034 12.59605675979426 -1.8991908586097808 0.215102604238236 -0.27299304879711694
Ni 3.2312272950717746 1.3863270903926843 3.9957510232312545 0.30068922916080476 1.4244572287036306 -0.34527961417666986
Ni 4.629104206491127 5.70842838691883 8.329367284064821 -0.7028979524243507 1.53952103714971 -2.4712659399815826
Ni 2.3288339374025204 7.7478008227998085 11.56036942357172 1.0311571207836243 -1.4046584488101486 2.5646980290904993
Ni 2.5421193762636713 4.477157172772421 7.010485119197523 1.984276375526215 1.7701441056210483 -2.587196724413648
Ni 3.2512180945975415 5.3131531906407305 11.217719394697431 1.0019501602023648 0.14204573635156179 3.826022361754965
Ni 2.748179111431955 8.09643396042943 7.77650203384373 1.3942508803235794 -0.9876594546113054 -0.11317816138759218
Ni 0.9326065966697664 5.991022172674922 3.110507171432267 0.2933173621767658 -0.45156644776106747 -0.8330423093526363
Ni 7.473883533916115 8.285621159334447 8.258441396982048 2.287919802219337 0.6437733783480526 -1.483182253348665
Ni 6.4463639748796435 8.33209364475415 1.5256644704048685 0.6440531143720005 1.0961998601165701 -0.422989150344007
P 4.321140381563079 9.349278657570185 2.3633110010332694 -1.442365476442619 -1.2758598072764802 0.46857995159992843
P 4.3421957241361655 9.020410221827962 11.702815646111473 -0.05946215992137501 -3.2195369212240936 -2.1660585112354505
P 3.422609525215957 6.01496026013721 2.304876066396876 -0.0019134149726289628 0.8109267084005194 0.3905983927181273
P 1.7830059761756558 1.2273427676797524 -0.032520376985366285 -0.5173229253315864 0.16391116896608546 0.3662315338379887
P 6.607684639855718 0.2960268116956738 9.344799098110006 1.1623548586770884 3.0899741478308913 2.3850727918232666
P 8.195474146769858 7.708987394879847 13.65505853082659 -2.768321429044542 1.0411779953547358 0.5824919058297517
P 0.439216330221565 7.680301257011815 4.252321912884602 -0.03359840478073569 1.3570470175797724 -0.31291045381734495
P 8.550805426936149 3.9640191617596994 1.5602866133535707 0.29895296319598835 -0.2711665371113395 -0.2861460412393072
Ni 2.542543309335613 9.05766922848414 9.9271719742852 -0.5489117558814611 0.6861582710721666 -2.6645002833918174
Ni 5.827855043652169 7.824476184411598 3.83117455226267 -0.07111157123484528 0.3406958514607294 0.6464169866184867
Ni 8.341448434541656 8.932599551526515 3.015437824865691 -0.30844264785397846 -0.6754912782766238 1.2358272168346265
Ni 3.207788506560885 0.7355088066423221 6.33782768772773 0.9878702850705309 0.5059393660849931 0.0940532676326832
Ni 5.326153804846932 5.369630496558249 3.4371909387437523 0.028150494292287 0.09218279008284769 -0.4406528861723573
Ni 3.3681199943690974 3.5727383570927813 3.554997229068783 1.8292751074552496 2.3504873405389133 -0.995032864257241
Ni 6.996450108295785 2.4349114127371743 9.713220489464355 -1.8794632982738666 -1.4393115201076436 -1.2785119001873464
Ni 3.504372083691042 8.615205570931504 0.0215244951727013 -0.06394719227592213 -1.1742302699584357 1.2923189812737679
Ni 1.0760269232014923 2.9123354176225718 5.438230404186302 2.337689417443297 -0.5252223826843212 -1.1087419584476388
Ni 3.5439674326103625 1.1342282236115713 12.610285837835598 -0.5451926551586611 3.2814837952405354 0.15499638297495885
Ni 6.9825451035361095 3.5983344939031054 6.844999547307997 0.35899259288738816 0.6234968874872037 -0.30884451127808743
Ni 2.256539217534125 6.452280196416957 0.45317503317035335 1.4305453438792395 -0.9847487087224138 -0.5610229373226983
Ni 5.949759353672633 0.9612070058499151 3.307913019491989 0.2980080827842158 0.2381098637666867 0.48530009256808676
Ni 1.0844490602307266 2.2806939818998493 10.219302370012986 0.4825572397156269 1.8833142965888405 -0.30815391296896605
Ni 8.002330239193386 8.54523777259132 11.137664815465524 -0.4578101146779341 0.3321183942043635 0.13917664233388288
Ni 9.393546691015791 3.454253773852644 13.07998107178276 -0.3597145586550773 -1.3909596111668174 -0.10359848811895707
Ni 5.727533637360986 6.298166393663885 0.9261920182545474 -0.4437891178084937 -1.1848813219143788 0.08348012010252719
Ni 1.3148802366681716 7.008734746647152 6.139002134913751 0.996651887917903 -0.9858643103840956 -1.475800359062297
Ni 5.248225485489182 0.9339132526048388 0.702678487477692 -0.058771561612253616 -0.075003964310716 0.5433049512176449
Ni 0.5952171061815233 8.563391528805342 7.548197117280444 -1.792578009144532 0.9891098139045867 1.9499171813200549
Ni 8.470663234869374 1.8884145793301352 11.308817901490158 -0.44199628757412907 0.25639914899417776 1.5516319614806309
Ni 3.7878137355910173 7.021405635130732 9.865938139300498 0.001754006576629237 0.9832014188399519 0.29788852648721603
Ni 5.032434131136111 4.888588929458951 5.929035620969154 0.9721654727407644 0.3405215306663942 0.024430108017906314
Ni 8.308419337869958 2.071101471132054 5.03233332927234 0.32807764847608656 1.4600790916722983 0.31845169535054835
P 4.7651301981747025 3.2813550256451047 10.579256404810426 -0.5035446406005715 0.35739336672106836 -0.896616948780488
P 1.4409767737333883 5.930531633676361 8.44644346743262 0.29636797607763155 0.6887008349883623 -1.0862046965770713
P 7.387090302987326 5.621889515833206 4.863456292807283 -2.922388872447328 1.767604627028646 0.07864953148310327
P 0.45731450409948715 7.939409150582359 10.350868585779738 0.6393749921700408 0.16327353538208655 -0.6853139207940004
P 6.962667352829527 6.401502435133318 8.294414473320003 -1.343979642872853 -3.7508350777888504 0.18379813769799958
P 2.0382702098939305 4.757499402879759 4.531325456558099 -2.2778079105963163 0.9575783189552088 2.3810197047998156
P 1.2302631955086816 5.066160362192778 12.663728725031511 1.5273473779016535 -0.06569631375654493 -0.03722340312783267
P 5.53023518567949 3.1710193781211733 3.651845210390527 0.5858939895327652 -0.6881177087913826 0.284442171174323
Ni 0.3776716109841086 7.044288600280632 12.512885801446838 -0.05536022193785949 0.14108568643113767 -1.0755682999091476
Ni 0.7928499939531068 5.644263761296776 10.503711531390481 -0.4793292196966326 -0.10555355496279885 0.17554283966774284
Ni 4.741069641158299 1.9155651374042446 8.182426428888995 1.0361106081341576 -0.5541094980323167 0.6444853168134127
Ni 2.8806629067810885 3.3884876232921455 12.869890204137059 -0.8194378311953242 0.031264357330920346 -0.29784558906442254
Ni 2.0999854444336568 1.6726326457119969 8.010653458505832 -0.04696222768215138 -0.0008440931678501592 1.1720833988187622
Ni 5.978464333010527 7.857392232264109 12.61531839443629 0.6002494869234889 -2.666438895175427 0.8382469934820274
Ni 7.85554576821743 5.808844000559334 11.66528438021576 0.20223243314378722 -0.45906378457937713 -0.30628986317703377
Ni 0.7129301312307267 7.936036527476692 0.8536702586742901 -0.9617627893502017 2.5033846748929984 0.6743391669500516
Ni 5.065020453266002 8.668112418309782 8.612452832184365 -2.036532504617454 -0.8191768642244538 -0.8219994212749135
Ni 0.4908485521635398 0.764541627555851 1.8313484774793658 1.7850019965694872 0.5763575107972396 0.27699059999228426
Ni 0.8319959738161696 0.4434556609409783 11.491690381770237 1.891521772100297 -1.1857644958502804 -1.000399013665161
Ni 2.731956605879 4.442046093680747 9.394340858970562 0.1437938293909201 -1.9810545261548076 -1.6660470805991177
Ni 6.064692319843394 3.8374515879478817 1.4558681294404474 -0.24167546963075798 -1.2565168839734941 2.1335155443024223
Ni 7.5874787557265275 6.414295793171014 2.734392807932424 0.1676546951689177 -0.1692300100758376 0.5385417255010467
Ni 9.153619413766862 0.5320218741839753 13.318627129080934 -2.1213673389756624 0.23141933912038853 1.6820061750315358
Ni 6.133849934979424 0.5660929041391537 12.40739241167797 1.6201462043019452 2.6990919053237583 -1.384220749781087
Ni 8.97337249231234 6.077777720663984 7.288509848511581 -1.167574198094499 -0.02698655589117288 1.2389397943216793
Ni 0.6661495877787471 0.3086863952973353 5.555416810152805 0.7745165452026015 -1.7064661078461127 -2.9191114872476374
Ni 6.2553868363375384 6.88358970381007 10.298322552549358 -0.4135339184683781 0.09507708091150721 -0.5441104778380759
Ni 3.3776820403251073 1.6031453048533462 10.1292929001784 0.8509790963367151 2.041565181945355 1.0403177042369696
Ni 3.7912899867809364 4.35145630657435 1.0328281431706703 1.2477157407420965 1.4200495865542382 -0.6853272905304391
Ni 1.4889188938024869 4.178218411909257 1.0077557992225668 -1.0599503908662327 -0.546426270455446 1.1855333536760806
Ni 3.4839573510933333 6.386787247169488 4.914113468683793 -1.2579189065273433 -0.719837922712799 -2.739385462736482
Ni 0.8038496440597447 3.7182510288529103 7.854709206955467 -3.341680005114458 -0.7957548857560877 1.4174774549516878
P 1.6552984934370623 2.4448220258856694 3.0309076136975763 -1.7214713230056933 -0.7770521671402617 -0.6990238141809251
P 4.649754457462136 6.090043517545486 12.907518503602573 -0.8082748725999693 -0.29449261343178956 -0.35584736239018716
P 8.27324231363376 3.9719231583676726 10.316591241729549 1.031884742978268 0.9231823579738423 0.9519136644702638
P 9.633643541493498 1.662835081382686 6.933808815512241 -1.8549357454461475 0.9515403402912451 2.736976081964041
P 4.091962162871594 3.1122716750850365 6.628648601299964 -0.15738776602527088 -0.9930307462255478 0.007510449444432227
P 4.3887341547003915 7.255529739661532 6.443969224059921 0.7783456891407047 0.9874208562379381 2.231006891082377
P 7.37852685493411 0.3116812469322275 4.999283506983793 -1.341276127898761 -2.183423999097091 -0.43499234545247023
P 6.918842093925726 2.1334949985868863 13.900157791553205 1.4710232493886277 -0.4325467121254551 -0.647823122937394
