# total energy = -340858.7678499584 ev
CRYSTAL
PRIMVEC
9.38806140710627 0.00000000000000 0.00000000000000
0.00000000000000 9.38806140710627 0.00000000000000
0.00000000000000 0.00000000000000 13.74037682909304
PRIMCOORD
 96 1
Ni 0.9273142154702435 5.300649683596373 7.468526743335292 0.25727255273806654 -1.0300469184385808 -0.7946876208338378
Ni 2.2698548768536755 2.1206691929162207 6.278788985952312 -0.865982768834399 0.056952763235959984 -0.7129224265398884
Ni 3.580193548779309 5.981068210733427 0.8541399095812436 3.146401891801317 -1.2543522722220075 0.14468445952598952
Ni 4.846924675434698 5.525465590288855 4.7486326112312645 -0.2674890882597522 0.46326033915922793 -0.19451680966708434
Ni 6.5226936379188505 8.577214550108666 1.92598896336421 1.645225001647444 -0.3917790432897898 -0.7995920001139907
Ni 2.718360122868902 6.914917455754288 5.701211977580149 -0.070375207289453 0.20049770984086762 -0.24469960116906242
Ni 1.7332614505864108 5.06731880520096 9.67553324304975 1.8543145669223806 -0.030178580465909318 0.3632385126479357
Ni 0.7456129808237475 3.0046678318262083 12.086928166624931 1.6284632088080728 -1.2096307609449168 -0.45742830585848315
Ni 0.2634806376280056 1.0060622134210184 5.5489958274181 0.2884356086044323 -0.6595594375377157 -0.22148073985043792
Ni 4.61287091631037 5.527831381765303 10.858414899181735 0.5300529713037452 1.127880736159619 -1.7344193985259293
Ni 0.5105180856885546 7.551690885375437 7.114478538435685 -0.3923863378564855 1.6091519100739708 0.007262595099684266
Ni 4.445725870887021 2.9334875501816438 0.17642514413155994 -1.7336133576848658 0.2003007633387131 0.6722637724782615
Ni 1.9473655792049742 4.635073681555609 4.2108900862468674 -2.2967553982330964 1.03042487060329 1.1257780879943193
Ni 1.478967031052471 0.7771005388079035 8.183507418569743 0.23404057879331952 -0.6510280030279368 0.13450057701445223
Ni 5.938474576095944 2.223890928168396 2.328540587561713 1.157260989093949 0.24811145506408883 0.4387219876982315
Ni 5.363371321906495 4.9260097047902525 12.965955827015954 -0.35240208415406404 -1.8250456427549344 0.7244772212570232
Ni 7.614994583493255 7.81947594916198 8.643576878635322 -2.5045257304759767 -0.667104082654193 -0.6687573019868999
Ni 8.101737403649647 3.9157885801626207 12.40782149383317 -1.971725792554714 0.3268969979044241 0.45916534315424795
Ni 3.0135864901699616 4.101024419931667 11.683057519798693 0.6163170819093128 -1.3588200503197954 -0.4922490130820942
Ni 7.258529891585562 0.5850358231659663 9.81492999535033 1.6965938430377232 1.1277614369729352 -0.48817587145398506
Ni 3.328077159493528 4.458972425542848 6.118822991092614 -0.3072416855673418 -1.1783687176068414 0.04855425475961961
Ni 0.5619242935758066 6.946461342106931 10.16566703098905 0.26098625414422794 0.9232222100728423 -0.3878061746849708
Ni 0.33446564759514946 4.620390753503366 0.023481419209889994 1.8136091187832184 0.9212674003393165 0.7523253538175431
Ni 6.650690467243831 4.140454277872471 10.711461696248646 -2.8347890737494725 -0.6710211583204121 -0.6333593821035802
P 4.792267381879612 0.39950050423779776 2.595090182466111 -0.3281987474349832 -0.1672975689398151 1.7626290281909254
P 3.123342316166613 7.092605294146095 10.34122753466434 -0.6388486873529255 -1.029181999335124 1.0109405366264332
P 8.769848182272321 6.164895841290301 1.644750807570721 0.36105358918147495 0.46324336987836345 1.916794173513841
P 0.2247736604161167 3.542284556787651 2.660617912333019 -0.016383583564345976 -1.140348015388694 0.0052684474877909265
P 1.1648800483697266 9.337225061917655 3.1156713311848434 -0.09030177101005094 0.2927846296017474 -0.1817613097736289
P 9.081926119812367 5.968469432315198 11.974642258077077 -0.6670184649189222 0.38209138368838064 -0.7071222749183436
P 3.494583816740693 5.716634684871851 3.1333415403791722 -1.6869612050439657 0.6754797083123979 -0.4094504924276238
P 6.038673355572658 3.3906016485139454 4.1444545308411795 -0.24335465710539378 -1.1224721635495376 0.8247312183837796
Ni 2.798261913567516 7.795470676125162 8.242989236885727 -1.2458280368010803 -2.051782231687673 -2.0534969003859347
Ni 5.386663102275812 6.313048838472164 6.914982233378047 -0.897838222782099 -0.03909568044988105 2.1295727576045906
Ni 3.3999521576827645 0.7590839101473806 4.4873318814637 -0.2071391264167852 -0.29875267425972424 -0.5454075993829446
Ni 4.151128503700731 9.173262569313813 11.571554575572808 -0.3682485642680174 -0.03264761083169216 2.6770056149476797
Ni 5.692084904272995 3.9752431731005036 7.517566220939954 -2.4966622685675004 0.22645351047468099 0.7576416238241338
Ni 2.6532633050209182 9.136987100008275 10.01711973522778 -1.0731848872786356 1.2307554587386738 0.25666345839915794
Ni 5.555019207621629 0.8057660455308677 0.6289616237181629 1.3806386888567834 1.1843102799022571 -2.893701788925281
Ni 8.543624066367666 4.8441645853788415 9.812263785908618 0.9045804266019388 1.4396532197177785 -0.4103534638578675
Ni 3.911742325692981 8.735196847591485 0.8923671568548527 -0.7901912756253809 -3.6772395637898865 -1.6446094795506319
Ni 6.502452977509238 9.010896047150434 4.312210739062611 -1.0855269537837562 -0.47269834464367616 -0.972216637693674
Ni 7.166583218092174 7.000292486257541 5.530446895675377 1.0681162145064766 1.2979792648833388 -0.7872756446404828
Ni 7.144464945399666 5.935019769495416 3.3177099232735214 1.8038378983290675 -0.16464367625673582 -0.45228121443990493
Ni 6.5405027904221145 1.021956201395728 12.05767496725742 -0.29939982092541984 0.578577401266694 -0.07929822081069568
Ni 2.743172769187365 3.9469475559972698 2.2101261525224896 -0.5296647347263911 -2.316619998367507 -2.9220661990005867
Ni 4.09406786642354 6.9056514391381985 12.717872548913832 0.5592437339350884 2.5494968958700284 -2.6763592396129323
Ni 0.7528333388576217 6.877064792131116 3.5353167376058265 -0.7002736274276262 0.6052860209061318 0.6248878542974592
Ni 8.98035668336914 9.169244479028418 1.3748074284649894 1.6627714951716395 0.26694529994114025 3.7547500965725398
Ni 7.799714079884506 3.574570099992038 7.303985946148318 2.266553934949051 -1.4570500750379876 0.254452052570136
Ni 0.4857514408710228 0.5572443449606899 10.926045554805489 0.3207836859178346 1.4568796108983941 -0.13270311879439728
Ni 1.7051723708342952 5.891534269023559 1.604271364363779 -4.2022230909905245 0.8429965923518707 1.02566241621764
Ni 6.852336638365383 6.458385417229683 12.827672498799132 3.1178469629817593 0.7574529048520955 -1.8646619715949757
Ni 3.184646357203148 1.1351949981771503 13.232903475724324 0.38132545205663354 0.3587676213607757 -2.1668558103257647
Ni 7.004263636235866 1.727403300263777 5.14403992069235 -0.9372236665582568 0.274610786906198 2.256011640656831
Ni 8.702873752141441 1.2926703403435884 7.658309221247369 -2.1955300383320058 -0.6721701843231909 0.5484098765443781
P 4.6260799187205395 2.4650983900905543 11.356531355741767 -0.09324799812256844 0.32105159486724066 0.5045106040582665
P 5.808863000207674 1.7519343047398055 7.613171421966564 1.5482432475140562 -0.20412476507049362 1.2806148054629625
P 2.476889795227138 9.094693883336056 6.304621175740388 -0.6065517749924327 0.39033588308536 0.735563560978172
P 9.24316607460601 5.460941444187155 5.1146355735360665 -0.28774783850878827 1.3542190612126743 0.7087500403297535
P 6.5335556249754 5.94276492016236 9.092474545617673 -0.7450355050243491 -1.0514405536230085 0.8430780963220834
P 6.4796587643948875 2.9930360237336715 13.717031720776784 1.096707652990924 -0.5908955565124147 -0.13965666729409495
P 5.582225809600784 6.92205238242929 0.5610221008738754 -0.8005073128394086 0.9357527384396852 2.1955940588007223
P 0.5664756257495451 3.060273319584156 6.998097557498837 -0.6540351652853768 -0.014102500839653134 0.6591552601207615
Ni 8.64554086108323 2.3050225549123065 0.9463025084871648 0.28475995952505795 -0.897204445852842 -0.48040085549425654
Ni 8.318329368543047 1.4677858499078287 3.32519877986385 0.9590387055508194 -0.698507536666139 -1.0814738667603052
Ni 4.868273127091219 7.971938066533088 9.158497026321124 0.43985481575109403 -0.7953563647660883 -1.6883200330647055
Ni 6.809498914131124 4.738858700492652 5.494694341390624 1.694617436037643 -0.6911827208699516 0.7765603151055078
Ni 3.187049700925254 8.263409209268357 3.171622299602844 -1.49705618311728 -0.7955646241221525 0.27701296858978747
Ni 7.95313377951989 5.927668917407881 7.429682700426751 0.5465232010446265 -1.0016817370323265 -0.4367329822926608
Ni 3.9827442341706707 0.5245804628812999 7.906569933710225 -0.7903604542133936 -0.09850076188107551 -0.19729102997811185
Ni 5.154477567372966 7.026945192613242 2.8822916348700756 0.12263082216005976 0.2391565598636462 -0.2539694565067626
Ni 3.775990957639643 3.1802902967068305 4.014402654872571 0.9582542619763108 -1.2986102135991184 1.4823777551694988
Ni 2.821328380462886 1.13609625207294 1.6979811157908058 -1.1246498879271467 1.1843575882004247 2.4215803998309973
Ni 9.111329528162509 7.41195897928236 0.03641816783903937 0.610251335331207 -0.4766910107428371 -2.3269476055457607
Ni 8.723705860420166 3.355189880858538 4.8171016207393285 1.1313432407869224 0.5384399098158598 -0.21562119574586738
Ni 2.7656665643364517 3.153581261982643 8.547668443225025 0.5784326481587134 -0.1685296415747033 -0.5015494645474137
Ni 8.23041017339647 8.254284013573484 11.255470752227206 -0.0697123768944735 -0.6760180973143712 1.728928807725003
Ni 5.964019491204736 8.056505723754697 10.963611882555519 1.5419790117718992 -0.7437352981556868 1.5079491758807
Ni 5.943346979970058 8.8270308643479 6.781782540417163 0.7477151087390413 1.0129619379318362 0.4314059136527925
Ni 5.097923885412156 0.9261867092943649 9.919892277188747 -0.8285963577661407 1.0620494394871063 -0.7283133071736617
Ni 4.396156906618582 1.9687985234142253 6.095863548097369 2.6617214350950995 1.3666326043856787 -0.703624031957098
Ni 0.9569063238548167 0.8138885962666732 13.318478471935707 -1.4633240809721573 0.0588576935681567 0.21195197442439626
Ni 0.4923484316269758 3.0457781527602035 9.306096127879533 0.5371780123843006 -0.943779979619536 -0.7828404916872647
Ni 7.687545522104334 4.369954827210777 1.101700272662579 -1.4691394021023536 0.9737207330430262 1.3965610165139948
Ni 5.28338503865515 4.4618263962128495 2.573338982974909 0.05716950723245638 1.3234416708205015 -2.200512579148262
Ni 1.9198679473219709 6.16591913998448 12.282742473995809 -0.7885102883785324 0.41206556145296774 0.04360102451940233
Ni 1.417353183989258 2.0500428068951098 3.8676137430142314 0.39337312724978707 0.45354054076830275 -1.308004767440141
P 1.9843451531165992 8.347291538006708 13.404933129501627 0.9361672002692843 -0.36499817565151976 0.06455422973230172
P 8.14252853049555 8.960482157354692 5.79984013438222 -0.5931208462985075 -0.15977889196526676 0.4770671631353332
P 3.637554604021764 5.135232041473288 8.009787913737835 -0.6291090914676585 0.5952456059509943 1.4206080301608697
P 2.482250378294804 3.9213744767042344 13.713198575301252 -0.9005152553936299 0.43983450403611996 0.5863724718310804
P 8.412209982687818 2.5130244436114597 10.737486341295716 -0.6288062155152591 -0.5750688738928031 -0.10899909030923809
P 9.128134158094422 8.882317158017756 9.267444540229988 3.221027132616375 1.5384427164838665 -0.33974402907042134
P 4.808170757915736 7.692849776803513 5.283257361019913 0.2796442355650474 0.2983868062798732 -0.7120518510094769
P 7.804464438960231 0.2996087143693376 13.63732426294945 -1.0350446287634885 0.19672075929693864 -1.4944223450388585
