# total energy = -340874.0334801173 ev
CRYSTAL
PRIMVEC
9.23727552158928 0.00000000000000 0.00000000000000
0.00000000000000 9.23727552158928 0.00000000000000
0.00000000000000 0.00000000000000 13.51968644396489
PRIMCOORD
 96 1
Ni 2.3474318848996156 6.839546693783152 9.132912804923619 0.390143821679212 -0.1067797140604161 -0.4349864319151993
Ni 4.271011381461875 7.847665997555315 3.8904384002309165 -0.5262631652440098 -0.4905119757863294 -0.5850894913535988
Ni 6.064354530128997 3.264979701962662 10.116605980974729 1.0377735976588771 0.7227062453995295 -0.37889575956921845
Ni 4.874787422845652 0.9267111944027141 3.925832868932938 -0.5267861276270153 -0.854831894423902 0.6450424748684633
Ni 3.166048480886208 3.261303266296142 6.717283038410059 0.4796894312495286 2.2537747809065123 -0.7461577915542504
Ni 5.060650644066877 4.807844886978139 8.660765168859465 -0.9343334894946553 1.085782264327672 -0.21047590409950204
Ni 0.8783900823043912 4.981819734574211 0.29640569765651237 -1.1356125575862377 2.9517457283428907 -0.11086879652812519
Ni 8.05992935228135 6.444782486133915 2.518703905671507 1.265284859974111 -1.9322395615346337 -0.7994202504228167
Ni 4.529304080223762 7.362819878800795 8.21573817379255 -2.7050208692136835 -0.0482799180523104 -1.947773909724807
Ni 8.09729413185691 3.5323895916864956 -0.042381543923517964 -0.8963919772538756 -0.21779403502747008 -0.2574034218889761
Ni 2.5535432141133327 6.842040758180038 13.054961162066173 -0.8763085762404391 -0.36762044376571523 -0.9716170564364621
Ni 5.693625713445301 3.002059128153222 4.725725507391801 -0.502272201646051 0.8275416912493813 -0.3850496949857562
Ni 5.7991338747090975 2.7463990529213813 7.569253588930999 -0.03439467542978593 -0.7557058402540018 -0.21283849079440764
Ni 6.671243533371109 8.046405980884904 3.369295330953725 -1.0422329189818116 2.0596618915460656 1.0226699092482194
Ni 2.1873221878951177 7.797082676676261 5.630016910321625 -0.10638273573231356 -0.23125941650375656 1.2463006055621246
Ni 5.47024991623981 3.870048961922601 0.17610311588141406 1.2035878971849465 1.1529981000525367 1.4518685308370478
Ni 8.329694747268908 6.171654722848333 6.636164979492693 1.3831447431080888 -0.5597304437635198 1.552007856762811
Ni 7.660130829460621 5.892393408601523 13.510182414423465 0.7525971194216909 -0.5773486710659153 1.6361811462776208
Ni 2.2623935262413677 1.8614865303553576 10.538933295119767 0.05690622626874071 1.0660338780561511 1.5501857159524077
Ni 9.51734973851464 1.7223639233868733 12.392860962897453 -1.8189295025548675 -0.6844860255760663 0.06547905553941626
Ni 6.038019057552996 4.844387549030282 6.2512458601182725 -1.1094888639159926 0.6482702377771415 0.9799641428495769
Ni 6.263787309124389 7.102236335703991 9.323825120957206 2.941133242934367 -2.127179831892382 0.750315779586682
Ni 6.4890105614386835 2.0904324047138925 2.7764026476159125 1.8796990684337564 0.9863903580908947 -1.4416697359271753
Ni 8.387704837685353 1.5457934013629315 7.2644927755449205 0.3130310385556093 -0.10256130510369435 -0.24482635655491386
P 7.926330636088188 0.6566317320466586 3.6138392687958913 0.19334001575016377 0.02121031552902799 0.07352737976518949
P 7.817127564606785 8.870879009566405 8.223916857559226 0.1340616897048207 -0.4820124229557506 0.3771440669854344
P 7.6592532882839395 2.5279282490297654 11.36774414839674 0.2508237117889293 0.07015614930011144 1.0060017045639191
P 2.6809621929675442 8.659271501403996 7.74536039972263 -0.7131972774678298 0.5488328230144096 -1.5198063323296018
P 1.6026026459586544 9.391168554583327 11.903394358915817 0.8919362554753671 -1.259703766341908 -0.7491680391354839
P 2.70889571421266 3.8148192914449055 3.644772133410151 2.332822833379615 -0.4926490767339903 -0.6760672053847518
P 5.105830158752679 6.782229399032508 5.593053952232229 -0.047398543888621594 0.07944528791152124 -0.6062324439798011
P 1.662644936994784 5.750693601756256 10.849318685584599 -1.0071396748231043 -0.6949313892791064 1.139010013303561
Ni 6.088288311063554 7.581669410989716 12.863589753438047 -0.8348325684838398 0.5732660163561095 -0.48790873383552746
Ni 1.4101809591011745 3.5815965585094895 11.818653440530085 1.1717609824823367 2.505275207047492 0.10495217393337408
Ni 4.23407151656134 2.3132816772133737 2.0349828870782494 -1.5970206740280755 0.996534388503432 -0.3082194760995789
Ni 0.4885558086129979 7.8753408750851985 10.563512761614849 -0.15492182098328156 -0.48189646620317655 0.9725588515244413
Ni 8.692405608780396 4.849745168845813 11.358496711849622 -0.3104810184402459 0.5114032174130417 0.4680148231250779
Ni 4.2626424098189934 3.292358986675137 11.8464086823572 -1.0723657338114498 0.08936717501092352 -1.2651334219979113
Ni 8.917213183695209 8.675510631810383 2.10505593562763 0.26579190306298744 -0.8450030812589383 0.4207273508930238
Ni 1.2456927934888113 5.052023028708763 3.039253018131218 -0.48566030412098293 2.069181401000727 -0.5180099240962821
Ni 2.8659201611854552 9.087428460144865 9.792349897552995 1.2028996128686704 -1.3320530666385961 1.1446522991910029
Ni 3.118458037283417 4.2945756713746706 0.3653924426019166 0.14732935334800434 -0.07463243990391018 -0.0522576717531358
Ni 0.5611349300174715 0.5744800219959171 9.064476601600639 0.13460033581711012 -0.018034231793891523 0.11921331183807855
Ni 3.9397996295554956 9.037593358584877 12.773088470023065 -0.10455596693621994 -0.4833301133259096 -1.3449926575183997
Ni 4.5842104460574165 8.885538565854764 6.236117973959831 -0.7253377694851056 0.353777624345352 -0.08062850958634502
Ni 3.8530431376460603 5.806874711614986 11.135543981864048 0.5008385545233182 0.38265394106007 -0.13943709508412114
Ni 6.879442486857775 8.739728171392409 10.71078264561316 0.9129575949220406 0.04951970399668246 0.9667844109345092
Ni 3.285320182710594 7.648842878745829 1.6012309105403675 1.3103051334385436 -0.30778058878994735 -0.16689673395697063
Ni 8.793498352334149 3.614176429353248 2.813568825767277 -1.7785580407163561 -1.0998932498077572 -0.34935301291509513
Ni 6.225304819208001 5.1026802477921684 11.68215791472632 -0.557911131166594 0.5381185219206991 0.04290528400395837
Ni 7.162943710579291 6.295739045231153 4.744017160424069 -0.019100211164560652 -0.35324154933622387 -0.7703045640037831
Ni 8.109108607277712 3.804334983702443 6.743606502527852 1.4971065767392409 -0.2882741433259035 1.5312942783645433
Ni 5.65456127516964 6.588357459914618 1.5803435830802293 0.12407449658512182 -0.2716730444341128 0.5372404901911199
Ni 8.662864801590619 8.386476280037998 13.114677377275598 0.2924683839129092 0.26219647240224525 0.2500338688977823
Ni 2.5094167488395493 1.8257752231021764 4.365154922623863 2.095919331216203 0.28157153449474737 -1.062578315407383
Ni 8.765102967311831 8.638552292358758 5.951514743265912 -0.06693327148743956 -0.06080581843346302 0.04972564935990146
P 4.134170381552764 2.574973693375459 9.353757588630048 0.7573063519719022 0.7650795681594178 0.48824374857744296
P 7.1960408688535145 4.936085983355768 8.531800793806738 0.39951652114336356 0.20259521579984463 -0.060312423736812254
P 6.8625659844388505 4.548609986110763 1.782138333432226 0.3688592012688228 -0.09252783212709226 0.3287710749986854
P 3.1653094988426864 0.3342582053807973 2.708492968998941 -1.0570653560089536 -0.23718889461431408 0.282784580966242
P 4.924345406139318 1.8541151844712298 13.425725080396935 -0.7588197032926352 -0.8261080441266482 -0.5756314312644925
P 7.923818097140216 6.936103935044794 11.724177357448513 0.045098177890219096 0.053713687473372004 -2.2672093091448633
P 7.534697864848374 4.051653799118033 4.767258145692824 0.7846335790319454 0.3213737540933498 -1.5636577822969135
P 3.4015620581565407 5.631551221789486 7.24903973728733 1.0551609398973893 -0.24821661318338545 0.6104601089079035
Ni 0.47173288239222877 7.636169336699433 8.00300556546888 0.00334654787472972 0.1765453127903282 -0.42519464263575807
Ni 1.3849631968660001 5.375789536526662 6.7953860505898565 -0.5135845413350768 0.30364831178912866 0.23766969090547452
Ni 8.789674120258924 2.0041470138572017 4.9875071251266645 -0.0933780959425295 0.8428263853225937 -0.33469798200608164
Ni 1.5342929933106266 1.290863070899069 6.273580668656158 -0.9281867531669693 -0.7831963323647867 1.5002152975715517
Ni 4.967363398347819 0.1928715421764735 1.398111534875358 0.31187224236081773 -0.08713622879787573 0.0740714251941176
Ni 0.030398950087815273 2.9699134092600326 9.796865077838914 0.4668485707311186 -0.46409646190727816 0.5232374910438086
Ni 5.1649856713365825 1.1930310856123534 10.797821798154242 -0.6657475686262986 -0.8142735133855654 0.6665888335806713
Ni 1.262245991263695 3.648049518773169 5.219626927362124 -0.8521849437193583 0.35075992056495076 -0.1776884252558359
Ni 2.620402614500949 1.883360398843597 13.070021616113142 0.4869533119007936 0.23288563925326988 0.8963318134399014
Ni 2.6945409880172533 4.491329640462295 9.216248733699103 -0.5902484098467189 -1.9246332099422856 -0.03438233413461175
Ni 6.710418818953298 0.8434953502093016 5.499132105683297 0.07656950902562297 -0.4993293169676432 0.5585863028567476
Ni 0.2261589883269038 5.254365549500521 9.136590164317694 -0.5947146731481887 0.6675661098922762 -1.1157253317440075
Ni 6.675400307365918 7.677663178443171 6.787464163083305 -1.0683699823884956 0.7918455233993524 0.5451607734794611
Ni 2.5089086986846283 1.7906735760349006 8.285675434391434 -0.05635729574380616 -0.8546552596367217 0.12907323535129384
Ni 1.2117550431400819 1.450076752175797 2.2972790210609135 0.4860035463930146 0.9053476437852666 -0.2142834507710503
Ni 4.573365884568736 4.666791689420955 2.6237788387122882 0.1727763326661992 -0.35519635906974956 0.14434044592300949
Ni 1.7507593084091904 7.40508965169023 3.26228703614158 -0.44686749962350136 -0.13997059899008796 1.072157731565702
Ni 1.685202363873281 9.024559562792264 0.5337029928343954 -0.5076769176013902 -0.21058029088785024 0.1089191290009221
Ni 5.506977323802833 0.34005182460200667 8.529840643936296 0.1923411421720042 0.005249935545029668 -0.3798748356530361
Ni 7.506487225336937 1.4569308106294596 9.40161683695117 -0.8714707885321636 -0.008519350324920811 0.7290730681578217
Ni 3.431213712652845 5.657489491517095 4.673998611800399 -0.7133314890528488 -0.3895336988990388 0.9908039137775582
Ni 8.389155089945765 1.3301214919611537 1.0207697526296973 -0.09994726451961497 0.9458733718134549 0.5412820072503453
Ni 6.828868403254265 0.7996811048489061 12.853057411862755 -0.6836324193265194 0.8218870640667651 -0.1692996869715084
Ni 1.0210330149827018 0.13634957685016977 4.3046812508198276 -1.2913892703706469 -0.6341821351151916 -1.099764694649693
P 0.2888385215308512 6.676046916653998 4.8456715303309 0.4243004129562628 0.18814355915088887 0.14984774889448388
P 0.922522089943501 3.046037797018301 0.7088574405174386 0.5398082509182961 -2.822343134676636 0.3621745901597956
P 4.546522361837814 6.009014012344775 13.351393647821762 -0.45741210790856707 -0.750017788730289 -0.6918560927878923
P 6.784640327949498 8.448356788907388 1.3019145473599343 2.440203414248823 -0.2911848892147953 -1.7543585606520173
P 1.0222338608034245 6.9351524956637585 1.3053498901347553 -0.18748484252096745 -0.13881720211193513 -0.6735151283868595
P 4.75520165365277 7.901269907537262 10.750949090861221 -0.3091165339925515 0.8194681702126274 0.09366425972438062
P 0.890659955409513 3.2388197376219976 7.828142091965473 0.21788042409368927 0.17171523839153655 -1.2173823798658776
P 4.483570329005318 1.8141177813656233 5.964439539207106 0.04531132234228971 -1.4799881718913996 0.44164327511008455
