# total energy = -381170.81637221767 ev
CRYSTAL
PRIMVEC
9.17712561352714 0.00000000000000 0.00000000000000
0.00000000000000 9.17712561352714 0.00000000000000
0.00000000000000 0.00000000000000 13.43165097346837
PRIMCOORD
 96 1
Ni 0.9907900066483716 6.676716751544044 0.4330070683539 -0.28931261189274693 0.8903640258922407 -1.1822374565336284
Ni 3.5194460058507433 2.173482885845895 9.109439668722956 2.2574748554659188 -1.3964100927584273 -0.5922405005760834
Ni 5.421056547032651 2.537355914231619 7.091616433458905 -0.01682195665334522 0.6547406759928336 -0.15461817369993372
Ni 8.348284286356597 8.282566890233767 12.04856738675832 2.976099474596907 2.4598024194266737 0.5890307353895339
Ni 5.883473549663164 0.9915884165719416 3.7270142317278756 -0.22495250044912227 0.5870504717347116 0.8413937666411251
Ni 8.144432796330566 6.051066216608438 5.580864258366838 -0.8429497982743354 0.5318833396442646 0.5010640402705628
Ni 3.111293346646328 7.593704314452743 13.026149674303218 -1.2318402071624206 -0.3274814096529844 0.3653288195180611
Ni 2.8874999627821594 5.654880529132018 10.967010102063243 0.321902115792994 0.2183704763562304 1.059369321551782
Ni 8.552796529422823 4.428119093003643 13.361080801815799 0.3717645478410759 -0.3840006848959516 0.7640732383820905
Ni 4.423099205323265 0.28990447867344726 12.669968912560442 -0.21566541872024145 -0.013373078872796325 0.3047492581627913
Ni 5.627468455089441 6.015679220455718 10.45428409712225 0.7853676289844925 -0.08408201535258422 0.389528042472084
Ni 6.835857285850143 4.247660096025664 4.656699265559009 -1.1524214016134604 -0.6200377252940096 -0.7375376539854073
Ni 0.2107985740736465 6.8909016849486955 7.952611600198883 -0.20328144323359182 0.1097143712087078 -0.2253736471469409
Ni 2.4770346679370574 4.770269865192923 4.9092950579878325 -1.473112784927805 -1.1792071543477367 1.424339986399476
Ni 7.204107803127166 5.769163273709254 8.494552066642099 0.6636647179553409 -0.22222455999499793 -0.01105162982847129
Ni 1.8159237198442661 4.523937460957624 0.5169236221713502 -0.05140252284169212 -1.2552135917810383 -0.7742697192991181
Ni 3.273636697772266 6.170157774978213 6.868301177836323 -2.464460229913659 -0.47402503387489975 -0.403598147411905
Ni 7.405729251642534 1.3341980450391357 6.636860495244441 1.3309883728195078 -0.6217966169666452 -0.2041245079601775
Ni 5.328569475656326 6.595545075981075 7.459898152962826 1.2536845567310215 0.7645627764239994 -0.5379997369546476
Ni 4.492368149037148 0.5179367768329841 10.408401222468527 2.3176129584083953 0.18987648268159557 -1.1685059658801487
Ni 3.3942333047335977 1.332959133088768 3.6770080745608187 -0.3418783018046047 -0.6991680530682732 -0.4078126997138848
Ni 7.716824630942601 3.658167435789674 6.816643138068777 -0.4917656456877725 0.8337146528293125 1.257702676751479
Ni 1.4442868432362388 2.0399465318473915 5.274193171298416 0.6003047656414564 1.2848980062193485 -0.33895804283401626
Ni 1.959655860338017 0.14291445860650803 9.490643698725487 0.5542635071116777 2.9892151860432583 -3.080257948984392
P 8.397069885824402 7.239118537131997 9.90472753417822 -0.8779682233310493 -0.903213113940767 0.28260151842115844
Ni 4.081388935160782 7.644013316763223 11.008325521326611 -0.914127961081058 -0.3400415057061821 -0.576930095471258
P 8.378229247053257 6.581751856266983 3.509219934841154 -1.1461389110388582 -0.00391347612179326 0.26730011217739774
Ni 6.461779293843614 3.6372802980190335 9.563120965534544 2.681682965818691 -0.31421117490663947 -0.6472389682991498
P 4.210281663626797 8.443992528803879 2.7931793017192894 -0.1475548390952491 0.5001273873889065 1.7758390991232964
P 0.9795113193372478 5.299909312537824 11.890529942944326 -0.1706160917900868 -0.6509428995132983 0.7142588859631247
P 3.867984057428585 6.81290529482889 9.007399209640463 -0.16465036112495512 -0.7561370142541494 0.8533098013524206
Ni 0.4639954682265375 1.1257947007361997 3.3762470563519287 0.8038494898387639 -1.1323382577103402 -1.091117046277024
Ni 2.81709305549905 6.092721189517463 1.7888273389208946 1.4466363359038312 0.8173097291087278 -1.395943180424338
Ni 4.402826934965028 4.37201932446589 9.403149901365422 -1.8642038010116346 0.5357654483074902 -0.20761606605320373
Ni 7.880985052929079 1.8568720540853028 12.674280326147722 0.8056983701220446 0.6233511059379586 1.2442177548911668
Ni 8.491805352962507 9.188321651459134 9.146927308915966 0.6939451141064371 -1.451494692437397 -2.00690079779395
Ni 3.7109359077497728 7.968314579741653 5.683992206827987 1.8358645877473094 1.7758049034512513 0.08651916403916712
Ni 2.1441160840594056 3.533202517062602 10.383189823134826 -2.2291970915671477 0.2741402750276827 -0.6755141610947591
Ni 5.298303315565125 3.1407886281906334 3.0104358190482965 1.145060590373015 0.16571711182657264 -0.26746697677256515
Ni 7.346463374787175 8.745892428294551 2.5699181911375013 0.6181201965563226 -1.0372946011399298 0.6233773311902038
Ni 8.017274544595066 6.6230764526559085 1.278189130044409 -0.6004968270476045 0.3199743026426618 -0.5842934778148647
Ni 8.606152337418651 8.817648373034727 5.1109174242157565 -0.16061372916173627 -0.10002928271046 -0.6673380530418701
Ni 0.7842074040561979 7.733040611804079 2.70751175234532 -0.24841587367838505 0.5741221937088177 0.9731316933087757
Ni 2.680702615451922 1.2476302196478988 11.294997816378434 -1.9289223242359428 0.714271484368615 2.3024082256434992
Ni 4.000290676602279 8.819529683774174 8.03553885988115 0.20556432573049757 -0.4802082798674762 0.16297631585664188
Ni 1.243941015173471 6.948846055723662 5.362318354896893 -0.8427024581502196 -1.2091301671594143 1.1329784623975003
Ni 6.883119482475275 1.7849968067128694 1.5721480627895037 0.7534941773146636 0.6875443527864159 1.4020870885385466
Ni 3.442009420389993 3.8506117587467643 7.148606383175812 -1.1526399453821696 -0.2978782420745708 0.2721420136507313
Ni 9.06662378943081 0.08658526192979743 1.0409365738364702 0.3744449228867164 -0.12937225464895136 -1.1682234016427233
Ni 1.419637083986704 7.559565407375949 10.309087287389398 -1.406316553238862 -3.302628547638951 1.9474687197795622
Ni 3.3384272042137093 1.3799735473238266 6.465284955806876 0.24866321380250078 -0.6143555873075677 0.18331605585525848
Ni 3.5366439391469564 3.5199415706308903 12.124133674030292 1.267310117934256 -0.13224057733568192 0.9277218977154087
Ni 5.935599622834184 1.1032740346161853 8.746543086496633 0.8549748477596695 0.03724448617375521 -0.9777254833270451
Ni 4.523772272697575 0.9795388507139227 1.3778995169476556 0.7077593942817102 0.29040095986091924 1.5319599369730004
Ni 4.331070990224853 5.465437126232485 0.1325727558148845 0.8288200437411726 1.2655064890666141 -2.2999677345228067
Ni 5.156608496945312 7.464297666955465 1.1529553215384796 -0.4579332705193597 0.44141007605335586 0.25499969754348983
P 5.654852997755343 4.65351847384051 6.618459440787539 1.001900795021668 -1.1946039485187814 0.7148183580110206
Ni 4.881781117851559 5.6666088955954965 4.988623049026144 -0.38174248498939417 0.8473985780743083 -0.9176704270166776
P 1.718352520908654 8.310740665697681 7.364117411223634 1.4768488549314696 0.22591049348701742 -0.8496819747918464
Ni 9.002897829554128 4.287029964670676 8.856118883375029 1.621733346283407 1.6973942274518314 -1.2573362945509958
P 6.3575179703760165 6.3844069482617725 13.167785759319457 -0.03695343729589765 -0.8028344183106884 -0.4585127971719136
P 7.906846192752306 1.9438253187499872 4.074317042205573 -1.4297860971157117 0.5106627397025915 0.6623269729805238
P 1.7630175910007935 2.7410422159976005 8.360692677823945 -2.7130205995897083 0.6935620197354055 -1.3387127380469588
Ni 1.8953884500533957 8.989233089597851 4.881639790117961 -0.31374837633760805 1.2031307550428698 -0.5617153354040326
Ni 6.696805479391115 9.061099159844726 0.30311495091458857 0.15840180911208204 0.45377965336230236 0.32511368075175623
Ni 8.470899860940749 3.963545465866934 11.052394995970019 0.7537479451966825 -1.4165845108237731 -0.3940495844915214
Ni 8.505314081784292 2.2119166876839635 8.963934507571345 -0.4700701629922099 0.0769600595958223 -0.9291007803408062
Ni 5.655421979539956 2.2926478612201353 13.104079989119002 -1.0749139541546002 -0.5622850918645735 -0.2620545475077422
Ni 2.3976250004812782 8.8941121831863 1.5362315464920706 0.22124034170485768 0.2764946341924722 -0.15739110845938054
Ni 6.322048380093272 4.208097507743927 12.117296715489376 -0.23551382090473633 1.181457126724178 -0.32197436379182615
Ni 6.272647913213062 6.079597899969125 2.9202696427256587 0.12628795929667283 -0.3225153238969607 0.3508252265852474
Ni 1.09450987970803 2.761342017732511 12.417547485517225 -1.0943432665238055 1.2651239089162145 0.20442609836099632
Ni 3.0054352033315905 6.7408006193175 3.8359182630154054 0.7780402420851439 2.0114516503894264 0.3993396292458671
Ni 6.380892109172952 7.928238072428653 9.158787825987485 -0.4561941763410659 0.8410132433732549 0.9093289970305177
Ni 2.0716810320279166 5.471466497724273 8.738578259224603 -0.3434721286542859 -0.695332224261951 -0.0340437198482704
Ni 8.011483778367792 6.1518861179916815 11.739947995933875 -0.1274228442320644 -1.2601459960856491 -0.20727462355338497
Ni 9.056565659818938 3.703676801433175 4.904688140957576 1.2981497290229318 0.44818878953808616 -0.7474091474628483
Ni 8.358168050582861 4.3427901795627735 2.396193368894186 -0.20828146755134452 -0.36497195039927466 1.301582665963881
Ni 6.536325084753506 4.235573821665412 1.1995255628965171 -1.4653136005983602 0.29426558502264805 -1.2232329251093834
Ni 1.8160889081043154 2.8497819767376367 2.4280802093589795 2.1466505390224833 1.4540475407662377 1.906915480947548
Ni 2.5545079619000406 1.9400902286477681 0.4097026757112088 0.4070020308871313 -1.053878730750856 -0.0707449319240459
Ni 4.116399669165613 3.603838852484668 1.1315294864975678 -0.9962973327919616 -1.6860975714920896 0.8528359470397957
Ni 1.03391331964672 5.414623382016298 3.0206435358067685 0.20708564747103045 -0.6371131927190576 0.44070610800779586
Ni 6.2104545333046115 8.29145034777418 11.731781271899564 -1.6976191989784442 -1.6612997957221194 -1.2359632281918584
Ni 4.199186518826839 3.0892774224320183 5.042926854092142 0.27556698017188025 0.3255014031084781 -0.1889431722340488
Ni 0.145046304873696 1.3632436474310858 10.914854662090438 1.9244771439803952 -0.8255514002922298 0.22491676211518039
Ni 0.7639076023212871 1.020835915726174 7.238249463341628 -0.5043457963456283 0.28482089466998045 0.21243225649492448
Ni 6.0445779888387365 7.97940972454161 4.485621126326701 -0.29220973093488384 -0.548765460111584 1.0465076350977653
P 0.7292520230755616 5.145182975625255 6.596257220924397 0.3709435946016773 -0.9775848439841229 0.39216625142587946
Ni 7.166013554934754 0.984237538999761 10.672951138649564 -2.268629072310525 0.6407356199629932 0.6798644676436549
P 1.2275873774286197 9.037486415783277 12.693057642752514 0.8547886998907924 0.20877229114483403 -0.014685369926316643
Ni 0.021503840608157094 2.4166583588891464 1.398127737103212 -1.1429144905642898 -0.02709582777552753 -1.842706036149175
P 5.525804258154837 0.44000646201719873 6.178223550631383 -0.9976276215676109 -0.991893290186995 -0.06662396777713687
P 5.1461098653066415 2.629595203217872 10.788624217748879 -0.5496134099341761 -0.6019970657422149 1.1986022710448971
P 3.7073476516564856 4.577917313491415 3.203260992716055 0.09282710853506594 -0.20616005033296753 -0.5958582998343286
Ni 7.294401541495064 8.003077531356409 6.952839940766625 -0.30831383558559805 0.4916064944020888 -0.19735607888809237
