# total energy = -340891.0870754783 ev
CRYSTAL
PRIMVEC
9.07700081080702 0.00000000000000 0.00000000000000
0.00000000000000 9.07700081080702 0.00000000000000
0.00000000000000 0.00000000000000 13.28510820392021
PRIMCOORD
 96 1
Ni 6.424556073688873 1.8547671527321374 11.563332263644554 0.10246797405893966 0.07851711967029704 -0.6520088788839674
Ni 4.532373522846937 0.4707813798117724 6.288572614052119 0.019201255518799188 -0.5437528373883409 -2.1101879253200755
Ni 2.4838668608339804 1.6008471268409439 4.719733715827037 1.2181223433556958 -0.8775290789111015 0.37863762081182534
Ni 3.8544940113870023 4.348518867651895 4.856544090254621 -1.5373577109498038 0.070599150374801 0.30874860913017155
Ni 5.1575973515230435 4.4702051430182115 2.6488776619591685 -0.464989920255825 -0.33039035576966325 0.3200411513248553
Ni 7.348712776200494 5.942340395721129 2.314624361843973 -0.07503327488675464 0.20571344971385216 2.6361099051745827
Ni 5.0151428978755 4.72671211419356 11.503788044804072 0.9979382108294942 -0.17335483087748854 0.5043499101106862
Ni 5.731663202579834 7.752121931511938 12.39377074626194 -1.403269795992738 -0.08235937623452266 0.9230039234144493
Ni 1.9223272711531054 6.468180140480646 0.37016554685988445 0.0392373482340679 0.40536500950434057 -0.0797831308669142
Ni 2.8094135015928154 1.7102340658562716 0.3586359401934444 0.2411165118034944 -1.0557576929411236 0.20844627526398293
Ni 0.16246288694531885 9.042081774204265 4.982061767741788 0.4160628555378189 -0.32736313890756524 -0.7593277532773052
Ni 8.836079236576445 2.2885388763786794 1.3588942190642477 -0.7041369670377744 0.7174995043876095 -0.32750017870606174
Ni 6.8498589554051765 0.4867414706648676 4.636901543228549 -0.8846677468384119 0.12400276280692195 1.6987702818637518
Ni 0.7313267087307053 7.454677685839938 2.380691313600927 -0.08547375349378827 -0.961131840634422 1.2790083802077907
Ni 7.66843198231923 3.835341539283248 3.735333865398162 0.23882205934236286 -0.29290367167811493 1.0306953506558572
Ni 7.4365236838458575 3.5435431882314066 12.81619712636228 1.5857623275054367 0.3641913634795083 0.4760497776144124
Ni 7.769640543436225 8.960978770295714 7.206214752948164 0.18571052422936404 -0.25181950004329534 -0.7684705961188378
Ni 6.961469759664779 0.5471697894024612 0.37191831575241285 -0.6984980235844421 0.6049432928547324 0.053520854736275575
Ni 1.817061290590434 6.822936570447957 8.86026399803296 0.185664501482777 -0.887105152635311 1.4039002304878854
Ni 0.12608317464928273 4.894682017643785 1.3411976979204188 0.5040475483789191 -1.2711742288753527 -0.21443566007819845
Ni 6.230199328340255 2.159954080254612 6.946278490796133 1.0596158903449493 -0.007243568936290751 1.7746520207937306
Ni 3.5503327849771926 4.273924073458221 0.47131692287059773 -0.9719775250996745 1.4931812735429058 -0.253166500989493
Ni 6.005634323673489 5.5409463346310295 4.666340980562248 0.5107046486841204 0.2609705704149441 0.46399156089829774
Ni 5.480520738993735 2.8808585764405166 9.402748239520749 0.2096822045536131 0.5144543455345398 0.307835867507915
P 0.12956057373124868 5.494535628533164 12.46855252667615 -0.367373874972548 1.3068899371094074 0.15437006224486965
P 3.969708385042429 6.305892439654571 12.644646346018726 0.030564760160734457 -0.8697355510086119 0.676683498812512
P 2.2540462725899277 8.578174407247552 1.3824218056485753 1.8205212725220195 -0.16747214684446643 -0.344716028363716
P 6.240165875435006 7.964151597801792 6.043581634041713 0.00032935831496072306 0.7578943632648883 -2.052282568362859
P 4.863820214253848 0.9797805646214814 12.741362699342284 -0.6333719805090705 0.2977774548306485 0.22660649111277745
P 3.9686282219237814 6.277508657536827 8.15850471235001 0.33152446937410646 0.7941993683435097 0.41925256611971023
P 4.63272884587021 0.9477205970999366 3.839568698647569 -0.44553901062006496 -0.08003818430051378 -0.5042920602895573
P 0.18595235012545866 5.618600078160705 3.568991468226708 0.6393744779494085 -0.0722215164695724 0.44721588410185553
Ni 1.4974147004796747 1.161538432586208 2.578001715073982 -0.28199962317110144 -0.7844654288851973 -0.3179505873444137
Ni 2.029190803891256 6.438198806187424 5.026035299071948 0.49217882196579105 0.01648565635984903 -1.4007285176281232
Ni 6.188445123753872 5.567523793550362 9.23252633212316 -0.6936836329149344 0.4860207727841952 0.08186906686166545
Ni 8.75722732891516 2.5605130572529853 10.254071086032122 0.10630123176210081 -0.3267895257922824 0.7153996844357873
Ni 2.4999603836017323 5.138227031395361 7.126742886118781 -0.24248228180276948 -0.018254061114181465 -1.0779018331383308
Ni 0.5667779269562667 8.894090349948527 8.850884732902719 0.7232585183585738 1.530101543608023 0.6899061681503731
Ni 1.5738702798777415 1.2333738184767815 11.424794535927234 0.14319861900908243 0.6786336805603473 0.4051251255793926
Ni 4.138903683627253 6.788698122687122 1.6336831779477357 -0.25710028882626046 0.5370710544927911 -0.4919631064105592
Ni 5.3985372659884705 8.089259902543994 8.038154571530459 1.7505962653961078 -1.178971127077531 1.5949277960547887
Ni 5.442960108867984 2.6548684826172146 4.868633747882578 0.1073895797302731 0.3472215683943891 -0.7807324442053264
Ni 0.5128596333337502 7.321554389217351 6.868573916060873 -0.32313984485483704 -0.4750989836653689 -0.18105271374237852
Ni 5.058540039642348 4.5698887679677025 7.300698164026452 0.7733618627728681 -0.13079613157967152 -0.8445004305909068
Ni 8.162974227640953 7.149073216271599 9.062463272243019 -0.45087893477573965 -0.3669825530714002 -0.07088325727412308
Ni 4.399595152262238 0.40168815592240453 10.557635953476424 0.2191050405294097 -0.10113691395234194 -0.010934901744948908
Ni 7.859920395352783 7.153312175737217 4.5831629742257745 0.584530019305703 -0.1041690159104464 -0.21176171279046113
Ni 7.126326251773017 6.292458478178952 6.837513326349103 0.7915436758882175 -1.8903730032078345 1.239947666760903
Ni 2.343572733423732 5.281089950087772 2.6006660788634908 -0.14612890528199995 -0.056915739350437464 0.5240736137918587
Ni 2.4066669673541563 5.554008139065769 11.329912644505177 -0.082258074769968 -0.2979078097609257 0.29724677913815906
Ni 1.0307842332238486 3.262891394403931 3.6573769500351845 -0.4135102643192943 0.9770032604490398 0.43706285482825374
Ni 3.423127693004676 2.7659346668169946 2.7295449698198615 1.2717200740764936 -0.19199327191428225 0.34018625881416253
Ni 1.3492054282000074 3.602008151653341 8.471541430334726 -0.5781246299999915 -1.2957496042218717 -0.3810729697261953
Ni 3.7616998301942632 2.584086028842298 6.969327719427916 -0.615923703125636 0.6715176383408563 0.44828572012726664
Ni 4.326225753203165 6.917700460857053 5.928692217021981 -0.3791865513367599 0.1655772438145987 0.4769902871508108
Ni 0.66584431583796 7.387725726485772 11.463095849334342 0.763800187226362 -0.03749696850419349 -0.35603248181779973
P 0.17261551256050797 5.368083927643402 7.946155535625061 0.5651549572132009 1.9571023862145844 0.28492990944401897
P 8.427632345711645 1.7843387019961052 8.023780232751546 1.3281406189580673 0.45828088366676556 -0.40711567364686013
P 2.0607606133589607 3.4212669078002826 10.545055230094526 -1.1082557628398397 -0.2313388635914403 -1.9352858045601251
P 4.131869007854546 6.260307740647437 3.743982431948141 -1.4545774451277789 -0.800478516484002 0.44449951361195705
P 6.986249972386698 4.0606145500277835 10.767102274684715 -0.04880262332499982 0.1520776666662671 -1.3734367717917055
P 6.183089693165618 8.054386064713366 10.278767790344867 1.2112464421714688 -0.9404131200298319 -0.774711177711911
P 2.088354696389962 8.424836629404556 5.805592652600425 1.6322928669668082 0.21796964137338587 0.06819311203646965
P 7.038243034097742 3.7646680095202956 1.7228392971408608 -0.19776488429073683 0.1898245463977376 -1.2467806305223366
Ni 5.281852418171523 2.9190455196350635 0.6595367078451169 0.5988898875718008 -1.6791357954622759 -0.2906812101054994
Ni 1.2719873807181894 1.0572618451322138 6.776573972455376 -0.005066101668997727 1.4911447027288511 1.7932225847070666
Ni 7.163051797807041 0.8379996244479181 9.421612970692896 -1.3797591144653076 -0.8592035411290364 0.271697469914145
Ni 2.7208310488627037 1.5968441694012494 9.144498484153967 -0.4176471693058033 1.0886331035129058 0.730209238644794
Ni 6.452694776779697 1.7424846503987543 2.671621903357451 -0.22258117200346828 0.9722971132226221 -0.759983127473117
Ni 4.250941106933716 6.729661308202374 10.422008312278756 0.44941983373170985 2.1476082749500627 -0.8250952865914176
Ni 8.254506705695103 7.09405751322854 0.4722763618759849 -0.2810987086233869 -0.48848877470871355 -1.4538454520577608
Ni 7.761879707583755 3.912958974808936 8.453567152960387 -0.7847978725239516 -0.5546903102364512 -0.687086696423707
Ni 3.176423882906129 8.391142801703545 12.460608335403542 -0.16049828662979454 0.35738179675684256 0.6621251413823629
Ni 0.32077486133469135 4.976193486597202 10.331390795925108 -0.7436504517513645 0.0397202014077574 -0.5688151796736075
Ni 8.31937095481995 2.2313900781013163 5.704373199082234 0.5687696711476528 1.0753636400975093 0.1344527544956523
Ni 3.682784383525999 2.815122935219954 11.611756248563562 1.3268165008300052 -1.02235109245622 0.37084486424028396
Ni 1.3072696835936832 3.7196460845749773 12.526529147444444 -0.7026413563288544 -1.1982556863387557 1.0346404513465342
Ni 3.2006050135622433 8.644064357485064 8.12980868139797 -1.741987183570858 -0.8641182048218345 -0.27279378830211726
Ni 5.655398240202705 7.839279295085515 3.524898120483387 -0.6141280446777939 -0.015020898888864454 -0.15428187340643754
Ni 2.951922417246342 8.456306591861294 3.647585589059678 0.7240442474846628 -0.6348182260372938 -0.1669916076636221
Ni 3.6984603642478864 4.518512942324458 9.440357885451883 -0.5985625861393692 -0.5305047141291831 -0.4425328768038895
Ni 7.383323381002207 6.318137313999578 11.21757386476561 0.14891623821914998 -1.3252954361997886 0.8901678507210348
Ni 0.33640182625119525 -0.0003494645383860353 0.560291502043782 0.684319418091215 0.8582398916641866 -1.168577956768665
Ni 4.743177794002191 0.17940147850589497 1.5714957364169158 -0.8340666368520926 0.4269321941521551 -0.024453505056674013
Ni 5.929759672339232 5.440509318598783 0.5659791508685272 -0.39829807535523015 0.24253704630010486 -1.9036496657120832
Ni 7.858513460198242 8.645788987674502 11.686418212564615 -0.03313560621170423 0.8772493428871537 -0.8167086051896193
Ni 9.527311016503026 4.846410526341526 5.713619939997919 -1.336361207095647 -0.7049926301698504 0.1415546556477562
Ni 7.833960172501249 8.803647112014023 2.4594724206544356 0.14928544863311063 -0.7203835108036237 0.3083531734639657
P 8.552332185408979 1.4559509599251963 3.5684332326653903 0.32291101667348254 1.3120162025923792 -0.002105476378777019
P 1.796628961346097 3.317816327437019 1.4616939784560237 -0.38401688284586766 0.19004977503466622 0.33368368180895436
P 4.813942093775114 1.1191125299260436 8.421722310362473 -0.2382397044763316 0.5996033686990576 -0.31665680823365466
P 8.727209686617948 1.4649916529182483 12.3110974211809 -1.4580072967449342 0.9044217895368875 0.764292039261116
P 6.28713027859369 7.580766306689818 1.3038413003171012 0.00205971074250613 0.3352790513205322 0.4636912560490595
P 1.9423057503475902 3.212368806854407 5.984184462617384 -0.44498442366817553 0.26675452408657285 -0.03786515047688963
P 6.970210911624928 4.159862478929417 6.066339490941492 -0.14744608143152674 -0.6179559030643164 -0.09932660021648054
P 2.215469018352508 8.584210612910583 10.407966191736335 0.696759957847413 -0.8704210071114107 -1.7190015213089622
