# total energy = -340855.12124056957 ev
CRYSTAL
PRIMVEC
9.46277585161216 0.00000000000000 0.00000000000000

0.00000000000000 9.46277585161216 0.00000000000000

0.00000000000000 0.00000000000000 13.84972897087306

PRIMCOORD
 96 1
Ni 3.2264564743729025 0.9604244444895127 11.14739798737959 0.22620128525455882 1.6368066956767617 1.5787684126861068
Ni 8.389725540743243 0.5105262249830406 3.9257196581246725 -1.7835956031402636 -0.9073633886637148 -1.8138981107785472
Ni 4.906950854361006 7.404499160503132 2.247741430260218 -2.143671401789502 0.9236693249125899 0.05888109060692441
Ni 7.709077529829541 7.192902027607619 0.5743677891703695 -0.05272201298406404 -0.1283867508072305 -0.5193078169720992
Ni 2.8069716167521315 7.7492754020418815 6.464665716468904 -2.3860598383268843 0.3640234704430763 0.08112781782026673
Ni 2.551760549528306 3.594577384166794 0.6697885292397654 -1.2999140200122064 1.7751585281165039 -0.8021728734672895
Ni 0.7696804309429492 1.4156028929730295 1.9580054250027954 -0.06311518329293 0.11298481442986347 1.374021183540266
Ni 7.684512163477555 1.9009675967195796 11.368425722781415 0.03489141256054636 -0.39397065162446987 -0.5786370508600357
Ni 2.709164364589527 8.486321557584949 12.485738261043172 0.5742682323683788 0.3060929166748793 0.16299019981371285
Ni 7.286697062769746 8.07284556268895 5.361811353572787 0.0168540954428613 1.017890485581705 -0.534083432619377
Ni 1.1130968715784708 3.50191788211801 7.954439739850305 0.7354234358558818 0.21594438341324101 2.7357710059123463
Ni 3.337700868376732 0.8260293691374037 3.85188634881752 -0.638345779574578 0.23668727238754722 -3.126767662510157
Ni 0.1911840326279838 8.724300909813795 1.626858419656944 -0.49752131722462706 -1.3042936371371407 0.1136738700770881
Ni 5.390593332885652 6.663705745686032 4.854883822281448 -0.35094632554414396 0.394964640106623 -0.4485006643515501
Ni 5.524633554139841 8.793426488088546 7.0652870312197615 1.8308187977932855 0.5439173879906632 1.906853003140729
Ni 6.528728709613335 1.8327125938317241 3.1001927623899235 0.20801741525668044 0.9785955446368244 1.0255729418276271
Ni 6.896594124456724 6.387704959712087 7.027490811542143 1.360183249215909 -0.6846042963214855 0.8699669502931275
Ni 4.326172980765815 0.1571852249369018 9.329219271121062 1.081141680231867 -0.676325601252461 -1.232645219562219
Ni 5.844891743206328 5.012053906776839 12.781097994044426 -0.14992950997501275 0.5331174691616818 0.986062799548147
Ni 2.8483901870613155 5.513543180732858 5.900939765125747 1.8984483240168013 -0.8241568339375485 1.4495223992023745
Ni 7.902808941741791 8.908200497519683 11.894950663053864 0.5770373104730837 -1.752458258305511 -0.8857452961733069
Ni 5.1253706487125195 0.6009184459155162 1.744747574929019 -3.7409268175362023 0.060956227968398245 0.313674328566563
Ni 0.13333713700151117 8.111349598007221 6.68971040025918 -0.09535964514893254 0.5096931767004705 -0.1334101721637509
Ni 8.159250169838405 0.7706323862029685 6.371332464772871 -0.2792901946597383 -0.5828611162437124 1.2915324808167306
P 2.290701486770765 3.6301290333903724 9.765084193901805 0.9478785751689418 0.5589010058836891 0.97871073005845
P 7.363591580094952 8.49416619884296 8.11297719546968 -0.15501232381455884 -1.3382977619967273 -1.5487890927151973
P 0.8852067310616765 1.5668842919981425 7.482814986775205 -1.0157703539149088 -3.1704417063593398 -1.0065436931103182
P 5.136546187103003 4.863469398895916 6.002652304920657 -0.9892725647346963 -0.6589148619751813 0.8663784616109208
P 2.221812477894627 2.5080141363367696 12.746847476513219 -0.4306852334366841 -1.5293199282469918 -1.1525383868072991
P 5.808251874749129 6.8800910432094735 11.356362576007337 0.5811297353749024 0.454192829640321 -0.2669591838982112
P 8.67585149697783 0.13528457629089433 13.568122747016096 0.5753290695327252 0.3274209887286942 2.879313638524409
P 5.330703423932757 5.681526379300058 1.0982866809476954 0.34824923832795507 -0.622015932066303 -0.8111329108740547
Ni 2.202517877743741 5.816749447547312 1.8422359315422938 0.3273610820250362 -0.47897852122543316 0.718720264168588
Ni 6.595005992328784 4.360201123062326 4.580216341438087 0.3130233252461254 -1.1256461904021453 -0.3563584976986508
Ni 1.5885919000148816 5.280881908584836 4.135819779865761 -1.0563192218715485 -0.09277440092025958 -1.0422357471952888
Ni 0.20405908557810384 3.982645825651743 6.144916624748233 -3.657770142211365 0.3529026779395664 -3.7222683218947505
Ni 2.794840337991251 1.1289280957336603 1.002882027597405 0.6433566025256081 0.037563045855438536 -1.0829540508502575
Ni 6.976336937341232 9.407816141838687 1.1379073238274195 3.4305411870232403 -0.5825474416580354 -0.17802369710806762
Ni 6.813984090461026 9.27116419442381 10.003326611301906 -2.040084226524454 2.57056682916645 0.17529729931584007
Ni 9.30617646541855 2.380531618812136 13.209414460454221 -0.011206924459412957 0.9416462211059847 1.664401831686211
Ni 0.24659426344874139 3.442037435941059 11.039355796755387 0.7929431273389054 -0.5515093414053083 -0.7634798277724658
Ni 4.613680502288303 6.5576185645719685 7.308640293907504 -1.790662537289374 -1.1797563419829875 -0.2505720007894394
Ni 0.3110272511326031 3.8970455544575744 2.7071790741963655 1.740847156429144 -2.7109719445907956 -2.1511466271206245
Ni 6.424486769808453 4.299279771531477 10.522040976309746 1.935769171954447 2.8771397708015414 0.47480099280897575
Ni 7.762788246090662 2.649416397275799 9.06086630066548 0.5594725621164429 0.2503202897899495 -0.22971958282046243
Ni 2.9352584702320503 1.5099183808121053 5.887367305588516 -0.5442873697355723 0.7199734198493988 1.7939808030293296
Ni 7.012976805798431 7.481951981609065 2.7377589809386906 1.7246600051463201 -0.1033002401522479 1.4974127951257503
Ni 4.48379443967376 2.504162786527348 13.518872783335222 -0.21641232418859505 -0.4286268082457586 -0.6494951113231783
Ni 2.575748686547676 1.5468610580995288 8.868840080978433 0.05370905948768169 1.1230018108007627 -0.5994871548361675
Ni 3.654013079874352 3.278870790329623 7.368139390213891 -2.124805161012618 0.5019883518570453 -0.5551878186981599
Ni 2.985874858759312 7.245297418012451 4.217104078951632 -0.1568349788455944 0.7324124169437 -1.478541412142544
Ni 2.086371765800648 5.553078658629082 8.410054422304865 1.75107294792221 -0.44791239594824794 -1.8463397762470202
Ni 0.8893325013734892 0.5493065733588908 12.362918999504 1.6411678008589348 -0.6093288235169376 -0.7054618564967851
Ni 4.44878216867902 5.136451559343558 3.034724547017731 -0.40298519641825437 1.094821748822121 0.6114872646208372
Ni 1.5939667567513716 5.787187735496618 10.495172370292863 0.7134464173641584 -0.713201648343204 1.903670234537373
Ni 8.867851220892232 0.29888840215096707 8.705538117670992 -0.7323365694004419 -0.5860066038512295 -2.4228404974903435
P 0.13085031948329015 6.159879166071715 1.8231088225256264 -1.435104938225464 0.9236659824784803 -0.030454459835115293
P 8.31285941174587 2.007944278772429 1.7103447067051059 -2.284148765212679 1.2210158628534067 0.171148310144473
P 2.3506954862590503 2.7115016702478245 2.607253106499781 0.7070346003005435 0.4503500588554631 1.4313850661717153
P 5.59084459742368 1.3115123575832601 11.946554965389735 -0.5728700664692715 -0.8855074691308878 -0.37557569405704994
P 5.133811444855035 1.5659190888518009 7.716778336893195 -1.6008834994175913 -0.2210480231883935 2.3348825441221206
P 2.635420951653847 7.552033300254212 8.479773316631338 1.4411259476085632 -0.4732984401215203 -1.0872195109948308
P 8.722796328438616 6.37669028851266 5.712112909985544 -0.14997270450812233 -0.6721604141311779 -1.0470660787043968
P 1.5225606494739896 8.98179250604025 3.877231447907335 -0.6381370059978816 0.10834345900311018 -0.012467022118759174
Ni 4.418501285656541 3.121135778110345 1.9338933256185524 -1.289523677916818 -2.3243626184274033 0.2933633849233528
Ni 8.910376935986925 5.6483877379423335 11.480982603808751 -0.893103536310591 0.5221532568406942 -0.5726947172336717
Ni 0.6018533681788353 1.2207643362752705 5.024473800204027 2.713876005611468 1.073685481064138 1.4990834979599537
Ni 9.294395309367617 7.491443145881423 3.9017599094331366 0.9921915381537041 0.2735347802331999 -0.038721584939913956
Ni 3.1370616300249794 6.690031188363698 13.781255688447402 1.0952040718622043 -0.31576283566447555 0.37854069022264486
Ni 0.6658463367812766 1.0614963543529787 10.066094150419534 1.678246193768471 1.8265111715568674 2.687137046954727
Ni 0.4712661138668029 7.494480696959615 13.30334386703476 -0.12408529521839921 0.02884880591089225 -0.780465820807501
Ni 5.676312389754624 3.744997670580955 7.91336088319753 3.2833049076096743 0.8576333684284391 0.21886927036951984
Ni 4.187439222643142 9.049952881168661 5.524365757580612 0.8522175967295065 0.29286073425532144 -3.0675536140438457
Ni 3.828620221602718 6.109537198046844 11.441579604775752 -0.15080831303554026 1.1109705906678415 0.79752329051042
Ni 3.8133567640041997 3.7829150137906646 11.614992544179918 -0.6310500172441131 -0.6937525384796568 -0.7697697745462355
Ni 4.353236519967155 3.109259994299966 4.417828482286885 -0.5955947617602969 0.3727245977615 0.4431764239251594
Ni 8.583542117638993 5.137984529046571 13.662882039046968 1.5329480119178824 1.106612570809462 3.1932597326951195
Ni 6.375564218175262 3.8917842510324188 2.01769756193845 2.9942815448225724 1.5901303746661455 -0.48554717558188637
Ni 5.5034937126797745 7.427427466616714 9.125143152546258 0.4748405877976596 -0.4652370032696246 1.7482498766511183
Ni 5.8995392742859565 1.7869222210361704 5.8710799756328 0.4171239498124817 -0.025657295556788074 -1.803589272653371
Ni 2.157512915351583 8.54488667790561 10.093253263657914 -0.1361615096566429 1.3670897465277554 2.052896290687458
Ni 4.275660682773944 4.9601505807211215 9.408107595337778 -0.5219359986235657 -0.22278043249846793 -0.1392658596135795
Ni 8.025692550157386 7.350854683673623 9.9210591297954 -0.5459521590325048 -1.5131646586433682 -0.6513532475778395
Ni 8.409039066446017 5.2728953256876565 3.451366786744766 -1.6127375705426998 1.937311319630586 1.3153619791361604
Ni 9.4184239136725 5.6922382416692585 7.63100678945443 -0.7697168098211131 0.822126690881397 0.841303520920164
Ni 5.784585472111874 8.617778441006283 12.940425591455169 -0.6341800782326626 -0.024530381041196467 -0.5814740060881985
Ni 6.801701407285033 2.0833531402743444 13.657591401016385 0.5940423296715125 0.2673929290015202 1.242410783589415
Ni 5.372424803072165 2.5480416785821083 10.100109044829722 -1.5627545537563539 -3.334293482842399 -0.8701281584613402
P 8.000076815675557 4.85461224061184 9.030203121494845 -0.3233686730361915 -0.10858411425900652 -0.010988637801019784
P 6.057917755269464 9.235366513025673 3.692005179014023 -0.26652466746395387 -0.4724224652744703 0.42586184390611176
P 3.3773120484805115 8.593553734588301 1.2857177766360808 -0.024861796238686215 -0.5648243133466595 -1.2189988324233778
P 2.045483110944357 3.5450776032009865 5.464452191687855 1.9877303955130863 -1.0580742568894423 -0.45444711174297214
P 7.99267692488694 2.5565960280359588 5.235904388242916 -0.3578762198947578 0.20610194340152246 -0.9961723771783231
P 0.4561313500211304 7.557086422608589 10.812469656766309 -0.7271995052841927 0.9650933963853314 1.533475088065946
P 1.3458716970378286 5.445250326741226 13.22712877702237 0.5247138184790189 -0.13942398245799859 -0.15265925020135
P 7.7393678756279645 3.8313928149544636 12.448344209343194 -1.2577286448934082 -1.7786547141952207 -2.078665429231762
