# total energy = -381166.3952608565 ev
CRYSTAL
PRIMVEC
9.30198032946313 0.00000000000000 0.00000000000000
0.00000000000000 9.30198032946313 0.00000000000000
0.00000000000000 0.00000000000000 13.61438847074567
PRIMCOORD
 96 1
Ni 4.187872392871033 1.1606452722335656 3.9095078460490096 0.7265631572517744 0.2256508120677275 0.2034418800708561
Ni 3.7583069491748615 0.1091205990354139 0.5515906798047704 -0.6134353894861435 0.3138856732464207 -0.42353165311103835
Ni 7.497284383581412 0.918408686147176 2.5869383542151607 -0.7468489040840041 -5.511852024297649 0.8365526364987399
Ni 8.391325602506706 5.16032000254806 3.373863550829089 1.0413924253583873 1.3456606301197018 -0.48580120057422144
Ni 4.372339961384216 5.242865774470101 11.95955960992518 -1.9165674022150152 0.44098430136984695 -0.01815507364247196
Ni 5.52426927820974 7.947890906394965 1.0878368131409135 0.6454402245275142 0.8158346872250982 -1.080016051267856
Ni 8.730113021841012 2.7395819882118135 11.212211548289469 0.6108514308090511 -0.8943248103122018 -1.6330798816444776
Ni 0.4421091639392263 4.601215183171663 9.887966769829163 0.5199019989126724 -2.0178470123928087 -2.1746889332169386
Ni 8.35661991453723 2.653529369770209 3.352788054385121 0.654067304074893 1.7454874834146326 0.8815898792440365
Ni 1.4544111076031796 1.5346499884460374 9.900532814824599 -1.2000127782391785 -0.761746647131443 -0.29013305091151326
Ni 0.5338778491879178 2.8353644778986795 13.169075625512813 0.7420656237627478 0.9760761206490804 0.7320192952703394
Ni 7.4379377501734085 4.01059525501998 1.4062026652363593 0.46636905999153877 -0.18471987818132057 -0.5884468378616059
Ni 6.887567490165368 2.0670953326896244 12.405906756024386 0.11071093079402224 0.17467817767460242 1.2326807007858447
Ni 0.5327234734503108 3.225424411863849 6.728407819068039 -1.228559993749252 -0.9254716682286512 -0.19360535359640849
Ni 1.7614973785590415 4.616051841523663 8.017540413025962 0.23646770017757338 1.0089862411135397 -0.18514848107830695
Ni 8.374823889706425 5.088285468204553 7.501541899899726 -0.24337779703384538 -1.3399918618696987 -0.9380075959121329
Ni 2.5604723602696353 4.934542340153226 5.543888084560965 -1.4783904883869765 1.2878293209335305 0.38754443638315195
Ni 2.90529676472648 1.5742392159984606 7.995906797772515 -0.2555082617487922 0.548883473746687 -1.3086624556287978
Ni 8.522613750456635 8.54791513648638 10.386430120159565 -0.42296729596713606 -0.10519462896148335 -0.7659424303803455
Ni 0.4844443360342894 5.347513051247535 0.7237517285689267 -0.9970524657904313 0.6128774601001445 -0.9182358126018444
Ni 7.816872515869617 9.010437495882325 0.10563979806029249 -0.6247886097154337 2.0105201397140924 -0.35336573361891405
Ni 0.4443016406624655 6.79081759454207 8.524145786588658 1.527270501917131 0.5507668068123289 -0.3795534477578753
Ni 0.2033859357585111 0.21670265055269555 3.4612128653047174 0.41336191166688807 -0.2389393016465175 0.1375254798837051
Ni 7.578751125805124 2.53123623663306 7.115968310964756 -0.3948759370475587 -1.162498069123172 1.6291648628607878
P 8.094006410716737 1.8590844523965586 0.9487173280959684 1.0839598664069525 1.5592326566460244 -2.4171503890841017
Ni 8.849810902514081 0.19481137044887206 7.714783283635632 -0.39757045316058626 -0.2945916009034991 -0.2512944807777608
P 6.38730699726844 4.086080824002103 13.096878306516542 -0.11987665645369032 0.76328828058695 -0.8686325477524202
Ni 1.3847299742396453 5.831392757086234 2.787314169194545 0.6062391288480206 -0.5028221606122502 0.25989122130783626
P 5.867242588615143 0.27596091514919746 8.295627760839277 -0.7706028119704922 -0.24315719638260705 0.06012139077192872
P 2.283133821859039 4.188988630489992 12.221322912759229 -0.19496083918303844 -0.23523125666731104 -0.19858763730234832
P 0.010038696986507317 6.494037917601265 10.557019134277022 0.6527652974340177 2.786775264874356 1.745170466394846
Ni 2.7637950425630726 1.4713500134708872 12.121420576060386 -1.206112206268697 0.7801883987763982 0.1981047841286588
Ni 1.2530976530238698 7.556658922929888 4.286135720666036 0.4244793617362883 1.1231146822295432 -0.9936835493181982
Ni 0.422480125409827 0.5481331337800439 11.928790519958566 -0.21626397153618884 0.5240065079993492 1.0024870065424412
Ni 4.085262249748199 1.2574974896386009 9.862058894693119 -0.5616335743235037 -2.37958554345645 1.8141158832163082
Ni 3.340694549981713 3.662012850579306 3.6390713769156453 0.09509353597173946 -1.5528771467416418 -0.5240499596427749
Ni 2.1407205056401484 6.421454566428436 12.795101605834864 0.21442383300365653 0.13927331581274724 0.004124563691334833
Ni 0.8344555246272312 3.5177763462494482 1.9696617415247142 0.2614446818378852 -0.7884814920231259 0.2796100398930023
Ni 7.299756834926406 0.874672635840319 5.002062623526058 -0.07961240961700482 1.637652588616825 0.580538895868439
Ni 0.14214355879430904 6.057458780865967 5.478920264543487 -0.8873357805888782 -2.1629927278259333 -0.0035018425056713887
Ni 8.065588861334067 8.039580524812315 4.82956763367423 1.1956894682734762 0.4141350423874868 -0.31935312411889516
Ni 7.107112825854346 3.749563087826347 9.872501297618482 -0.5535135163195306 -0.49752543098968505 -0.7580920810979911
Ni 4.707313568853744 2.7749388147923493 13.530714289303248 -0.05560293407628489 -0.07296405106255176 -2.3513008375791444
Ni 0.36738077614196424 7.747182080525925 1.3363271204875227 0.21598937771856352 0.13816902700497494 0.7687053378374632
Ni 9.184012445630497 7.438570284824153 12.648011253992534 0.9654872893896405 -0.3640265557668698 -1.4146173597950733
Ni 6.121847087519603 6.52949706596354 7.483679307402329 1.2013263548442794 0.6076753470739147 0.5525645221427
Ni 0.8793533922558217 1.0565003023846626 1.0401911405736515 0.15288293617638185 -1.1263825543475374 0.3816594383572846
Ni 5.5641282631867455 6.417584942682711 3.0484654017342 -0.8284595750779603 2.2386998888512606 -1.3736645715317954
Ni 4.861707835516132 0.7717192496496552 12.066350993129031 2.026600333105407 -0.922841686804972 0.017672991799730853
Ni 6.168217458607204 7.746782095379132 9.953519684398579 0.3242999266012092 2.0786826556229427 0.7511632151886418
Ni 9.238177876090496 5.001684032933627 11.97374512966612 -0.28155507943451513 -0.5510313733276252 3.1472752955452057
Ni 7.643474303744448 5.948402365493643 9.420244603524901 -0.8955982777079866 0.7137904309671385 0.7053284162427144
Ni 5.6812029854552595 8.543282750367698 6.209209424767452 -0.11227570417798084 0.45616383732376276 0.18320601263995545
Ni 2.888869467767462 4.702606766893799 0.9633586448646513 -0.35141272365760123 0.2748673830016944 -0.49538010251190817
Ni 4.804333221901623 5.179016982665628 5.0340698070517 -0.599656076313864 0.07230533443263032 2.01507484896431
Ni 3.100796481707043 5.804965831457372 9.93776864139705 -1.7291995448878863 0.505147209201001 0.23823816181443488
P 8.38653508272534 7.249721483656555 6.96137684232302 -1.1449855141607055 0.5568266398531636 -0.6690002712356413
Ni 3.8452339537513174 5.860452143099808 7.465463239658929 0.02024563762291352 0.5247870949191156 -0.09315492418812989
P 0.5507646639667405 1.3141558507809437 5.329842079541393 -1.4270478722489424 1.514705520767927 0.09416202529640558
Ni 6.496149467097131 6.125130686515374 11.93675487536984 0.9368176893690898 -1.1054267780314768 -1.3297221045125744
P 3.448523103973182 5.6686825201626005 3.527011352150305 -0.4993581133230496 2.6428698496062353 -1.1850330170008947
P 3.584313410319581 3.7645392758807175 7.338549812977305 0.9750705622027014 -0.9342833529830105 0.3668010331882134
P 1.9497880609171596 8.686979739848393 13.022801987528355 0.3063896219796917 0.045388969657760535 0.02125042473834405
Ni 1.8012540417543088 8.727461957495983 8.071113307349899 0.35005312430591323 0.9205387497034083 1.3961465546843956
Ni 2.416580029205624 8.747498422756303 2.4961166105465526 -1.1848887781135466 2.5359191571855937 1.0918030166004553
Ni 3.773999389701398 7.9222639510596915 11.419014101360009 1.8823205652170034 -0.3634614272920192 0.895195385842613
Ni 2.373763014538376 0.3017469343451732 5.4722349314039365 0.44663224368424376 -0.5893233269292882 -0.301335604495552
Ni 0.8268381330758497 3.6999742316040805 4.398236674144071 0.0707169068995879 0.09520717873146828 0.15800277390145046
Ni 3.0477751948064764 2.3608425640989226 1.2998884736146121 -0.9664378262283678 -0.6675242009107472 0.9861005947646178
Ni 5.598806045215748 8.773590477099477 3.215091772304349 1.3167056376482484 0.4635752992964855 0.3901304519427733
Ni 4.959369325194912 3.8361366171567988 1.9200914892627632 -1.2523131303047916 1.8070304371244363 0.16400141468704657
Ni 5.809337762131631 1.9090546898053031 1.812415487745886 -1.2500276767047247 -1.3341009503065604 -0.5545771816973546
Ni 4.097075764548852 7.79330129814926 8.888071807299943 -0.5072480575940876 1.1102707363873394 -0.5027488841721536
Ni 2.869502745078518 3.406971158607422 9.955807041319432 -0.6212633701709945 0.24827009212914017 0.16766138003713704
Ni 5.1020151909177525 2.6991183745245384 8.582197584358667 0.5131384549365937 0.6636390069237281 -0.4035217856480147
Ni 6.561319140084037 1.300658677571694 10.050032379527849 1.023463351683792 -0.161568893986154 0.07989497385443015
Ni 5.059793502980617 1.6928394630128867 6.282658790292991 -0.02749100633141717 -0.035834236089789896 0.44176977338561985
Ni 1.7196570718083837 8.125084326424597 10.644953543304586 -1.3028720741992659 -0.08923810563222695 -0.7488433088062136
Ni 3.8262765181893252 7.838081030629844 4.415404408723665 -0.3624638392654403 -0.6995318641655952 0.688264261671576
Ni 4.885632528482493 3.273655178983049 11.023447395141307 1.5713448665285261 -1.317848235893124 0.2559875153780559
Ni 2.0953733523699265 1.751469843948724 3.360290101382544 -2.0398793096024996 -0.30680614069182 0.12101385538192708
Ni 3.504614044325886 7.1358001326616 1.773872732961237 0.3768026244856155 -2.5832043154248026 -0.5612610214754334
Ni 7.3668055079052275 6.815421332059965 0.3853596433913354 1.1202378749023805 -1.735121566799276 1.321057743969357
Ni 6.259460581976969 4.5338781488079425 3.5764997469868653 1.8220292245261136 -3.2700156466999357 0.011675636565715375
Ni 5.817560712591297 4.221089764015231 6.999402407010884 0.13784198268285938 0.43069988872470333 -0.001741665281455065
Ni 1.9601690707734811 7.133335107919732 6.4172779773374975 0.17516720149587897 -0.8403948930629656 0.30379897843438003
Ni 6.65252505553317 6.45251387817598 5.266821163970983 0.37186584930563055 -1.0431250917787778 -0.14485672343779568
Ni 5.316258397916675 5.70680203485006 9.49890865912701 -0.12023172580026391 -1.848356806677049 0.7898369776097559
P 3.560193375769902 8.443091122085944 6.815376682555206 1.0162879169812757 -0.09391571361355437 0.3171206352439506
Ni 5.235433492323864 5.639418490585551 0.4970652627126559 -0.23296714322348264 0.46280525389968036 0.3789137572913474
P 7.813374971330211 7.713304268790511 2.6156098476561462 -0.38479258466962757 0.05059005424272578 -0.4076224380799495
Ni 2.615233117459747 2.653510765809893 5.835957238749762 0.5108013221629849 -1.1878517173966123 -1.3217223741365496
P 6.113996216266255 8.172803484635107 12.212705558340863 -0.0985832942925528 1.3932293810376006 0.7541379815462496
P 8.65480419048189 2.0062789864166586 8.980553954426753 0.1912003436993417 0.4652264617466634 0.8091395345931097
P 5.77376699000746 2.6275861471095636 4.488758894051592 0.5383810315534663 -0.37296859545150607 -0.23924012071638795
Ni 7.601578185112842 3.8923577852317157 5.369024810560913 0.5978213370979704 0.6141298444500068 -0.5793747003570087
