# total energy = -340867.1867245013 ev
CRYSTAL
PRIMVEC
9.29536744294181 0.00000000000000 0.00000000000000

0.00000000000000 9.29536744294181 0.00000000000000

0.00000000000000 0.00000000000000 13.60470984288817

PRIMCOORD
 96 1
Ni 3.162126022526928 1.5857897056675199 0.9166961352130297 0.0007404777104503377 0.29605018772689656 -0.050963892642376746
Ni 8.547183424726501 1.0526724900218618 10.701628395293536 -0.8823380702639707 -0.17504635964729853 0.002678061052795388
Ni 7.1002107381940265 5.887769470557784 11.21802231516272 1.3211755004941441 -0.677585441801491 -0.5372895982615006
Ni 4.993833972351188 6.537841000838312 8.132201964932538 -1.142816788644161 -1.175546160556382 -0.49878450020776677
Ni 5.788978304134371 2.521136066352128 8.247134537123195 -2.5774563571974323 -1.233650778008598 0.570076048663902
Ni 8.392926800074964 4.692078455263939 13.775720780273774 1.57629963943064 0.5661713142928572 -0.5769918019471288
Ni 4.043271094971517 0.5868760443898405 7.497188000561804 -0.24086968590001095 2.2203681804216084 -0.02088378542754468
Ni 2.9668768269375594 7.332994627989055 7.3601482557041535 -1.2415234958884553 0.9181617648307995 -0.25277723597087437
Ni 3.3334582373854493 4.493771083747462 1.7244923917815822 -1.676976840137744 0.045935843300166056 -0.7194219182213029
Ni 5.585019349141659 4.472335966155028 1.5170476739540204 1.6700731710393752 -0.5069564944955979 0.2963582058856186
Ni 5.830240440731429 1.4440725318538796 2.9735676325069584 -0.03380280748205791 -2.8056034533244523 -0.9492646568831911
Ni 4.891529156990245 7.955672710071445 11.053241475360204 0.42900733151362885 0.9410592382542632 0.290422557127474
Ni 6.894169620867964 6.466908050991016 0.08535471261601407 0.7681936883083672 0.9025320287133424 0.9089137638699701
Ni 6.592850986056016 7.20458842052076 9.46328651548923 0.9282960250513239 0.7429325997487335 0.6060105577769821
Ni 6.181791241835447 7.87081529961987 3.8126251397151965 2.1019434259230962 -1.079955630343566 0.5265182186776094
Ni 8.808624932707772 7.755571332615966 11.046426111865507 0.6264857949121985 -0.30237998659966636 -2.1415684965138855
Ni 0.2438472362644618 8.499488893778201 6.264315515029564 0.3678556997049729 0.3515852446797235 2.2998072976855424
Ni -0.007056113514491291 5.455116587496269 3.2482336599152695 0.7199227691171215 0.6957163470742469 -0.14521642077005958
Ni 7.200126644092152 3.843997005228842 7.424593968531607 1.8613401063105943 1.6245589886576604 -1.8213802780882051
Ni 2.083584524586703 0.042242797874595804 8.645888144231611 -0.5253740777708371 0.45419565785379845 1.3539578371314873
Ni 1.4971026037813897 1.5545758614023877 10.772944314284288 0.7380163933940387 -0.008139341277682757 0.38174994118856187
Ni 3.2098298488427877 0.4620215968660682 12.343825179922968 -0.0016755879302100176 -0.9965636990794708 -0.38541299186244593
Ni 2.874564531703186 6.92344073331314 4.885600571560734 0.5159113896960404 -0.19580621790246924 -0.11584233848331661
Ni 7.704456106405733 1.148656455442277 7.4919909605592325 0.7463053728757082 0.1262285668136471 1.0148121037666973
P 3.760143494473703 2.9977188565003074 6.824952595872169 0.22163654870201183 -0.0621996134571961 -0.31358845372097605
P 1.5875372347687242 5.623948348481258 8.823144296835864 -0.6807394140494406 -2.432053274337863 -1.7145157176234664
P 0.3840297448940122 1.6074386167138248 8.865114740440964 -0.047639713365150216 -0.6320206086874985 -0.8275100666804974
P 7.885278891542605 3.067573543710691 1.3065912570371487 -0.44850374967534373 -2.0337994219570072 -0.17282158408183784
P 1.4916369276563457 1.0641615643255256 3.0941462109533155 -1.17754596459523 0.7918619784595847 -0.8063390890298372
P 6.048058788755503 4.8477851572547745 9.080844419374396 0.13079356047651022 -0.31225096585647516 0.01577628899765025
P 4.977827349413559 6.866664628259112 5.84020228614505 -0.43041321072222005 -0.777758449178667 -0.5738337159341215
P 2.3135426226436127 -0.37161764059168023 5.680306161995103 1.1203880273269995 1.1437691252551012 0.8919617093966639
Ni 3.1137808158494558 7.17655359196101 12.755368283256637 0.15807347923838583 0.4435680029366232 -0.21893663327234553
Ni 6.501338092431768 0.24038471184851132 9.530085815382773 -0.5868928631109247 0.5227291839488223 0.5110887714964165
Ni 4.667557275641718 8.991399745032158 5.472916286836144 -0.7391705616031399 -0.8870015371779112 -0.9291825414213352
Ni 2.9325025577021635 6.61918476235236 10.125441094060479 -0.7344453882133287 1.6471039638377116 -0.05223941692069067
Ni 6.9299381952373 6.39825246619582 6.60688234338723 0.5689805016068782 -0.010281584431666163 0.5323456239926638
Ni 1.939943209688226 3.0321396025735012 5.388743944973711 0.4812189805201777 0.7153060962807165 0.5373741875555068
Ni 5.985231399420176 8.591689644601859 7.297090341253349 0.16752845400369856 -0.6606963793556363 1.7330338310323121
Ni 0.5055248465817456 3.8489049593003104 7.388500056297686 -0.10412736403923357 0.30872418365013926 0.05251092541452247
Ni 2.137432588859458 6.637617476223044 2.387177735840485 0.2547490149852645 -1.3583850196649057 0.8491479566652473
Ni 0.8986352360447296 2.856661653783399 1.0170461347761883 0.024324178567661333 1.7330145477586023 -0.36413839875438575
Ni 6.0871272186084955 4.775550855949134 5.007594834486417 2.1861424264695186 0.6271241998271457 1.9153906082980947
Ni 3.5410516810939647 0.966244162452714 3.9230680493745678 -0.8562624562228416 0.8115373454013249 0.4104930747595253
Ni 5.686459695319558 2.0015807919759245 0.6229160434919163 -0.01819698262400092 -0.161164973679516 -0.41755692358484214
Ni 7.791730312422805 2.0735548229898964 12.939806966374192 0.21572198298978978 -0.1859396095210346 -0.1554255000925775
Ni 4.2464120576189845 4.918095317475578 10.805187155738269 3.0211570290571776 -0.6767809436223248 1.3190905929406573
Ni 0.6556487508162867 7.504884564901151 8.822545675165026 0.26335783970019805 0.2378638091941516 0.14524650267704664
Ni 2.381789211266186 2.6149913926013952 8.486849052970658 -0.8648715380480911 -0.3488830152572121 -0.3960786991064082
Ni 8.653466657402952 3.358750932515117 9.4264582692181 -0.2359336820509743 0.18803737259032777 0.730515457031303
Ni 8.283129918460984 5.695541269425285 8.723286022216609 0.5454993877658025 -0.1820130207731188 -0.1372791682008539
Ni 0.5745169236825983 7.424553998451101 13.092451774290895 0.5514327225311019 1.9592212323298 1.5439716167218958
Ni 3.7252393892874105 1.8322563765102766 10.126638337402154 1.6214685226577947 -1.0501424036368754 -0.4952993698726437
Ni 8.206275819478224 0.42633389219450135 3.2825447206512597 0.22901844298837976 -1.310848150426207 -0.6491225584751079
Ni 5.633057808689664 2.0689722067830143 5.676578719603705 -2.0455344510057483 0.13254653861187496 2.5795847163943444
Ni 2.112344391816101 8.825588978504038 1.7875363631810477 0.013347110730867334 0.3716470484266051 -2.003352161210743
P 7.124406579951662 1.9448418683921347 4.359941958844898 3.564328540020752 1.3680701081631537 0.16560012663273416
P 4.292944667622335 2.6261458336729135 2.467418137225208 0.34751184594129825 1.4757597356323486 -1.8356064489899162
P 1.6443412259254313 8.218015868705997 11.25856406077391 0.14813873662317711 0.6246029760671887 0.3663611174373174
P 1.9167698583621469 5.006680170318553 4.072134140780826 0.9733839185288978 0.028678341771298996 0.7869611987238576
P 5.330716683446161 0.9313307618988618 12.028767991857935 1.28910381677058 -0.3344159319892886 -0.7703696129137636
P 8.486837898529588 9.264339622684652 0.5418827472543595 -0.10665758666025502 -0.08288593816195403 -0.8481920205098811
P 8.358143534666945 4.516172919566095 5.064189679873034 -0.4512985388116615 -0.48588347587538255 0.7274463311876763
P 7.332576336448873 6.183845518066119 2.210493248341147 -1.2288037343289417 0.5250822575620312 0.5654544907314907
Ni 4.089859477180225 8.185417014674483 3.152306396236968 -0.5471546639810383 -0.129729380878054 -0.9829445656341395
Ni 4.431157487866007 3.579106915882961 4.393641384395466 -2.4212628685905786 -0.7479812179162344 -0.2634216030585979
Ni 3.6520755512258103 4.471945560717526 8.669016877793403 0.7079015762865293 0.3403824339853686 -1.3946897676332108
Ni 1.167061283210282 8.425349042122843 3.892674986064948 -1.1172106580402823 -0.8676323886226801 0.3334178297420774
Ni 7.2607324405807345 8.664267874507205 12.225464476176333 -1.9271042971905974 1.332824911807614 1.3632089234161102
Ni 7.431135118683296 4.11452008731584 3.0700795748047587 -1.6458675203274493 0.04423197323518189 0.8037613010003318
Ni 8.766331010311598 2.3887049647305267 5.683517711486945 -0.26485884972575674 0.9407903008635926 -0.43935833573064975
Ni 6.176994832174695 4.226334063690252 12.769408006418654 -0.5308237880314988 -1.1925524653063913 -0.3160798526842621
Ni 6.577838967447265 8.46361807036571 1.4433103117139925 -0.30984209930466633 0.5746757522194424 -0.20179097473099442
Ni 0.9804010072459827 1.0672383309877527 13.187943085230652 -1.075689398868044 -2.1034812027238607 -0.3349890308839392
Ni 2.015923544120385 4.096180327120752 10.529678038492301 -0.7539541476702176 -0.4589843374916934 -0.8387486157087941
Ni 2.382216798173927 5.20938425069072 6.496072266709256 0.1914055177316123 -0.9685646427633834 0.26226409241538706
Ni 4.738889926294078 5.858656379361122 3.589003693723666 -0.42256183299860134 0.5724916000839302 -0.6453821175960691
Ni 7.026684380797602 0.12193570211005837 5.521172257985043 1.287330526920241 0.012195770735243514 -0.9865883330343138
Ni 2.7257456970740126 4.795656735980546 12.624817634492342 0.4506876447005399 1.2589833432361157 1.3349221606562753
Ni 0.4155698565604862 5.649055136259734 11.883264814837268 -0.3910190251953137 -2.2085375063352677 -1.3502204815762424
Ni 6.421137661127552 2.482959991784857 10.512440708889782 -0.7210846506357066 -0.04930373133113444 1.1966616023787584
Ni 9.240933887169582 2.575411717532624 3.084799718872139 -0.6238632696876868 0.36727822993494813 1.4541928080948503
Ni 4.138502135619604 2.746093256661974 12.15228483598988 0.05703426720617274 0.9715923738461137 1.090169080541458
Ni 9.093983421419889 7.511224005576798 1.6947658063259858 -0.2943283199397834 -0.17149052397524014 0.911556857919772
Ni 4.354823929466583 6.400436877572326 1.1621579768225938 0.8422900532031494 2.2616014760397825 -0.8587412567806372
Ni 9.224192930194745 6.026642261898187 6.268097800089564 0.8868925224038726 0.33974634306326645 0.12032994194102502
Ni 2.366656352879159 2.999196819942284 3.142810248738082 -1.2375809663009396 0.1515865859624615 0.037049596554129746
Ni 1.2251294443550944 1.3548370032817332 6.795715876286964 0.30990920509717595 -0.9231247652630294 0.3210446528887052
P 7.910645949612749 3.795679684654049 11.409535702529887 0.7922556143535775 0.4718727634185873 1.2327462639164575
P 8.027228449545236 8.114270271373316 8.141806868231871 -0.3397201178110214 0.28116607152621254 -0.26589346163785815
P 1.9550295912374547 2.8966503250247917 12.708377411632599 0.3792030063969921 -1.5617279122640522 -0.8235999329928139
P 4.266155418315572 8.759303712436541 1.0647016251807384 -0.08062285315939019 -0.012664997062178187 -0.8206069118027609
P 8.409742119990277 7.959409447830403 4.686468700941721 -1.3354284108687322 -1.3109047146957553 -2.0042361064775935
P 5.372675972610189 6.209686639881803 12.348655052906937 -3.4152945452768146 0.5217719622418756 0.20960378590719383
P 4.046264203325707 8.417011097421883 9.071116817223276 0.9772431443739881 -0.14544113518635596 0.34161373528930844
P 1.3982277790499393 5.435512657313075 0.7954129679056552 -0.8158812241923175 0.009823156738008888 -1.2187239814954367
