# total energy = -340893.4052481004 ev
CRYSTAL
PRIMVEC
9.04490380980808 0.00000000000000 0.00000000000000

0.00000000000000 9.04490380980808 0.00000000000000

0.00000000000000 0.00000000000000 13.23813099854551

PRIMCOORD
 96 1
Ni 6.3270096694915905 1.8859076571166773 11.218071222361361 -0.2227531788049583 0.12127302258058471 2.2705617705568635
Ni 4.668707970427162 0.4361832475879527 6.0862569438336775 0.4730608701894176 -0.4155833447982391 -0.4358796331534299
Ni 2.702418253653421 1.55836455749237 4.749696038635707 1.2567174300200745 0.7153796298311292 0.16094360169732927
Ni 3.57442837962144 4.575672090418998 4.944349603333324 0.47344062212633947 -0.3312010245964167 -0.3424750548483392
Ni 5.195383671087803 4.517232967267846 2.648936642249545 0.3867599928086436 0.6216495498658198 0.27141310590450674
Ni 7.301236252777541 6.222052606336358 2.745084873639277 -0.11540653649747866 -0.10309300923744825 -1.1407560494603903
Ni 4.953504854912583 4.250842461920731 11.777793383375672 0.7211088190054226 0.38750869804921007 -0.039069712307952066
Ni 5.515482814923007 7.806113735392327 12.395709550649412 0.12986282113212474 0.5641779380119123 -0.0882176347875126
Ni 1.954648925643028 6.167159085456565 0.4739267264607959 0.6894346278305933 1.5042354744745383 -0.4951556452059278
Ni 2.626739543948161 1.4480529113150837 0.09840222140509564 0.02516698618393085 -0.28407064676751725 0.9230692294347457
Ni 0.7033208619851049 -0.009152538108133454 4.691501127885899 -0.06869422004260427 0.6361436297169367 0.055653070587929954
Ni 8.607238950644424 2.1017371504819113 1.3712978580631612 0.6560221138084186 0.7770534526918423 0.3379936220382179
Ni 6.9359759045012765 0.800811357091851 4.905878914198702 -0.22814632479607158 -0.3166825192652675 -0.05683654937306986
Ni 0.5555723591722183 7.464017385628691 2.3297121406073016 0.4908328494608579 -0.16349413603332488 0.6514175251568717
Ni 7.611865382382866 4.071292077510654 3.808570185125944 0.6894042888132901 -0.7895109617289048 0.33562229359256396
Ni 7.433852631610878 3.7528571959660875 12.57108842544839 0.6377855361957339 0.4060309252231137 0.127196072933239
Ni 8.2029588875757 8.86566994068849 7.0109672015212725 -1.5055971307087554 0.7893633804074469 -1.346363055503365
Ni 6.752680929937264 0.6134923048479207 0.38867941307474296 0.47172466787649725 -0.7164556365041274 -0.3046867803559721
Ni 1.9652857324571054 6.360240645881828 9.132470180175636 -0.7171282370911198 0.13383003330998888 0.4317661252056887
Ni 0.11277909592123175 4.8235657675902734 1.409848142350814 0.1911977725961804 -0.9515781355077162 1.4219439753634737
Ni 6.308268628914407 2.17775052162605 7.2069838332145375 0.5308680110058729 -1.2576250294360083 -0.7573606022486054
Ni 3.7201779587048107 4.265205769081237 0.6680846304327227 -0.6146746612098833 0.31442303380712944 -0.7402049164049253
Ni 5.990032735252417 5.655425565796651 4.90560123565347 -0.14795773096062262 0.11307557437145688 -0.67276462337408
Ni 5.278189764950795 2.742116336227389 9.373271748313817 -0.9348016873803257 0.29580079072025184 -0.017035101105415822
P 0.3120048594662262 5.313293036418002 12.625351516536567 -0.9492620857800297 1.4896591193222601 -2.1955112692789287
P 4.038133460350442 6.149946633613716 12.587040017708006 -0.9381104400385845 -1.1825845554604022 0.048477378775097155
P 2.385267748441848 8.392992315436047 1.3929821103217235 0.30130063749255853 -0.21183216101708036 -0.21290662502818172
P 6.496203639103948 7.742708960080522 5.82762425243591 -0.44430976619865414 0.19776334162884004 0.3589452845892205
P 4.743871120618474 1.1689633610981 12.622981751753159 -1.1095523701640762 -1.55373332409435 -1.3116835018433086
P 4.0424659692483536 6.079848629524347 8.103377210721153 0.559766696318094 0.42319638125880665 0.9343453165691972
P 4.955069623261934 1.1056580797275832 3.635389221939058 -0.8056466909485029 0.7052212012408886 1.2958264802063941
P 0.32529272757044486 5.643124496691936 3.64987192182911 0.34404548465925266 -0.6637647338683149 -0.4175589804673712
Ni 1.7572077216085926 1.0761355138762663 2.6038740272593963 -1.2813449987607675 0.31349666533811815 -0.9786762772760887
Ni 2.0178094885534894 6.6166274876776106 4.722637304566835 -0.21362627680302565 0.18518293386066817 -0.5046260465902084
Ni 5.961288031123898 5.853309970115006 9.338283347124282 -0.2607751665746864 -0.9680110842527585 0.03637802440840187
Ni 8.4449191078847 2.4042439565166216 10.224841296289377 1.2177086528570447 1.1448903833437378 0.254206255107917
Ni 2.3779051967865255 5.344154248024831 6.989442139568772 -0.08792401480649373 -0.48296990177301335 -0.6915827845218476
Ni 0.7576852559953194 8.909591993315326 8.672339645410004 0.2930653940669598 1.0066856180048211 2.506467170473064
Ni 1.0768410163690367 0.8689945550566127 11.315967833646638 0.6222023370454962 0.19002920620937597 -0.19200047100313386
Ni 4.114291549954636 6.76034196341645 1.570492868935394 -0.271665588234945 0.9176202905050326 -0.06872147373611391
Ni 5.774926834187459 7.916479650992134 8.060989173770905 -1.155202049682391 0.9571839117302677 -1.0422964252298952
Ni 5.241838296765611 2.8618708619232947 4.992377137773859 0.26730216905992676 -0.06395799090919953 -0.42191648610511856
Ni 1.074697374179465 7.518594334877112 6.9266668895582075 -0.42641411686515596 -1.0897998701274973 -1.5357821389325679
Ni 5.234249622516451 4.291571663522594 7.558112423866386 0.002510168016363419 1.505298368521414 -0.6682381962586362
Ni 8.101728324766896 7.427412660138409 8.962664775069545 -0.22117297880203202 -0.9197321946417127 0.6872792720504873
Ni 4.527535112643045 0.2712982701237471 10.502153522918803 -0.07923291479039903 0.20273199848802503 -0.5425685872722527
Ni 8.349866214339514 7.208914920165903 4.7364307827908725 -0.5784231350770167 0.13913344780077327 0.921911975901851
Ni 7.085696196332418 5.893912543064321 7.055645408101899 0.9443453652047027 1.6231140286810175 0.1235564192981227
Ni 2.3065409061716693 5.12042855368282 2.5325205905290447 0.30619653213227915 -0.14127954760949862 1.305959711985654
Ni 2.176511369811825 5.1260183042024625 11.36935718703223 -0.5925606029196633 0.6034404830569609 2.200222558711669
Ni 1.0975267112532163 3.225385543775141 3.751170321416066 -0.23760849865023592 0.48889835144230637 -0.2950896235858402
Ni 3.7345955352878373 2.632853898885505 2.514225463706906 0.545220423072803 -0.26150921652723347 0.725370422495254
Ni 0.9924972888679552 3.5797015585097114 7.931175810610767 0.25158270144214095 -0.40329475723887315 0.4894701647853763
Ni 3.649365407218916 2.7758990517465887 7.143030936735272 -0.5897861254983197 -0.4457174451794582 -0.22244104688117822
Ni 4.1193838307678385 6.871024450647629 5.975679377486039 0.6177504719217296 0.9989285997672216 0.28623217319521027
Ni 0.5685463691161916 7.1850544640642555 11.458754302260372 1.3703542762116399 0.40109389293281245 -0.517061958360716
P 0.18180889687731802 5.792446812757926 7.95468713342753 -0.3349432652476683 -1.0115858835199159 -0.25525063721203134
P 8.622416299142742 1.7861604585234412 8.069620725422837 -0.1014773280108962 -0.4753424671347427 -0.5045615119008601
P 1.6947164815758877 3.3346298913095174 10.154665506027726 -0.37669515237347384 -0.558446949065406 -0.1734180800152562
P 4.138522847110175 6.252986177173215 3.690234804828957 -0.7096288433902811 -0.31219517291787524 0.4177762386844998
P 6.7137516641823405 4.124693189271124 10.54426388132382 0.7022603188403519 0.001496896260500648 -1.3173712962567055
P 6.312365970314727 7.794861875123014 10.192420743275449 -0.5752876747718286 0.5049127245926918 0.8610421369996719
P 2.6316961512050616 8.651694652592715 5.741946401631192 -0.7019990947591652 -0.572123418111234 0.3500037591252166
P 7.133245255364396 4.1617501599490785 1.5425866273848217 -1.3918615541557964 -0.4486271626270854 0.7614504560472628
Ni 5.564099172597893 2.724523998426895 0.4387818484363238 -0.6043825352552559 1.3303170577840961 0.08691948480137933
Ni 1.5517617777523387 1.2785152353600948 6.970153882314503 -0.09031848318059929 0.08000193174593964 -1.019865607030205
Ni 6.9735846143081925 0.8962197153545489 9.209000015324097 -0.5908091674461955 -1.7067874957412734 -0.882844577586744
Ni 2.5182821030403364 1.517345918970396 9.14409288149884 0.6024068995861238 0.08087507837951233 0.8246520284064122
Ni 6.3653691063100455 2.233268140864831 2.515310852157322 1.1396162794289921 -0.3592959830604199 1.0221541459540655
Ni 3.878572313235528 6.8435279432370875 10.533447985415425 1.14496263134257 0.27139382263079714 -0.7185364302925561
Ni 8.184570598244902 7.025221969836736 0.2158900942203824 -0.6930292871603871 0.3897167614441224 1.0485830295695555
Ni 7.610978981815026 3.930625734336732 8.318060714780822 0.016550705269829557 -0.4434361053444492 0.6795942447014037
Ni 2.960098516685948 8.16575719843769 12.31478479676714 -0.37030390413514935 0.48347409510294154 0.9933480203556505
Ni 0.10892234896075334 4.898502795187748 10.080955871869595 -0.3630865604511037 -0.09135515197522977 -0.14608391097667744
Ni 8.609997646289232 2.4556823241625896 5.849267802627582 -0.011544510304489795 -0.28050529801376206 -0.009383755207745129
Ni 3.299110554269652 2.690171453971227 11.409931720779909 0.047415256059169957 -0.9983503586662482 0.038113776152585974
Ni 0.7315644784456816 3.2538136762722885 12.483557273864587 1.6630286054877683 -1.272054831708093 -0.02197907537425247
Ni 3.0574578606882694 8.233313584572336 8.020056461834589 1.7489587297926845 0.7229960087258065 0.05144211783037592
Ni 5.493684596877151 8.087229344050089 3.7312860050044434 2.3868985321780958 -1.7602790399015105 0.4157327258919098
Ni 3.3435843460254504 8.561842578705772 3.572534376775464 -2.030102432721394 -0.742362071957244 -0.3907495735840109
Ni 3.620738286839192 4.530302853191606 9.837704943794975 1.0706610924155175 -0.5676260444615127 -3.068882617267915
Ni 7.460652681432401 6.146907545952551 11.349155394498862 -0.9266137522528946 -0.4226425656378656 -0.02934425749007204
Ni 0.538106650024273 8.980368365186205 0.41539805876248503 -0.3538879246709712 0.2910712464550665 -0.6787732914620052
Ni 4.675283615455933 0.32483776891164545 1.5402566601779284 -0.7920041604644038 -0.36537201405117076 -0.2864365758965325
Ni 6.017701095834273 5.623062900166746 0.30125499135523043 0.13956153647712738 0.23827107193489933 0.5461946140606142
Ni 7.868885367441389 8.804526391315049 11.339571414481687 -0.08803817178685483 -0.29311835879208226 0.14579311920913599
Ni 0.1887065404797121 4.827066145342865 5.757845533449037 0.02030760120910051 0.6335311317947541 0.18241077043216972
Ni 7.552702666931436 8.8776996626806 2.567271110749865 1.0092873172937264 0.1036319124600538 0.3153496593864569
P 8.538144930871686 1.6551631174619756 3.653949364441173 0.14339685106281755 -0.23073953944454456 -0.3448152729457416
P 1.962101926335885 3.1070329781610226 1.4336362392224327 -1.3975226090963158 0.2481309954481146 -0.056674826984224984
P 4.516183758432445 1.0577472245454675 8.191279203358848 0.5360755233487413 -0.7096882358733068 0.5357433368203032
P 8.243163484759862 1.5940557477035515 12.432591050194551 0.824575923752838 0.047904279880446536 -0.1561664920236601
P 6.182110311361045 7.581166979043598 1.3752432450804237 0.9439293607132065 0.7807879800336102 -0.17043945700290647
P 2.0524876495442825 3.349951958267891 5.807700138447773 -1.7782667347281824 -0.024413138737041828 0.5795477355997632
P 6.967669247253425 3.997286674999785 6.08069704149642 -0.4344344160664712 -0.40532875694976644 -0.91806740534478
P 2.2198183689834257 8.305953206616431 10.206929673386385 -0.09261730651710501 0.6871324620599779 0.3870309870818431
