# total energy = -340855.52933527174 ev
CRYSTAL
PRIMVEC
9.39342718120534 0.00000000000000 0.00000000000000
0.00000000000000 9.39342718120534 0.00000000000000
0.00000000000000 0.00000000000000 13.74823018186113
PRIMCOORD
 96 1
Ni 4.741830266869266 1.6317510381641824 12.352111693399442 1.6149821436025025 0.45415477731353393 -0.7882220677141523
Ni 6.803180307862272 1.2008557423719093 11.370735257908542 1.9859157109018508 -1.0585465685401705 1.8641852890688733
Ni 2.262087581782178 5.789676472417832 3.5973623290646617 0.21421634497854072 1.1786355981149832 1.3438742276432403
Ni 2.6820865019396627 7.136440320595928 1.0375970370527756 2.1792588119758083 -0.6150233027985537 1.068506765076676
Ni 8.373883462189822 8.858462194837974 12.902398389153552 -1.444338283898274 0.8360798106273795 -0.6917830734581119
Ni 7.105733206845819 6.333612271993769 3.34297798578597 1.3207001035196222 -0.8759190541115044 -1.0382837045260762
Ni 4.036149043107613 1.5076075033457599 0.6776183597884354 -1.626984053159385 -0.5145451054761331 1.053513119881321
Ni -0.021293960281468093 1.2280497143225244 7.763749362604361 2.111097067397906 -1.4056141278551986 1.5942850202644672
Ni 3.138362838219177 3.1552710073076424 6.868079496880165 -1.1864360679960084 -0.6700431106778589 1.3328693918923042
Ni 8.147351570113468 2.095983607342547 3.333698218984584 0.11144729473941452 1.3062864991974534 0.7929935209608665
Ni 8.611912909246332 5.405579231291523 0.7057216154989195 0.4518086456788606 0.5687866404285172 0.22292210028265483
Ni 9.121722387545383 9.41014757191279 3.0415072096240836 -1.4946822835684646 -0.22106499246925798 1.7755069125948582
Ni 7.942706363579408 8.63103792717084 10.395751989018535 3.067579839296091 -0.7229199040722324 -0.8592716753628106
Ni 7.760229645405779 3.0471996265505337 8.329062723964482 0.6987116822571451 -1.5646417434767377 -1.0553727987978792
Ni 2.246579033357147 1.1933316071275422 7.658974135476776 1.3023637671042798 -0.9455854082593907 1.144660269610803
Ni 5.82415035050376 1.9419595803738972 9.597763434146586 0.09104867647840449 0.8305426828592342 -1.075994588813289
Ni 5.414005135553942 7.873401657171241 9.15782038920653 1.2614122643925825 -0.8562439442800802 -0.6430694103024925
Ni 7.429092547235452 9.50107594789965 8.44523499640042 -2.449469927152414 -0.590308573660693 -2.22609017050705
Ni 3.9961330429315773 3.1596483444161008 8.948764029225831 0.8490132308595959 0.9971622518954182 1.4763032668406446
Ni 3.69187054018464 5.1657462461989105 11.193685122669581 -2.46219945890394 -0.06223792289429927 -1.7744918410667827
Ni 4.832138676656214 5.589089226465003 6.626963369622284 -0.38784885499744814 -0.43543766052000493 -0.8582746015568637
Ni 1.4906523671209373 8.972404467639688 6.227013780632811 0.02299080446821847 -0.27089939949288183 1.0194632293854637
Ni 5.9450343660590175 6.0070215926227855 10.83346785235255 -0.5777006550886954 -0.02604938878888417 -1.630216958274386
Ni 0.4611834626860779 7.14982595445763 7.396643892069233 -0.4467291742734242 -1.6692668730879963 -0.15012414248432213
P 6.4675249711744165 8.27360862606795 11.622533590659424 -2.9228347017354954 0.2872120206099763 1.2467947715897236
P 4.4767571426984825 5.8607001760166595 8.890306852630644 1.9593942675725544 -0.2139281243141606 1.3059890225616928
P 5.237436883134004 3.7913563284157163 11.149539771865053 0.7489687786404844 -1.5206272855690006 -0.42395357113980536
P 5.330027895747896 2.68405912166665 7.247901789255274 0.510217681745373 -0.38621029095276066 -0.21176839765868044
P 9.01362282650646 9.547949149983786 5.370966330481981 0.45852128181234586 -0.4908475047488772 -1.841988698367176
P 0.9883576306389826 4.2527051154217705 7.548947043161768 -0.19549177198584397 -0.03394267549403187 0.8624405600090953
P 8.895237462605387 4.52735014198208 12.394043013396109 0.5493084770992476 0.6147247977215284 -0.031101863611127076
P 4.112000968323923 8.919942176329089 1.3407069662735163 0.13359374892946668 -1.2329300977924895 0.4516831758445898
Ni 0.7505902602033443 2.0927240880793816 11.307328684484068 -0.6933887273823349 -0.8429492840537031 -0.003930959623290004
Ni 1.1023656574315972 4.381517183594064 11.108377773561912 1.0644796461951538 1.3897632768658712 -0.8699026727140955
Ni 1.0851287183886338 7.737037273472767 2.5495264562860926 -1.3382741078476434 -3.2163410399946155 -1.8564740364675447
Ni 5.019612698138212 3.5273634483811414 0.9778097511559615 1.4877971264128569 -1.918198510060535 0.7532553218309801
Ni 4.341153626608988 7.178795284162534 12.170112161331199 0.5882984852091998 0.9792833147324683 0.7759710182609411
Ni 0.938147883188057 3.1253905151574153 2.071143628266137 -0.5760291809235434 0.6495671022116942 1.466864747135564
Ni 8.24144553109078 6.251523111069269 11.224357480738785 0.2852402415955862 -0.31091964863956134 -0.10743843069033754
Ni 7.754386933642987 7.814194885079798 5.654743647035515 0.1857112955603124 -1.114784307986977 1.2984207232961316
Ni 6.523725846539022 1.3186868940639713 1.347089800104412 -0.662695412063536 -1.310704425759491 0.15046635631508926
Ni 8.134088050806294 3.267672758036853 10.72973717433754 -0.7064812989002349 0.669371281421815 -0.423367102508716
Ni 8.826937852915258 1.2690426309347822 1.1631993711264421 1.094464108372386 -0.16985967324003648 -1.2819396949219728
Ni 6.46590930168374 8.08008523742319 1.9685955827445931 -2.979219508283127 1.5443454551215465 -1.2304795793694678
Ni 3.1314117020383634 7.727718993619568 10.09392332327761 -0.250639106581949 -0.49621673948059053 -1.7069998688623955
Ni 6.420003622608557 3.9559479610646577 2.8986632397938177 -1.6188971623861927 -0.6224332221093797 -0.0012688394100945888
Ni 1.7866674407236125 3.0046004338748715 9.158658282919136 -1.5616142695043234 -0.47483056049533057 0.5585474791990123
Ni 2.772216436608456 8.739907749246017 13.138084176105853 -0.02346800121495313 2.292181919929801 -0.1509890615877787
Ni 0.7100895591801065 2.138479472318224 5.817343873102925 -0.08820657904391907 -2.3814783896037888 0.9378921533801913
Ni 3.7043637984555615 0.8143932362586691 5.644130013561593 -0.131502927838709 0.17434419137395138 -0.09366708793785804
Ni 3.288714035124721 2.943045304965586 2.55402215057817 -0.1278527326806314 -0.6975456869735019 0.2721129601850088
Ni 2.8648919900677896 2.7434913360126068 12.41532570156485 -1.6091303128074157 2.4952396771883607 1.9945939554021392
Ni 2.0197841253171953 5.193372315804009 5.925280927850054 1.5902206203871063 3.0850905944863447 3.6943713383741668
Ni 3.7418717535501407 3.924526946841926 5.045807209427153 2.1422814634205105 0.7310345627595668 -3.890802334344828
Ni 0.6345034679555754 7.969026746793785 0.2761921240319034 -0.01179519286271517 -0.4853083200982029 -0.2526250266637262
Ni 2.0893424542616885 8.496561622353912 4.1486935739313475 2.5698582331352 0.1273894198909677 2.3527008032504644
P 1.2549055228913706 8.638834471806078 8.63042453637002 1.289021798579735 0.8622376999696699 0.5237517116760657
P 8.545144428201436 3.6672034001700227 5.796872777050428 1.1922773572681336 -1.5584027045455613 -1.1375411420675183
P 5.732902597989674 5.960740176456747 1.0381897623135992 0.0508618198468737 -0.15041544847249577 1.1896059810835578
P 3.0319822743709146 7.0787834640042595 5.67300071228015 -0.32241607931493504 0.8880891138151351 -2.6199595206669652
P 6.663979109127843 2.475196266287744 13.400441660452485 -0.4139625213653645 -0.021823523632994675 -1.591263202719008
P 8.381773941097773 4.479227614070853 2.7100920660065246 1.8019401670857227 -0.5255784804721594 0.39662403008691693
P 1.8388855029251567 5.220322058645569 1.6603183291818722 0.2080007030861321 -1.1643868015054528 -0.7406854555857696
P 1.5034743953463572 1.177024617384444 0.2311205812984171 0.12102105447077868 -0.015754691731095446 -0.12048035147596024
Ni 0.47287076489711616 3.176547120077295 13.636676962900163 0.711736119541271 -0.25296878315639015 -0.6870689558118941
Ni 3.247185693157996 7.091220361711553 7.692684327925541 -0.9770955630525301 2.934321362218856 0.4958907235997395
Ni 4.158780236135344 5.0873768824738725 2.4355954555971033 0.09818194508907607 0.5078201280474739 -0.7914369751070242
Ni 4.6156013911965985 4.924804836688277 13.237387731847866 -1.0247579021254998 1.5606534482529508 -0.7836246781514568
Ni 4.5952082605904545 9.389378704215792 10.690252842145064 -0.041156162523335565 1.1271245747198848 0.40797827875747156
Ni 6.816960465669371 6.739192281289701 13.010472587938843 -0.40694469528663463 1.1524514835204476 2.4366051553746035
Ni 4.667547044007273 7.148651776048709 3.3331073724092146 -0.21749244462665127 -0.5269031128208539 0.6211296728066077
Ni 4.687883814049789 0.41969175508571055 7.981356559430186 -0.1888902075089263 1.1350643983922515 -0.10852575021724535
Ni 8.622170531826667 5.190075222831758 8.796764285834163 0.8214363496825917 0.8625814564623339 0.7442379488237183
Ni 2.002594153410589 5.442626908449806 13.219349533458656 -0.4381612300987551 -0.24992819655785348 -0.45019219312136016
Ni 6.137158134040342 4.557925747750389 8.298500268994353 -1.3834802720706367 -0.2368330539367921 1.9111570298327214
Ni 6.496466120597507 3.192196569911397 5.235078193546164 -1.3146790941365227 -0.1932896221282026 0.08409229976522936
Ni 7.763348263259874 1.4344233114745182 6.362612600008669 -1.921747403754058 1.9997639296388527 -0.3395460541270023
Ni 0.6913900635109907 6.791861228000271 10.086361614324156 0.9891540368789611 0.7929251296167763 -0.8532146705354532
Ni 1.2530362308643683 3.8148586834486835 4.64500469724144 -2.5975482428513006 1.5673910240871005 -4.429352544486307
Ni 2.476821329205691 5.413948774990313 8.935730648886807 -2.2798375394318353 -1.9796129086122745 1.036377488642299
Ni 4.59119726714558 0.008473810741502653 3.462973383121356 -0.5934378633182942 1.6189107892329475 -0.4939307716598913
Ni 1.9202983370861184 0.5346259738072823 2.403465237615383 1.316580939144926 1.8570551057819953 -1.2989488278854597
Ni 6.844511387856299 4.559766859495577 12.500812465133405 -0.7962464806805254 -2.013844576101635 0.47674937478459833
Ni 1.2476444036106018 9.164706710739171 10.903789866934206 -0.2787687749386296 -0.38680473000364995 -0.1589430263275327
Ni 7.574775210787125 5.1500216489466375 6.686988309229064 -0.98278978522383 2.856171653190307 -0.5854530453406046
Ni -0.0349999100131237 6.053331189070639 5.211995724712227 -0.2717020978998353 -0.5365180102027985 -1.2150534746223847
Ni 5.008876010767036 8.105701113592216 6.315758184779077 0.013732519094744091 -0.3299969769859865 -0.5638511508001127
Ni 6.407228561519494 0.21760156076946172 5.105377507153999 -0.9448166484141663 0.39902724021177083 -1.2041512258875844
P 6.056055282979336 1.6607297612963583 3.3375758257622055 -0.44728710365942326 0.9034974779504052 2.0857477899998402
P 2.4352835938116937 2.1876916377929296 4.430051143619778 1.7287156632729326 -2.02260406746182 -0.7203434015943079
P 7.716756863993879 7.1901801180154346 8.06035340409695 0.049421230745605206 -0.03000117434778059 0.06562792241245471
P 8.38203695706137 7.612959492645244 1.8219566682966941 2.6677087630267864 -0.28800983392092333 -0.7549967300021191
P 8.594093577712544 1.3701159083747205 9.655176061629199 0.06958973527368015 1.0158713982691472 3.206144044856956
P 6.02049176732993 6.493713846406996 5.055375354445771 -0.5438243140562247 0.16543711869230862 1.1036722572342155
P 2.773202746471949 1.5024692986283206 10.831116677506525 0.5753730353967833 -1.3878979415223582 -1.9216641000116326
P 2.033442168569767 7.215842961320816 11.803186105256954 -0.39470315891512026 -1.12161264376272 1.1435415826253275
