# total energy = -340856.0121025011 ev
CRYSTAL
PRIMVEC
9.31390279025125 0.00000000000000 0.00000000000000

0.00000000000000 9.31390279025125 0.00000000000000

0.00000000000000 0.00000000000000 13.63183819724953

PRIMCOORD
 96 1
Ni 8.46442804111633 9.053029424801746 2.6909792359541576 0.8023970736629537 0.7199963026675342 1.0878522594828233
Ni 1.948747824363877 4.260803044344835 4.929953851198277 -1.2408614368244242 0.44742800011266165 -0.7322193270962873
Ni 8.361239315091728 8.696428038999423 10.698702861148606 -0.03406763110767037 -0.3170609856506088 0.23399301338483575
Ni 0.7770486419924076 3.3395556321398185 8.188167447065576 0.28648388419470017 0.5695471727436255 0.16300845464615796
Ni 3.6449771235920014 6.517617508476715 8.669358112713848 0.12256783013260826 1.803146785799314 -1.088295774778145
Ni 2.9987413111097414 2.034696516823036 1.0059629439704607 -0.5154110530208543 -2.557054139391996 -0.07638516092895876
Ni 2.6591191696022887 2.502086773106686 12.34217076537861 1.7431210400649852 1.083623051892824 1.4281547321598758
Ni 6.887975528301814 7.580007799477364 4.0146440518500786 1.049177982841077 2.3599999080150385 3.1371515768476423
Ni 5.53918273479584 7.11514161077677 12.320986294095736 -1.223845104772086 0.23289001012864408 0.682070217045722
Ni 6.7829519634806745 7.481233863247478 6.44761421713265 0.15747904018749653 2.364661575156766 -0.05549211953003347
Ni 4.201045045773316 4.542893209983169 10.997907322668354 -2.9470971738272858 -0.29383981033913914 -1.088103456261681
Ni 3.02094565471861 6.793960996259902 11.254035916421053 0.00589656799009307 -0.6244615653933181 0.49198290390490107
Ni 8.262083508858503 4.183180980739001 9.589452463786825 0.49412488994856835 1.245835235889932 -0.683863561500719
Ni 3.633437198369104 8.981442770029194 11.796065924723473 -2.0928466058281505 0.33536621171769987 0.3424334029771264
Ni 4.148523949460226 0.6731483338152401 2.770534865723247 -1.8254205095958498 -1.091868836841384 2.0205235307837075
Ni 3.5439678507571966 5.529524217882083 6.1209812440802835 0.953121568735436 1.2412021079932947 -0.42280428802671055
Ni 7.89875748543638 5.902378363582675 7.5674014324158705 1.067419445549768 -2.090914421802444 0.41603945849905116
Ni 4.547624672463582 5.875768544081611 0.8154116750840884 0.018005178328168992 -0.02449644247946749 0.06847696182547562
Ni 3.370263568749902 2.721876244785407 6.004851781893702 1.7494978901256064 1.3289739134926404 0.15411089504621203
Ni 2.1815767595712954 1.2725026179605712 7.889589811185454 0.29491684545340174 -0.34447151645307766 -0.7055346187162495
Ni 5.709906567996576 9.2420271347477 11.29757654792388 2.063115911532937 -0.48949741847888606 -1.426917003098033
Ni 6.5003309053986715 2.9998682933147225 2.9575226355052764 1.822483795565029 -0.6238794676376029 0.2893030988110501
Ni 4.465513307842868 3.065857292672453 3.5685155722402224 -2.6001656258694896 0.12800417065683115 1.230889670323693
Ni 0.44213374681881445 7.245890174359526 1.8008337384358422 1.7414079140286205 0.4296382802294084 -0.029187163086917475
P 3.962655710761161 2.036410274886808 10.84176906081472 0.3325148583118338 0.0904264695133733 0.31209567122553344
P 6.602159801655279 3.03272774140704 12.914844444363721 -0.06147893324108766 -1.3352150093063457 0.731598662793153
P 5.2487752542067 1.673298471222658 1.412790480504822 1.0116756150202446 0.3267190775656631 0.7949069359334956
P 6.837214759565098 4.809298763776984 1.9692281646162009 0.1959041769329142 0.9335709002970181 -0.9814528115799613
P 2.3009157925664416 2.414834134294657 3.4993477379522453 0.21121869580279753 -0.14029481509872613 -0.3386140292310362
P 8.212673255987259 0.2418326847739844 4.952691881421569 -1.6790550628230116 -0.052709928799206 -0.7604248429962258
P 5.8235641204542175 3.1075742620617652 5.698939447778689 -1.0091263662358299 1.3981041926313986 -2.956097320443367
P 3.2442930371601615 8.619104020274246 9.640585788624362 -0.4207031825233077 -0.3257608274174519 -0.5325945067786764
Ni 1.0573142141269767 0.9610829732851873 9.892501704267039 0.9183111459244699 -0.8457913814881887 0.797881188070471
Ni 7.055048311714514 5.937147161691695 13.46334854630814 -2.547460067945658 -3.235410912141873 2.378755077135355
Ni 9.09666505811028 8.969381266265149 8.005569319541456 0.10250808326825571 0.25540258940886335 -1.2637509398280882
Ni 9.098984219837885 4.142544424042066 3.587217888501383 1.3928989942813752 -0.22098940203631615 -0.05736928194808829
Ni 7.229944773244433 0.9169024766792032 12.55143273303841 1.6659725186074406 0.5457176744241956 0.22795786293434933
Ni 6.318085774780079 2.64082666505203 10.594923633704203 0.7105161310912408 -0.8711177760681191 1.3770502001745768
Ni 4.423917419186322 8.151667194477993 0.6357781627322443 -0.6825944649803084 1.0549493381072153 0.012687365659681376
Ni 4.938221802465723 1.1852686069535836 13.014860855189841 -0.71563725436789 1.470751740894796 0.29006414534679076
Ni 0.7590113383712105 1.802715146744983 13.149556650660786 -2.2253507212378643 -1.430138081138492 -0.953105885006152
Ni 5.364342156681044 6.515372857969276 2.8974200225405005 1.9557078198599027 -1.4216323576603258 -0.08862206931478286
Ni 1.1199222668697668 2.0193937749818573 5.621102233024631 -0.5808826523611028 -0.9294705049753992 -0.5556794136225979
Ni 1.2531576424254962 8.42110908049349 11.851465016915398 -0.39511376408997756 0.45319369895184525 0.5672352367809973
Ni 7.4533200973935445 1.6265892500823582 1.341418976880495 0.9676678419807272 -0.29021301221982926 -1.4840052634705925
Ni 1.120937482244501 7.720927144612505 9.530399527636108 0.5402962462983082 -0.6272548118677391 0.14579697586387794
Ni 6.197256517381653 8.960635511798401 2.031594055893458 0.020254893594294148 -0.2699326647042383 -0.020678097174641807
Ni 0.09399217867586149 6.688611444850546 4.3050161396096405 -1.910605528204626 -1.6882156462763571 -1.1883402269972567
Ni 0.5275981163469076 2.5750798271598314 1.5687378073567866 0.5954345820333488 0.19280728317514537 1.410109444622391
Ni 7.844718223012449 2.891184364803027 5.223978851526377 1.1369459316856807 -0.9539389224304088 0.46931425866279175
Ni 2.5147629944370844 4.073519092462653 1.7628013488836392 -0.2149894756991394 0.84564251461515 -0.27864947575194593
Ni 2.211958709593161 5.367313291585083 9.593528227529795 -2.0812247053185065 -1.5868159655809317 -1.0960767042751447
Ni 7.123086369626755 7.672317887358023 8.732718728780293 -0.42742636017975416 0.31839410263973555 2.014762202819898
Ni 4.41489224764396 8.953640771005507 7.685998147380132 -0.8579907517678579 -0.6124601700570679 0.7384251987966831
Ni 7.634009806291214 6.827789090214353 2.1297700395815276 -0.5748318181813326 -0.7192956770560839 -1.927639600868777
Ni 5.457946877012053 5.706013356743007 7.724344415447275 1.2188342818210558 -0.3397707685432987 -0.028323015314409283
P 2.666970789427069 4.24688807397921 7.536130004703296 -0.369783255744989 0.08867863358433115 0.8389712732425615
P 0.8936214459389654 3.9482843591720314 12.983957326626829 0.13560538004285677 0.3782313865123421 1.055234473447802
P 1.400419755177096 5.60665264465433 2.9186175332869024 -1.0148498989831682 0.022794886407328484 -0.24499399248102968
P 8.93052366494963 5.1330034458769065 5.795411918695759 0.09514495803496517 -0.45014668459540536 -0.27444855029672094
P 3.7772438532855994 7.716596179940473 2.8123980633821306 -2.2050161234455703 2.394261657411386 -0.12221353211698306
P 3.3090898569952687 4.937998268805231 13.043950966932115 -0.6761937036602871 0.3332234543430842 -1.1189047579132536
P 6.481833494992961 0.19856495061500917 7.782511599468292 2.320232398309114 -2.108265254376066 0.7270290411445995
P 8.62347224055636 1.9674035711124354 3.1875872044446107 -0.7766181649266367 -0.05913331582704655 0.36649507191202046
Ni 0.6019034992651917 8.439261876505944 5.3786185064644645 0.9155263840904813 2.284558341946272 2.0116146583298513
Ni 3.4513969736059633 5.548766740489433 3.350119460378568 0.34024745106940113 -1.3949479063906038 0.5709407106570424
Ni 7.1764084615566075 2.9470118965108942 7.8436508497836 -0.02367626057101729 1.8841383351520324 -1.1738895987895654
Ni 5.202317508434454 1.1777150320094594 9.365903901050832 1.0214563485560926 -3.0355976299625396 -0.16456705738252947
Ni 4.41469665569103 8.068568556190106 5.52483373657276 0.08929029902640107 -0.02476075188444768 -1.420820660392308
Ni 8.167025819734295 1.4308110191014825 9.280378059766102 -0.9771986642892977 -0.2953135666711882 -0.004257746835089441
Ni 6.155297386526809 4.660155242716244 11.71311537748566 0.23411256968183553 2.9042222288406307 0.1902770605541239
Ni 1.6345340089323437 8.951032878299767 3.0755064956836895 0.6791651275837851 0.32078291458688624 -0.3355695859777576
Ni 1.9909863722943373 3.302821600598973 10.382320769210299 -0.8799780546722263 -0.8196646024941496 -0.6737318723833559
Ni 5.158924036591453 7.268811688462471 10.182573884365437 0.3183755906969743 -0.03173821164354534 -1.4260122318955764
Ni 0.9544142190805104 6.3025315575708465 7.311449802811062 -1.4062476476741395 -2.130139428741338 -0.21159484819529364
Ni 8.23961837597906 3.9687656308146075 11.791444366292803 2.287349531538164 -1.0607199220424055 1.633741940708509
Ni 7.094725536451837 5.055260301538306 4.227028039634751 -0.6321391365432338 0.16345068438989915 0.2930828775684566
Ni 0.8501236583877338 5.476053103511902 11.461308434502476 2.886163828677023 -0.9479063430830836 -3.4985013571132972
Ni 3.8871106474173986 2.837331380429505 8.844663454564415 -0.9318711439970919 2.16751761227948 -1.3994658488656155
Ni 2.509472697805441 7.696915903914659 7.023763844538411 0.47895332441445254 2.3729639243748744 -0.7562987366429943
Ni 5.825119542175141 0.847566060755605 4.753980702536988 0.7065766868275186 0.21300149873483318 0.028465454429544526
Ni 2.0568822326268634 7.042493171116882 0.11901118362642427 0.7298554548498011 -0.0705299876997624 -0.6925520904136524
Ni 4.773812795173885 3.592409457766309 0.4839298843795509 0.7423510162136506 -0.08130702371060836 0.02261388074477396
Ni 2.3423906004902206 7.109255224383814 4.591980270436952 0.6394323277705375 0.48092638898042334 0.15739110845938054
Ni 5.451427145247705 1.7856055078148272 7.125715684308291 -3.301202356715385 -0.6581651282933504 -0.06782081629871545
Ni 9.262042711264248 4.935213411951602 1.2831931152735994 -0.005127808144868589 -0.5998067429591153 -0.3636738004131414
Ni 8.981647675884647 6.137917644423558 12.912567195197461 0.8765124647211293 3.304537077515574 1.9640435934191078
Ni 8.868632782700917 8.938216948431561 0.1737499201296453 0.31895074647415395 -0.3710878334890254 -0.20221752074545174
P 3.124609389771757 0.6821716425770988 5.9319621121585335 -0.03474203146687565 -2.426155163685873 0.683635504650313
P 6.890797640765525 7.939384728230795 0.16377659331069563 -0.15796934956035374 1.8800356258375686 0.49847879604188994
P 8.890976834847594 1.7042019997856714 11.254567740254974 -0.4263069018633303 -0.3108119194171034 0.5540927858617682
P 5.671933787420504 6.095110948439348 5.382381323082746 -1.7491618469424264 0.17403617321522932 0.37875486311597995
P 8.85689726552509 1.9097970840231528 7.19939610436745 1.7031054189039958 -1.3891960915084913 -0.821986565759107
P 1.8247797818160436 0.05268036404619091 0.25776132086454073 0.4801555722526698 -1.2458236659257058 0.3566495465765084
P 8.335328038279702 6.333965978577528 10.456410069590108 0.1582100048162501 0.635420378397667 -0.40279673455653214
P 6.088358369111986 4.189002169814312 9.212831775906945 -1.0723832173129466 1.686417930945986 -0.14959963743941976
