# total energy = -340889.08360999374 ev
CRYSTAL
PRIMVEC
9.11838532805073 0.00000000000000 0.00000000000000
0.00000000000000 9.11838532805073 0.00000000000000
0.00000000000000 0.00000000000000 13.34567862811542
PRIMCOORD
 96 1
Ni 6.582434691122768 2.0924597036301846 11.668701014318161 -0.8463634519415745 -0.8987638199201617 -0.06449098059453409
Ni 4.4121130954105965 0.2619265295988156 6.259750536588866 0.5884753771066962 0.37366202197410486 -0.6442832281049354
Ni 2.9619615707413267 1.6354371139778512 4.658802803172077 -0.6556757862125934 -0.7200271559054696 -0.07287560511380352
Ni 3.450406116139593 4.313251561981283 4.446993654701055 -1.2241744630870464 -0.43006379780260123 0.5635742429896423
Ni 5.043196542066449 4.589830424919664 2.707758313492135 0.7058385231099135 0.4064348455297516 -1.9063642364297686
Ni 7.4079677043143235 6.205125025768447 2.7327809864340944 -0.8823792079145512 -0.00929402370741625 -0.372812529489616
Ni 5.376318512253969 4.610337673460756 11.773771256298666 0.30888282071519063 0.6288810346172525 -0.3424948523426811
Ni 5.277055769871429 7.738773604635487 12.567932464863443 1.8126732372325105 -0.16288247059125496 0.24774404442234105
Ni 1.6619260232761501 6.718207448248987 0.27856393541832536 1.2360874124745485 -0.18341761443012927 -0.8411150590584417
Ni 2.8742700593052724 1.8333607853130909 0.3222957113200949 -1.2968222684607602 -0.5735655498743992 0.5735858615893734
Ni 0.5801089373098012 0.1776297930101816 4.714174197910087 0.38625399970650254 -0.43961133228172034 -0.18294093190402685
Ni 8.838304977725349 2.6808143967673357 1.576124753112914 -0.37702193958527325 -0.41347606864724923 0.21953210076449933
Ni 6.810886716444481 0.6011651126459909 5.018509425703552 -0.8499084889803555 -0.35716299587781714 -0.29517549843142715
Ni 0.6582261441802056 7.583241306562826 2.4025422496786297 -0.23534644208893662 0.4793325621307422 0.480679820187256
Ni 7.7167435857491915 3.779479523253639 3.789692114790332 0.02052383098496465 1.9119910956982429 0.16202860723139192
Ni 7.748393501127641 4.0355055457244235 12.486923818014212 -0.6642398737325206 -0.5684043173884341 1.4116343659073496
Ni 8.34632249883044 9.034450563926967 7.115862054886049 -1.8563115427477515 -1.780745021065346 -1.277295254171426
Ni 7.0860431112759645 0.8117505738096704 0.4341500319642601 -0.8519913396513134 -0.10828278096850383 -0.17246857161779328
Ni 1.778841959600689 6.485050336112155 9.180279076362709 0.3766463014134094 -0.5287373378161152 0.062369820486473236
Ni 9.257531860306615 5.209260575161325 1.4715341381992217 -0.4626851833820483 -1.0761519403267596 -0.3094906295025186
Ni 6.37951414464279 2.243286914887726 7.003785245640549 -0.46198378643964955 -1.8615838468902843 0.8722061240362915
Ni 3.4155191739794244 4.360995427415325 0.7128170051364825 -0.4741731294169899 0.20564505836976196 -0.9253335999888902
Ni 5.66292759902303 5.17708179343544 4.795716270299405 0.8341111169367827 1.3413761438117349 0.7720071485171865
Ni 5.208558459493178 2.9251232941268253 9.670345782505956 0.5105498682738111 -0.9066002852454452 -0.8979048143539762
P 0.03544681101762695 5.662763468087619 12.540466976499447 0.12280951382976914 0.3335924076467287 0.6768375078918731
P 3.9266593803909324 5.964098747117181 12.657935486973203 -0.17247731336854166 0.7041050853585744 -0.18725292901581944
P 2.411110796345622 8.549051559219107 1.24766227781401 0.08947053335800721 0.5344703836451505 0.7151356321411232
P 6.2407779122938685 7.718831695983033 5.906850788684303 0.9178123519111806 -0.11505480958501475 -1.4529820756162009
P 4.759058537713855 1.2431094680334112 12.842413187344151 1.5454597712316482 -0.5240633293792135 -0.2847887558804643
P 4.08492719405378 6.099971806481707 8.32392683269359 -0.9269155997640294 0.0023443318624604787 -0.7065723159521444
P 4.806027340397344 1.0048551785135327 3.713274574939963 -0.2754541087430998 -0.34963403449062364 0.8020949690415026
P 0.23192977747536875 5.882917762785769 3.666965031513709 -0.07795713340176898 -0.8574089111224589 0.10368616273675692
Ni 1.5687361255038221 1.0953825077780799 2.6503854331806393 -0.47710572968275256 0.9802186820625441 -0.7572500448126701
Ni 1.9497752104460957 6.279257498262481 4.87429577930455 0.33847518966032675 1.3081366650323147 -0.809849930396573
Ni 5.862674947418395 5.455484333433945 9.568891892135678 0.08585941896798117 -1.4156920809164908 -3.4817591046579515
Ni 8.598208774374745 2.0985416666256973 10.315942963044806 1.0767191256841393 0.7777962443951378 -0.9240678459025891
Ni 2.1767227021932065 5.142979032411125 6.8565160283273086 0.6945912323308683 -0.8819955993228875 1.623376795424101
Ni 0.8487657470990038 9.088568180686142 9.005476894634251 -0.684243313437641 -0.7531380795268255 0.3638666331502379
Ni 1.4711785211724977 0.9588711614425104 11.607884119878623 -0.42989513343522096 1.0235661958102438 -0.26371779414277813
Ni 4.1919952742536495 7.002701069628305 1.316213386665535 -0.1983007021895488 -0.6109704728854187 0.40889539125510227
Ni 5.791396529523453 7.873661878387546 7.895210446529969 -0.6174347404535238 0.0805115243925065 2.2177520829549997
Ni 5.042111454215675 2.7032273878362574 5.242983099518605 0.02586504069221997 0.20275488130616048 -1.1650766284836256
Ni 0.7970034092629791 7.309078815729109 6.872303600636801 0.03034493084044451 -0.290024550358107 0.25187992096758555
Ni 5.1553709180346665 4.515780017893335 7.115302186028591 -0.852830547723157 -0.28973375859056555 0.7313878323339276
Ni 8.455624583428964 7.097359027434033 9.150597820370665 -0.42026763764778585 0.15780685584056048 -1.0194434318911216
Ni 4.8543183089494235 0.18612539259476849 10.800443806800553 -0.25860901216130294 0.9838105131788606 -1.1860388325575897
Ni 8.197875186136361 7.469662699258313 4.7805286877426925 -0.6225586919436504 -0.31139401717281856 0.4742124672953575
Ni 7.148294327723291 5.9378651526073 7.162973104380229 0.5980038854224217 0.051776104131026957 -0.273543007763316
Ni 2.3857981587511032 5.7499169947909365 2.4197714387041502 -0.18964945427245403 -0.5461671032567884 1.021411097140454
Ni 2.2593170362462147 5.193513123747156 11.347590693087145 0.3729372279929384 0.8566486359176666 1.1952580371630124
Ni 1.0429791474554215 3.397227693066382 3.9421797840111164 0.09937622250749337 0.2098891783580966 -0.12495561363849447
Ni 3.8588277121396266 2.610584593181967 2.3686045314282556 0.4213079059868422 -0.7418514508694126 1.1100308524623916
Ni 1.2647018044252771 3.2443306083456 8.490160467755059 -0.9595269580411475 0.2904107300529321 -0.025474233011704518
Ni 3.379638327821488 2.645580955965743 7.47947864103443 1.8082059454897763 0.5929110442805465 -0.9435041002503299
Ni 4.093945277116092 6.754845120386874 6.078489802551979 0.3819054929298197 0.4766843258746177 0.2408324049041723
Ni 0.6071495089187873 7.282963760228136 11.30948860826998 0.2816720646283536 0.28428122011642654 -0.19834055428854874
P 0.08017978562540445 5.20963442895865 8.006432863072801 0.9997469819034587 1.6052474328132418 0.771634081448484
P 8.925640872134679 1.570486855481541 8.048298105503534 -0.570707511600314 1.9444975529663802 1.3013512666793652
P 1.9736836167043192 3.0748198256070896 10.752987170503483 -1.4062821004565007 -0.28834202044936147 -0.24842975763545602
P 4.092987846659526 6.409395093272918 3.7229774487383516 -0.7636790882674653 -0.44394364110848705 -0.1075685285102986
P 7.100596054215752 3.843964744099617 10.383631472646892 -0.8879546451197998 -0.3326249015271368 -0.533733762589442
P 6.705806444240145 8.114232237773782 10.432703886819233 -1.6712389092127022 -1.0169214368002164 -0.6579059610946927
P 2.3822693436397633 8.525480533217006 5.876288696672218 0.2407961523495982 -1.4607272667792586 -1.0141983814420985
P 6.982467372646232 4.143284859977742 1.6648329645099873 0.5473577811307799 0.16757576230186622 0.10697511790067384
Ni 5.525741492175215 3.2261485480561656 0.3395194293144344 0.07806152019011717 -0.7943916868599739 0.6442045523482002
Ni 1.596346596194097 1.1417950889582313 6.78156654851034 -0.16480128488052262 0.37363322561869844 1.1913985542076062
Ni 6.792540525219635 0.7721330133555402 9.160620749493104 0.3935626175527738 0.16719678169589267 0.04049127524582704
Ni 2.770165454328103 1.4716800323640318 9.394049589511896 0.7247793258784744 -0.9377327449841915 0.842149670970543
Ni 6.389982050967899 2.034840626915572 2.780331542099763 0.21340053394546474 0.399463299307925 -1.0855387808582981
Ni 4.355779711023371 6.791528384451266 10.417543659418424 -1.9114881879198953 1.2779058911722312 0.9894384008885992
Ni 8.262551893073653 7.5400110418525905 0.28158850382254075 -0.20868307386513738 -0.7118623607064901 -0.4539750572025601
Ni 7.8249697008822405 3.471624598734134 8.23880761775084 0.3067544615182782 0.993956857584243 0.6727633378224995
Ni 3.176389519470687 8.709671916289514 12.505741429759098 -0.552796435647848 -0.3428517214614676 0.34419435153229105
Ni -0.03558358679713623 4.657397659997251 10.548464523726185 1.6598026423513028 -0.1999330955866492 -1.7861957597672722
Ni 8.571482787058631 2.0855935594988186 5.793786458310747 0.5067898870107466 1.8613149094996138 1.5842726303337877
Ni 3.861444688720904 2.914582440719309 11.743436212080566 -0.48222428185624056 -0.25009583248396927 -0.40613454068051347
Ni 0.9411814939593092 3.584929654479628 12.752410165234387 1.270748968412476 -0.693467146028754 0.5796906889355308
Ni 3.0168451318657534 8.277971082617 8.038556022648352 0.8265325332585766 -0.12160700888123574 0.4077777327108913
Ni 5.743388230915694 7.994170458520529 3.496101080396586 -0.6859782938508766 -0.1394106127215599 0.7089868389309081
Ni 2.783140916610884 8.425141821368994 3.498436298872075 1.4293196990022545 -0.8197054830344142 0.5991665382719553
Ni 3.254853224982515 4.190618398073256 9.404379808218968 0.9501401175096088 1.1795609381427297 -0.7945485241528123
Ni 7.322291356029706 6.143174716036041 11.016457442733692 0.7639624238358391 1.2061456306097935 3.0001228340946975
Ni 0.47843073466112696 0.2349160486613215 0.6393857364720663 0.27799975798308896 1.2198061588160216 -0.996569869727058
Ni 4.646510307948313 0.2561910652447262 1.5881090469135175 -0.11451307814893182 0.4790379137084589 -0.49407629609882
Ni 6.529201557737753 5.851796713754756 0.28260793929914996 -0.5710322419295842 -0.3993596838505251 0.47059415381647984
Ni 8.242409379944585 9.083015084038065 11.376484120589218 0.4102968995883192 0.2079155995714935 0.5956865501431549
Ni -0.07140881080473888 5.028898913915078 5.7881412659711335 -0.22704486420177672 -0.569758003202851 -0.6317457577595571
Ni 7.89728761470145 9.117911144583534 2.574461197975034 0.28768021849564646 -0.19048711968240098 0.4414787245077622
P 8.390428128529537 1.785543972796644 3.774131590274825 0.6266791418699272 -1.6852699333844718 -2.0017274811231265
P 1.8757521585756696 3.239370206742063 1.8975952505633027 -0.5342538967589703 0.7880186934540945 -0.9434195109563236
P 4.829643958325948 1.0912062873103963 8.267501352614829 -0.4691823610706178 -0.09483462588339797 0.45340401519043844
P 8.699942599173754 1.826558469878829 12.530017306944936 -0.4468042504857338 -0.3608481580388882 1.417338358270662
P 6.341700200801122 7.823984915269772 1.3605916560851183 0.6572279611910617 0.1392789722397021 -0.4647878315473479
P 1.9701821567488815 3.109196138190424 5.916152453529466 -0.24831020133845622 1.5381321272219832 -0.18708452175875523
P 7.035116929372006 3.9856006229741348 5.918555148056178 0.0417310611901991 -0.1065799393447842 0.5797660222581563
P 2.323236917203555 8.3825133700886 10.41895792097855 1.335048144711178 -0.08107279621261522 -0.1276025643430383
