# total energy = -381170.2933303714 ev
CRYSTAL
PRIMVEC
9.25003502780037 0.00000000000000 0.00000000000000
0.00000000000000 9.25003502780037 0.00000000000000
0.00000000000000 0.00000000000000 13.53836127105125
PRIMCOORD
 96 1
Ni 4.2915815184506 1.6258416632115498 2.390888013335595 0.6495933274639393 0.3479162804685686 0.7068998744948922
Ni -0.4279574972936402 4.40630045332509 12.243755263408858 0.3193922048869467 -0.34066756932595527 -0.17130283344446626
Ni 2.252365038225174 3.205118649906555 8.398129960481116 -1.1585516828809144 -1.755285700451977 0.8399832594468437
Ni 4.86103217711399 3.380110813263724 4.659267637268574 0.17142367529304672 0.42550754589048656 -1.1569442291844785
Ni 8.272620859703459 6.332139253760431 9.500815540521927 0.0812345186014601 -0.006099170919202399 -1.283347631013093
Ni 0.31364833897252364 6.9062334300263855 5.313901868844332 0.641668673300224 -0.11811647922947399 -0.33648798402696883
Ni 4.623852028015715 6.774873682070198 1.1102252836221838 1.2206780198980138 1.708419889138374 0.7309039507189735
Ni 4.7527235165394535 5.645777401912178 5.540655378417488 -0.7864428643265423 -0.21488123225604927 0.3223088643131094
Ni 8.283933652587793 8.712450777002857 4.096626854419941 -0.4221576555816472 0.2523236933732235 0.6398128510384077
Ni 1.0414244478132035 2.6451677772547844 3.8799864081832043 1.3346583654719273 0.5773810669657475 -1.586542657314887
Ni 7.267909801062715 1.205381319337985 8.299624487068328 1.3976326523116187 -2.4095196120117213 -1.0456486295315797
Ni 6.903856171014715 3.6996902747198406 3.3191595572107904 0.16722172139655717 -2.4354311896711605 -1.3314162043855458
Ni 9.18069680202153 1.9539866571377342 9.683976409844881 -0.9286341251170329 0.756100247478943 -1.0178709451976793
Ni 4.575085843153732 8.615917411065897 7.034844067561294 2.192557071746611 -0.38172140194347165 -0.5461213376205175
Ni 4.915727634452553 0.19609704336117093 0.6236512391259829 0.4310529011887479 -1.408830063689335 -0.42396694087624404
Ni 3.5350859007405186 5.879766288913073 11.60540849357532 -0.27368724665066413 2.416040958070007 -0.11523581524756928
Ni 6.6136363208544875 2.8388912616183104 12.261518105743923 0.7202631831756756 1.0071895542244331 1.3670452664430648
Ni 1.5074319643461773 6.706922924483679 10.047007911018214 -0.9218047609000254 0.8448364737740869 0.7642583578097031
Ni 1.679279115781291 2.4908956924429195 6.240629581867201 1.6618883212357376 -0.4394418965833916 -1.030282945708787
Ni 7.149546352372667 8.836567747503253 2.0028518173749115 0.4682513646159161 -1.05357894012225 -1.10396150633986
Ni 3.743970192575363 2.274259871223716 10.247415470719613 0.3281231570020413 0.08310705303382461 0.02019627244221683
Ni 9.089778207368942 8.697965222091273 9.152365794624851 -0.8918164420680511 0.7899637329956073 0.8698821038888052
Ni 1.957917922040303 0.35150780748952093 10.136617625709121 1.1559448413856865 1.2522426820781725 -1.3607396359400112
Ni 2.5861248034357334 0.7602585319744696 0.49772126175287296 -0.8041559653355893 0.3627016663078592 0.01979698012126913
P 6.793484752620712 1.0613860234831882 6.266649930504674 0.7735109867562227 -0.5090871676853554 -1.0062552153356217
Ni 8.928106094505184 2.5930900798395786 7.25374614737139 0.321730108991504 -1.630907299473191 0.030384011608496058
P 1.0766300812700904 9.149413183432145 1.945395224569485 -0.4411766198863111 0.5430285576278068 0.0313808283041266
Ni 0.21645452053193193 9.488130967437474 6.3664004586371945 -0.3797321394275847 -0.302055513380712 0.40627440869248743
P 5.317613907915864 6.907639435356246 12.458135926079246 0.5605290284054153 0.33452057588795286 0.6725414516196804
P 8.628552958964507 5.110431622532955 3.714560631090122 1.2251720511136253 0.7844070648434361 -1.756939176895
P 1.2818143590789874 1.0326831646769035 8.150743322692268 0.0177210714288469 0.20316908602544362 -0.5685045904117241
Ni 4.866822699064597 0.27302033496061134 9.190895890684052 0.2823397801193395 0.30617827729983393 0.30895763981718405
Ni 8.256442548375004 6.89085062171351 11.816511868822225 0.7155413522199742 -0.3166282689885644 0.9959633464913107
Ni 6.873599306317532 8.404887111096004 10.747346565849483 0.19234191350295263 -0.29910414406187197 -1.7211581626406487
Ni 9.005205136770856 8.415015899492033 0.45324431815046917 1.0006982900731347 -1.1857801795795644 -0.09047943423849579
Ni 5.017589020586877 4.161322524667132 8.953405865411103 0.45589104327835034 -0.6347290087575972 -0.22862223599122564
Ni 1.364870423926435 0.30927029737632167 4.149047728136052 0.3217159679241169 -0.6732315357081696 -0.06338180669075535
Ni 6.511941435351332 7.9457708706863555 8.339048136514794 0.7194075200435998 0.40891441741849577 0.2747141452532817
Ni 4.189942133157833 5.15140927787032 3.115853961523568 0.515012532030855 0.6291810823561744 -0.8452501642727379
Ni 2.690798200229777 3.934363664315536 11.925969383751818 -2.4104338962958742 -2.0271137824067154 0.36629966807176273
Ni 4.6036962016093685 2.4201699243369403 13.31320454245809 -1.1668856566679067 0.3623021168765954 0.24022408189621205
Ni 6.009313029996546 7.532109302585469 4.330326215323305 0.08050175420049362 0.5769401227735871 0.4449016341463822
Ni 0.22328012140629788 7.23711643433177 2.8682647479667978 0.4220681811916344 -0.2367572063935342 -0.002517624215531148
Ni 1.8181128920698915 5.0709987230514235 6.772931174706576 -1.4183192341266928 0.12283753885422714 1.181229069873772
Ni 6.390580975300266 5.61518753595266 7.364164740944223 0.6290484134330521 0.5931858952084881 -0.6435175535835046
Ni 8.224270926419395 1.307020704630752 13.351775338671576 0.21146012238964224 0.5147140269538296 -0.1760506325420968
Ni 1.4936586621345893 5.0949285637642365 2.8364085522069 -1.207139619091947 0.7043115449424256 0.21967608254153134
Ni 6.363284121823841 1.9153215105665868 1.3471640068052653 1.1800875000701612 0.5137220953542055 0.005418085691777766
Ni 4.261204403297574 7.876830359347896 10.763471226974561 -1.3721111110017465 1.5041236314870223 0.7706107823902922
Ni 2.6756836429337834 3.2501385705672665 2.2710057088878957 0.961375324103796 0.10755361611196315 -0.6419540657511267
Ni 3.305296529659073 7.943606362481177 13.071233800199721 0.09617982705738273 -0.28201762089323046 -0.4860570253387694
Ni 6.723609987740701 5.283388778175853 -0.17220420278861748 -1.091300880153056 0.11598246360560671 -0.684243570547957
Ni 2.9859760691847725 8.054431032593358 8.638382046224434 1.0080439318049286 -0.3285859555710728 0.3683151558398947
Ni 3.8310037725007033 3.718514096076847 6.844087994446578 0.3820211925720775 0.8099905697394953 -0.506820740248682
Ni 2.8818206743543615 5.072404728381284 9.369588068067168 0.7388926253514049 0.7794507492794254 0.11019208217607475
Ni 6.895244388369322 3.384014328061098 6.0752445049284045 -0.6751387800332115 -0.4599685557818336 0.06795142833930878
P 5.264490956538328 8.549196908143005 2.694905215798578 -0.7753153869548132 0.20171898384247838 -0.2815969884160441
Ni 6.804982546206342 4.9173741406941 10.835698275771568 2.7927862469551257 0.49859089613972196 -0.9646341973607259
P 1.261482782006408 4.652693637347973 0.3744978446397433 0.7998046303454289 -1.5452769657968808 0.4677227458059558
Ni 3.845184076255146 4.8752309809385626 0.33758465470988197 -0.9549496230831103 -1.170995565071222 -0.08379070936441053
P 5.395240202180234 3.886291232083418 1.5009439897516792 0.5001135034318355 0.5930794515376109 0.49883643649162474
P 2.573073003959205 6.9200622324483625 3.8568761205771387 -0.29891773908267877 -0.46261602070700975 0.1706186628932481
P 8.667560356833054 5.926358715534811 6.996029070422096 -0.2589196014231864 -0.23456816916201537 0.9773202774688265
Ni 5.1814071415856855 2.0673550868927535 7.705507684900961 0.408431050024174 0.5716426218200735 2.316321750400798
Ni 6.506900166240979 2.412908646811019 9.857971419422055 -1.8591852647511204 2.0627400162507574 1.0736196608232091
Ni 6.376918673509456 1.0219531240016568 3.9100684472176606 -0.48573820854676986 0.17604060523976778 -0.19386014991969194
Ni 4.751696762647253 1.382158739462673 5.753139783899578 -1.4099423229169072 -1.1010641301874071 -1.2918456411817751
Ni 5.216252023675042 0.5605289998433252 11.520766047714247 -0.5391765308715682 1.8349788427082463 1.411237644689563
Ni 3.7546262329700903 8.753900184128529 4.565866333204579 0.7932701716610209 -0.30792919855266965 0.3873783431189328
Ni 6.802401786423245 5.463819962151164 4.612384759545798 0.31265102950837126 0.48968999410566627 2.2002420990956946
Ni 8.879441660028915 5.907673644703779 0.9833943528337556 -0.9185515440700504 0.2657021715626586 -0.6433293488320985
Ni 1.3609484090589312 8.646340776394247 11.94998617479424 -0.9665499263261998 -0.8611406102507493 1.6874635986016808
Ni 1.2897878893049035 6.222979589959927 12.426279730319347 0.015674473312463327 0.26581478588112284 -0.6511051361227754
Ni 7.742519850206016 4.023682002901899 8.356458552513887 -0.31079006504023243 0.9275169807934543 1.4555403232616804
Ni 6.768546658085829 5.804443253379855 2.1748562194061276 -0.34345413093215693 0.17005199175650068 0.38236109240999955
Ni 6.904873674871849 8.585401545386897 13.087316836167005 -1.0499814525789788 -0.610834975748819 -0.44429691068284777
Ni 5.279328012782376 6.420338338103946 9.58724509315753 1.473773044219623 -0.8540772756460646 0.5764595835927426
Ni 8.601885107872492 1.293238152384099 2.29041968248204 -0.15098160538861094 0.13465150077001972 1.3546039553559186
Ni 3.2021401386156674 8.792639330980196 2.343869160097366 -1.3264393199962448 -1.6818205413832907 -0.4098089042083071
Ni 2.599158102842132 4.347433230172271 4.774208572984621 0.3465314843059 -0.28134142076181223 -0.13239047264998488
Ni 4.946437750867914 4.2121052171732565 11.451003208258522 -1.4117708914852138 -1.6973824003772897 0.2058512608432971
Ni 2.5783455239461794 0.1777135236732527 6.491955809590178 -1.1904300196467499 0.5226901031807708 0.5438893629662053
Ni 1.029010900756151 7.451504497030211 7.757386506562272 -0.9651214214097895 -1.482925914363485 -1.6200256195636809
Ni 7.50189868806361 8.124370547718822 6.2398174287885055 -0.4495476175588258 -0.34153274553972796 0.25160841247375376
Ni -0.06728198005132875 3.9569522499439436 5.429275706201415 -0.11106085793427324 1.854509713652322 0.12479466258059797
Ni 8.245129755490671 3.5839075858128906 0.9374152035368173 -1.3257245533174074 0.2897335014802494 0.3734974713717826
Ni 0.731034896194033 1.9567524176221296 11.704604019603948 0.3964072860904206 0.1669432709241899 2.220396462556382
Ni 1.8831221385057821 6.726551498891328 1.0844001107245793 1.2736039213627677 0.7744502107410405 0.4366455647851771
P 3.2220739641804577 1.8942036805134936 4.242746883329137 -1.4458994577378066 0.35537222252598155 0.11302672341139244
Ni 3.0310052398805487 7.005856307675011 6.24284959028277 -0.9083524920498613 0.5639072008490289 -0.5010478423206467
P 2.829095474484615 1.6509185082724063 12.173653872669757 0.20490843731405353 0.15621431454246 -1.67572522711883
Ni 8.504121487271904 1.72062677252125 4.748931927166364 -1.272898410655311 0.21108217022493325 1.0513307675180217
P 9.163232735819058 4.308324081918011 10.07367761211724 -0.062239722666512155 0.25666448684042253 0.19940267700447595
P 7.434475182475789 1.226989401249516 11.266732334727783 1.5772386063051418 -2.0409846268515364 0.2337420737162942
P 4.316010861056916 6.150394564805909 7.811146785355776 -1.2992966981431817 -0.46205500599721716 -1.4829917346044137
Ni 0.8375536749835177 2.393021071421553 1.1005007217584881 1.79265385668779 0.5040547474677707 -1.181962862716003
