# total energy = -381169.0579208906 ev
CRYSTAL
PRIMVEC
9.26004914003522 0.00000000000000 0.00000000000000
0.00000000000000 9.26004914003522 0.00000000000000
0.00000000000000 0.00000000000000 13.55301793654869
PRIMCOORD
 96 1
Ni 2.896515614103746 0.1341401469142781 3.1100514229819356 0.4187576287611627 0.32623622439197364 -0.4070066588728216
Ni 7.370462091775062 5.742267638414378 8.473698799144223 -0.5846853139366446 -0.9528767997144815 0.4080867793108778
Ni 4.85766439701591 7.227949934366082 8.083508105398792 -0.9980631664431328 0.07154377367625743 -1.9834081139886486
Ni 5.0175854469478836 7.72242730236362 4.013618319166489 -1.8830481874116474 -0.8284706308215538 0.9547601327801236
Ni 0.4179245411424351 4.780926369176519 11.071270392450987 -0.10418804207383991 0.013930236927846977 0.18232926646195696
Ni 1.597071427951224 0.336311097391685 5.04143840771915 -1.2447954817715077 0.6382362505799073 1.0014976460459784
Ni 7.668515295837624 6.01967093272892 1.2114301963848075 0.13212487769342407 -0.4844230892797722 0.16062144247122012
Ni 1.1020940172961105 0.5731062978865004 0.17751236542449123 -0.15393477447966392 0.682861859709082 1.026647920059361
Ni 6.45364313915984 1.4481142762890504 13.340859376629458 0.302285370003331 0.7153505763654068 -0.3394360109116993
Ni 1.928247828053547 5.243586208073521 6.984317113531384 -1.2816805277233152 1.1645912042067748 -0.9836099671322801
Ni 8.896471902055296 9.20583162620859 7.005242972745992 0.015780145652392177 0.43382583594819474 0.6364771017969554
Ni 3.7034826028890317 4.281430054504799 0.8190809851675095 -0.5337641016067453 2.386357572072961 0.004367790050392477
Ni 7.740123256412259 5.733063149495305 3.5919703122349604 -0.7358003595793263 0.31774335642961404 0.8250112115180437
Ni 2.7631709054169815 8.565915925250335 12.832254877550495 0.4484785528643631 -0.27905828115459036 -0.542895374484052
Ni 3.442839997652478 6.305037869367811 2.5423974420728492 -0.029527577145471724 -1.5738907728788314 1.0565575631345998
Ni 1.2155388802212184 0.5443955152973814 10.985927000876693 1.1151460622017697 -1.255177082116148 2.082815189734078
Ni 2.6054444871488105 2.2498771174158665 1.185104802473307 -2.468016065585717 -0.4734691613714298 1.0706250969712594
Ni 0.3146333221808714 2.318244060765476 7.743082768141168 -0.2514780575434766 -0.5686976802591367 -0.051989762803729814
Ni 4.082042674821229 9.242325480162378 5.7684763557057765 -1.1795074591969752 -1.2905719166756742 -0.2544245417663102
Ni 6.38185923765013 6.927878039574789 12.946642413485623 2.6970121399765943 -2.2940171733663264 -0.4276670154356505
Ni 1.0791753954905727 2.50784356842947 10.01187168406752 -0.34173791957199856 1.7304789258209423 -0.8124421166037814
Ni 8.552322173003656 7.819852280147887 2.856027900923806 0.49358547250533064 1.0303528797147739 0.9522939306278181
Ni 8.555720611065327 8.993424617329632 12.621464673264363 -0.6702048330667039 -0.02554648101053665 -3.3850437168120737
Ni 6.085093180428364 3.78450803351467 13.493005689241055 0.446956716903198 0.4186337015887887 1.3478969756493882
P 5.635915973187469 6.047367739929067 2.8331231691920893 0.758545623695642 -0.24483766940882348 -1.3461077449594494
Ni -0.11424770919199286 8.84850484712492 9.40095567923387 -0.6232490331424556 0.022000158420175015 -0.34586659702839145
P 1.3992952968309516 4.037307377066662 2.2129906373753903 0.9967254214683157 -2.2710127420513535 0.9863510202125272
Ni 9.114166399035653 2.679348939928607 1.3252408312538826 -0.27924545746473195 -0.9834919534971772 0.03614251135882808
P 8.377436883541279 6.235596760309336 12.629217186466624 1.038739304006256 -0.6743026572851613 0.18291342110020112
P 3.5146701994082585 6.442781101431396 6.028748558973756 1.0810889726170607 0.338393685690114 0.7339327102429682
P 4.784009965564901 3.422967932038465 8.708085460838385 0.6941104360397078 0.48502164209571946 0.375275903428444
Ni 0.9163272440019399 6.716202574583765 9.242846820933147 0.0785986236405098 -0.9489862064108237 0.9656875783259045
Ni 0.8963968400778758 7.2227272666091835 11.641582007484594 0.17329903793888862 0.5153742862456479 0.2677809084685582
Ni 0.3496696443883188 1.183230568512321 3.037637838125651 0.8788758227469831 -1.5419399310038477 -0.6163211956743708
Ni 6.934637875501271 7.979588129095574 8.489597377640356 0.9097910242686008 1.2136185419480712 -0.0005913537270957558
Ni 4.421979081480334 0.16511593754122927 0.9237630635210698 -0.6054711403337443 -0.3819728558326454 0.9108294928354443
Ni 6.3426614493257505 3.9767466552047557 2.6603899151671286 -0.3618596300225381 -0.11528955130364016 -0.8542392551452257
Ni 2.5628112205659033 3.6248184848130545 8.307512399913815 0.692996891260555 -3.0534115182155093 -0.11828411515558984
Ni 3.596186412642258 1.9132095081294285 10.373358077258281 -1.1793493363525562 -0.20395224404837134 -1.9057271170664019
Ni 4.3453706943299455 1.607942725728881 7.475329371112909 0.9926399385450324 0.6006742331657332 0.4266460303703039
Ni 3.177122885446457 5.756009551448487 8.908872959963167 -4.658955913443879 1.6103333319765814 -2.354254263780513
Ni 8.572564640586245 1.563096307383742 5.129654266559737 -0.21486040632044287 0.20275256731331534 0.45805462658857243
Ni 6.139653390399365 3.1313226820322386 11.02673511175945 -1.4099711192723137 -3.0685943966035345 -0.8182016447953779
Ni 7.74877214237847 3.424440279863548 9.248077822734338 1.02920951013895 0.19066144047673617 0.2792997077414351
Ni 6.3020376134223595 8.044491814039015 1.9926051700933398 -0.41968913943649655 -0.4954505507385273 -0.7204025369670174
Ni 7.957234370292112 6.940379106014173 10.620551387015901 0.038316893302327557 0.7897076511207433 -0.6922944658768916
Ni 4.9093817718781025 5.604468846055506 9.749932671940957 5.627474790570991 -2.179704898374291 2.1972645045246093
Ni 0.2590535807913693 3.764163705390724 5.9709176996202435 0.42977043493189854 0.42904075585472556 -0.6461850731133387
Ni 6.851334472768901 7.021691598165456 5.900861723293935 -0.5434306781622318 2.1309583250982076 0.3407534441715422
Ni 4.663990467697598 5.030808797225988 12.290513292357948 -0.9488980175723917 0.7006878321469093 -0.6718081729980817
Ni 0.3072956591834136 7.529771978458888 0.4885416764511342 -1.0293429503930207 0.29240230656166416 1.420878510213437
Ni 3.8629869506063597 3.266093438298015 5.883311152017961 -1.0309655735981083 1.0822840213664264 0.6428140997585768
Ni 4.750470067310493 9.317554119979828 9.177588476104797 -0.007714595035438327 -0.3904623813608952 0.6048815863788615
Ni 0.8129860207746187 5.943664448777465 2.622807079425733 0.009894633405892637 0.9263419866487466 -0.07647566376023604
Ni 1.916107903533523 2.5735250975069164 4.039897412831917 -0.7552857219974476 -0.10354115251846041 1.117161807080218
Ni 6.465875664172007 2.877958475478171 7.210923481875641 0.015019356226967682 -0.10224043142916585 0.386314934851425
P 5.254050063685747 0.5151569099030439 3.010098451762148 0.6213027080493623 -0.4929231563309834 -1.739379570744682
Ni 7.339663168088104 1.11494696560564 8.510942717084374 -0.1258022779095059 -0.40442270019572935 -0.08069921492328037
P 2.8348714664837606 7.990070504806228 1.5103751431867123 -0.6330562490408647 1.3772630875163312 -1.1561600427202865
Ni 4.458685916566052 6.839037127412232 0.3257250091298302 -0.971998351035281 0.19613351933490092 1.3930337200870269
P 2.377360214949942 4.7206156686434015 12.460617618410954 -0.31894560426783136 0.11567161723340724 0.9998914779011232
P 5.951220648936381 0.014767000482137756 6.720535351611163 1.1153877458989305 -0.21846226473908828 1.3841438737965646
P 8.554924246832892 1.7788276739306557 11.019864155242395 -0.8950375201085102 0.1463980997829866 0.20953899410752946
Ni 1.4517627356795078 2.568524670931162 12.399236456188653 -0.7931120488166018 0.7391060269137916 0.5949049347821238
Ni 4.343861306308004 1.7862264532529284 4.313356852186065 0.1867867880126783 0.04893092137274799 -0.08671225388657969
Ni 2.443967748948824 5.048421410831698 4.703412349212965 -0.31967091246963014 -0.9345515190427325 -1.0722528623826695
Ni 6.783180510551221 9.037882113607768 4.39620558650201 1.521467779192425 0.9460662045505513 1.5033854677694172
Ni 5.486597679605935 4.993611179531909 7.085368326587994 -1.5557053602190563 0.4755306718861488 0.49397139508983956
Ni 3.2603892479819696 6.699562266145562 11.210609130994206 -0.2467120036134009 0.6155341809967012 -0.029753577113348757
Ni 2.3341991255618164 0.7652569491090497 8.338711357726831 -0.7950146651559534 -1.5483463487508238 3.2767527083134533
Ni 2.964049153024064 4.0929232326481 10.619454071183998 0.15391677675753493 0.598950051385775 -0.5266670855506478
Ni 2.2162168385216727 7.435032414946785 4.579456404424639 1.1138258007284494 0.3729223155946029 -0.5211374139816702
Ni 6.839898311989168 0.2764041350043131 10.878194662311923 1.1856367120231646 1.2460460663491575 -1.0472414279399964
Ni 0.5356642148931625 4.641358907417706 0.32967071610006843 -0.3930298849777554 0.7291777120564862 -1.2524627685087786
Ni 7.416780857945283 1.6100910571466123 2.894328390479315 -1.8324614756030309 0.753440955479225 -0.1417135498231237
Ni 0.3774997962971523 6.1769713887332305 5.067961040678916 -0.874201042979133 -1.0885233174079187 -0.7269400809752189
Ni 6.7628084022796315 5.060116852989433 11.458724741653574 2.1055074891252707 2.3662916545610213 -0.1080143577984656
Ni 6.465458961957361 3.109922708297856 4.9083742785235795 -0.20307498364974058 -0.4038606570446722 -0.509637897982503
Ni 8.680184932555521 3.61369716570661 3.696924636035423 0.6911330985789388 -0.41808862771859606 -0.38103028941371797
Ni 7.896581047938064 0.13614865158887252 1.0467596672107888 0.5973503109988229 0.4914319164974375 1.7819626955225312
Ni 3.6369861894807225 3.6050297596419703 3.0648929409782726 0.729707359307711 1.3852209089108272 -0.34732184141767924
Ni 4.874517686586042 5.087378437876505 4.639387442939969 0.742216033297683 0.728291709907107 0.45523644041348693
Ni 5.618979343174407 7.624715263053707 10.666252507903524 -0.5523917440102616 -1.8370197843976752 -1.1799422327415485
Ni 7.486694229513692 4.967238559369416 5.914645306549508 1.0362800438324862 -1.7697350431080878 0.05645242656077375
Ni 9.056930034841704 6.571866187479556 7.209527992459036 -2.3537089328000045 -0.6019656982836472 0.09730956978645176
Ni 5.444640396615677 8.695547354202143 12.577214602088628 -1.7667728751559701 2.0832193671510315 0.5580597409293163
Ni 2.1441829156831766 6.338762968606506 0.32280994563715015 1.1036668579175768 -0.6824430270041085 -0.25659301017253877
Ni 4.822911432314422 2.356784385595637 1.3277919748124383 2.317427324760151 -0.16356304159804735 1.4977059008861369
P 2.411594616895426 8.39511431749149 9.834232455968792 0.23184845623800715 -1.3239425217163197 0.19375910556545342
Ni 1.6104058988199004 7.699203098934008 7.260053598987342 2.9748270356423863 1.700762372593116 -0.7670076384200661
P 8.89851837293167 8.14548191077081 5.229134049264672 -0.2273945342317116 0.25135078793699295 -1.4495720214933874
Ni 3.7634599416504324 2.6948224821658 12.716729281566922 0.8723925290154847 -0.3334383985673677 -0.6141516988268777
P 0.5545000810000895 4.474798402199037 8.770700061616035 -0.7525418407037233 0.01738939912104102 0.1022579149306626
P 2.252293990260814 1.689894161275955 6.617450631747079 0.024909875867802262 1.9681038795314105 -3.2120922920205905
P 4.989786779206378 1.2900267161015193 11.667603671781864 1.2534984088621444 -0.997471812716037 0.2678356729658936
Ni 8.209163269217955 3.2837616121990107 12.739389547999377 0.045040328069090176 -0.809479948651664 -1.3480072759750075
