# total energy = -340861.25968889764 ev
CRYSTAL
PRIMVEC
9.30355333585968 0.00000000000000 0.00000000000000

0.00000000000000 9.30355333585968 0.00000000000000

0.00000000000000 0.00000000000000 13.61669072461673

PRIMCOORD
 96 1
Ni 8.64154975597367 6.828091823334666 6.481558648355171 0.08703364178174043 -2.1404816912076106 -0.08926870175984626
Ni 7.9117045987065495 4.006770647121516 13.418785804870058 1.1212961409635658 -1.2240286815378016 1.1862470919136539
Ni 0.8702376388114865 8.399331743156907 6.756342819499718 -0.02141600378193086 0.5454780476095639 0.5867218847506992
Ni 6.461401569554757 7.0277088651244295 6.07586231658273 -2.114991774466622 1.9594888841688896 -1.3706250133745235
Ni 2.5076146590566895 3.6393640197296646 3.9404800380674234 1.162171796132005 -0.8756714568770725 0.43393227961907205
Ni 3.6924593989939347 6.592088584190327 9.81891443897584 1.7540993934533597 -2.209362059119092 -2.4640889626171694
Ni 3.066423290584483 2.7667744426181944 9.005003303525081 0.7422024064509283 -0.5735421528356315 -1.1249347661574174
Ni 0.49505231042036185 2.4783363765011157 3.4553983458278075 -1.5155575843555769 -0.4288214407550679 1.2534765544852735
Ni 5.220084260468374 2.0270116974247165 11.419597314248866 1.2817975129171537 0.4329053810164544 -2.067230190811627
Ni 2.974746075362805 6.928179450831603 0.670711771845061 -1.065377989639707 0.9999840376149295 -0.11582716897466502
Ni 0.31761028816387116 4.376838090786291 11.550780208280756 -0.5552212430392567 -0.35708329167981734 -0.47791434162697694
Ni 0.10750535062421951 4.261715920991989 5.565113981218133 0.7414927819784134 -0.026412942775889996 -1.1883643953669727
Ni 6.807028578432912 1.300366962527826 4.087703188519415 -0.7592405928801376 0.358612326729834 -0.08069612959948683
Ni 1.3516202382185327 1.4913596103140887 5.52442768148123 -0.5303172807087254 0.14782711892002928 0.19949240850480482
Ni 4.655628372025667 4.22901393078454 4.914277390505411 -1.0455856375041281 1.4004593231271365 -0.7536741545359537
Ni 2.9040018552952547 -0.09386448062644961 6.799508516218209 1.1151794865428666 1.12249658902957 -0.5854551022231336
Ni 5.516700150025666 6.730032370479329 3.709854252789345 -0.36980202479806634 -0.6280179152860088 0.0415827085377929
Ni 6.200315950439071 3.0272274201025544 5.812515933990399 0.7562200608862588 -0.9325478583491422 0.017184996419718792
Ni 7.10149534715438 1.0906369581902682 10.172308054233849 -0.08676676127359896 -1.6041305455999793 -0.08326003367192111
Ni 1.5210100350057356 6.490047210479005 5.295449555510617 0.32083202265726685 0.4153496315208782 -0.8228496850903505
Ni -0.06458061593883498 0.21475113210852786 2.2028814191562973 0.7264096623930458 -1.4354965172369278 1.214734143609753
Ni 0.70006820424921 9.251053449988062 -0.08746177517530702 -0.8696046818577025 -0.8217572233571202 -0.5673429660034552
Ni 5.640297856969039 0.4690944660739031 1.8755358927127463 -0.5164706046336202 1.744014498413532 0.630943573573236
Ni 3.0469881675280512 0.16293033966030904 12.192875180217113 1.3100449377986212 -0.4510429711574297 -0.6134065931307371
P 8.38221320489753 1.9239190221789872 5.654480193774796 0.32711836988661086 0.8129211131227291 -0.08435172407420312
P 9.3617936461301 6.964091166962684 13.17259610510605 -1.2291564896826703 3.452728521753557 -2.90819972543114
P 6.673373730262155 7.997074004721783 9.91109869785792 0.47863682161529825 0.399755376627047 1.2318443209274785
P 8.076098387316966 4.772276324577869 2.078683633018506 0.02826233727980294 -0.3870878084617076 -0.8336285208734094
P 3.9982020744384257 4.757734870610801 8.305037438363293 -4.103275728490333 1.5122640012059698 0.13957284933103703
P 5.2871256662819945 2.1988855429702094 8.892856410108687 0.8641143481670924 -0.1775372443899523 1.1702052079594425
P 7.008943597912928 5.201374814577285 5.61860104008062 -0.5475938084009859 -4.203808433199773 1.4183883968017312
P -0.22729790422624202 4.235759007000871 8.876461688303975 3.9023900391824276 1.30679943427813 -0.013701665856808662
Ni 2.0918295539752982 4.7882784364290245 9.770288486765812 -0.5573151494538079 -0.5723285921435046 0.7601746746586328
Ni 5.06001662418981 9.024846852575855 11.026428217131995 1.243802264620303 -0.5240075364406137 -0.33332938379332916
Ni 7.727345384495794 3.47083014985543 3.9757609732778603 0.06100739292130783 0.6021587881310597 0.13727685420800875
Ni 4.535733479336224 4.190953093817635 10.30451247842926 0.5796454375198922 -0.26548748444869114 0.9254557273890512
Ni 2.051917309881428 8.106353542979733 9.448458106778869 -1.3759322845200497 0.02605710209836803 0.07726653509264758
Ni 3.708042850942008 2.358841536607952 12.995742067424557 -3.591281414460512 0.6296947887677994 -1.1776364674265072
Ni 5.704622625189323 7.001919415094544 8.214977180722853 -2.2190787721862235 1.0150440172718453 1.0833805968647148
Ni 4.855375663563056 1.4372966614960276 6.810932349440322 -0.9979878331205071 0.08653793309224452 0.5169236330106388
Ni 7.356459228131657 8.444714476651056 3.4043088126769727 -0.257775203406098 -0.7099859696193837 -0.3329198070597363
Ni 4.105862794404455 8.313180838655919 2.5890095870586602 -0.8464189877698584 -0.8398210228373666 0.33713950156803874
Ni 1.8336745541811914 1.8082014249669682 1.8778645721292255 -2.4007547213348976 0.5415501733100674 0.6665932044560455
Ni 2.6765392781738004 6.34407445760422 3.0046048996506527 0.5226337960215386 -0.2757446434003251 0.8976222501165508
Ni 3.3026963327774754 6.9430930469347425 7.441480681249663 -0.11441820444228036 -0.721325563001919 -1.132388137111669
Ni 7.218534048949459 7.64050601704307 12.397629644195371 1.8834117413986529 -0.3595024426442712 -1.2314005485218407
Ni 9.351745808456117 6.8432938295932635 10.760929922637821 -1.260587711608758 -0.36518663751324204 -0.5411601369605002
Ni 5.290977337390355 8.920414465640262 5.078317644086559 -0.8309196065826786 -0.33085598255217213 -0.23377035585106834
Ni 5.638567396036297 3.4212049960100446 13.412113296370263 0.8827597311824216 1.1117066975029177 0.2912000587234469
Ni 3.853866746962363 2.3371456500748735 1.5662467027114761 2.2610438037640996 1.7236094523946186 0.569614021425819
Ni 2.141910581937374 4.704509241598906 6.567588606661936 2.5700438667834447 -1.6347289872121264 -0.3236872327178748
Ni 7.960659896707003 9.08430586236698 5.803774315214036 -0.07332169151228662 0.17583414565591654 -0.007444886313819436
Ni 0.4395435894036558 5.315017719380696 0.5971792768229808 0.47699388669523657 -1.3373577666809613 1.0997235569991126
Ni 9.142611231536279 9.231441559416995 11.111900892589992 0.14912809711963995 0.36411140217119226 0.596592864007508
Ni 1.8142487346781608 6.3830563463579075 12.080564544260847 0.9102401959908775 -0.5752532219894674 0.5743294246236174
Ni 7.831266075994287 5.860578090864276 3.9209397848575502 1.1617293092779477 1.6577254481073 -1.3291312650061111
P 3.793998380821558 6.851704241868522 5.092043176420286 -0.5646237673000792 0.3213709258798723 -0.16741326858207298
P 8.835510237295118 2.0722920918314456 1.445806621792686 -0.1478263475890809 0.9698352819456909 -1.6606009698828819
P 1.9512993798405867 8.208878701467949 1.9168892572285612 -1.833696890672029 0.7544400861677008 2.144388996681817
P 4.930883302972346 2.4358098339013297 3.3312284703502217 0.9666257738694579 -0.49664688503947363 2.468643157646755
P 2.69489518903562 4.3981804422901 11.876055694092399 0.27945088860731876 -1.2065451800410576 -0.23910642335200114
P 9.048682556391356 7.4913607524582595 8.645727051451095 0.6463241697943642 0.48014091696465044 -0.3028129603720269
P 9.142871731031528 7.584442804243614 4.268355867054879 0.4961540045634552 0.8167793105265547 0.7959634022224679
P 1.6341691550322501 1.5390682321586966 12.061501563340489 -3.280413959215125 1.6964385484067817 -0.47695223482402366
Ni 4.095098583118533 5.46672146115101 13.248086998119216 0.552888481141022 -1.5184775862158493 -5.457337952410169
Ni 6.740759367551644 5.910110209175644 0.6258425944986931 -0.7177632995719574 -0.8940705282095506 -1.1223412943986284
Ni 0.022067098313811522 0.33107997277904727 8.809385859342767 -1.593104369692805 -1.209884785937252 -1.1600529500167893
Ni 8.557203740832637 7.177635628194994 1.4710518139485642 -0.183602990968058 0.9893684668826122 1.6511110281145758
Ni 0.5210027119240991 2.5340553578247027 7.682836254666078 0.5245487536560643 -0.13770519999467898 -1.515313843775887
Ni 4.381713152768852 9.10996506264924 8.810066879451782 -0.6252604071455296 0.4306901185326905 -0.785908331979311
Ni 5.015154889686164 8.046420051965114 13.091971511325752 -0.5245778071217869 -0.33366748385903827 2.0924707105459706
Ni 1.1059319999828843 5.859350021815235 7.975513950068372 -1.8457679629039503 1.7883218049713394 1.3767635221720933
Ni 5.8609502330003505 6.138996229967579 11.11574046907893 -0.6305234553166819 0.8265027084619057 -0.18004766951663187
Ni 7.45485360890946 5.935369356661625 8.938444752133018 2.469322957322599 -0.6017798075250862 1.4016870248866504
Ni 0.9191538618876525 2.0877080798182854 9.886220996061413 -0.7600602605679555 1.7776933787232159 3.653987021019849
Ni 0.7999083572256579 4.849188800550836 3.202250518474568 -1.769297955570669 1.1837459227583549 -0.4687640425862766
Ni 1.7200967742515945 8.83227260071128 4.272100547299117 -0.2604339811851837 -1.3032870502494973 -0.6060910333059304
Ni 7.237401655248379 1.56002913797303 7.639808250537932 0.17266628945089618 -0.7988031856641081 0.27156531521165495
Ni 2.8562374121302354 0.33775620270020384 0.7516796667458875 2.694575762620959 -1.2024167596949809 0.04921528538238621
Ni 4.644557143477484 5.417710341830146 1.571434364088339 -0.9939990236760882 0.575722448316402 3.411172552688641
Ni 3.37239855486402 1.092227865821982 3.8085063419963787 0.0028891486223369595 0.35263785431395395 0.18367266786372882
Ni 7.5543272018818755 3.3285043899141646 9.726320823744082 -2.449865877039252 -0.18232566691753116 1.2679729483292357
Ni 1.1357312815289606 3.1472990803066314 13.614634907532079 0.30668144218849763 -0.8360913805916051 -1.2166377883903694
Ni 5.963670766110006 3.872306389804799 2.346782270688494 1.5739563360094442 0.25297161136986757 -0.9219040054820509
Ni 7.324966699866446 0.017205991661352935 0.3952186699312952 1.1953243716245736 0.33235982079120824 -0.05105568102523466
Ni 8.51096508042552 1.753831458886647 12.64221262028688 0.18812787542160503 0.2508136844866003 -0.10141227910091569
Ni 5.842919946507595 4.664178337601953 7.720241191118153 1.5033458727807334 -0.4858371960184794 -1.2221132096826437
Ni 7.8607490367247 3.849819701232565 7.150478555815039 0.715181140667078 0.0752865285481413 0.7472844489595258
P 6.214578297804084 7.658350232467789 1.6529297704670496 -0.565611070914013 0.20718669182526897 0.5124805096376206
P 6.082160822235772 8.859680869033085 7.222415491428704 -0.25423633701490406 1.6999434762362464 -0.8325363162504953
P 5.516793185559684 1.1648793143369085 -0.2643260467655438 0.1833042287807166 -0.5288190988966441 0.21836044905390134
P 3.3745197650396386 7.627657809795136 11.410813829482196 0.4956120160170562 0.6629044427505487 2.238528396270403
P 2.158843049128713 4.326152331853096 1.5191325779292453 1.9843640501440145 0.00950022618095138 1.5635983898138879
P 2.10375670943645 0.8107544397815167 8.722770707527026 1.2658507597799102 -0.5193389273203508 -1.5824985691525002
P 2.954324775645778 2.801486000360439 6.108965289941798 1.283857480769976 -0.9856673638819412 -0.7082329914840189
P 7.225195393185173 4.642398719088257 11.580205486980079 -0.0659570236170993 -0.7699878040943127 -0.43966403989652675
