# total energy = -381163.54858519946 ev
CRYSTAL
PRIMVEC
9.35830557069186 0.00000000000000 0.00000000000000
0.00000000000000 9.35830557069186 0.00000000000000
0.00000000000000 0.00000000000000 13.69682615473964
PRIMCOORD
 96 1
Ni 5.486007297770131 5.233754165468847 6.234041946195239 -1.800773657581447 2.6944533781104822 -0.7172177114811326
Ni 6.482152156527695 4.262352667193738 7.9567600507325205 -0.6092182660810024 -2.197221824212132 1.429910281398402
Ni 6.892822689073687 3.3682414163560748 11.06995300885081 -0.9023062858557815 -1.667709298792889 -0.3421138148541785
Ni 2.3078798633357986 2.9760161045025635 8.464269395659906 1.1714249392991567 0.8115458300417572 -0.24343513263434205
Ni 2.7204314153435813 0.9190735956753731 9.210430511267848 1.2322096746866973 -0.700163069991691 2.937512101242012
Ni 0.6274528784491475 1.4405520836406411 5.479196322823409 -0.005744358682944945 1.986466441198998 0.07250228093478481
Ni 8.818359611459709 4.267097328224225 3.9392347002035946 0.3776215208424851 1.4328320830308874 -0.27919326407055783
Ni 0.19401920292375818 3.7177086291005312 9.13763225060483 -2.5097203873030387 2.710045061901152 -0.5084978708407888
Ni 7.5094414569212695 2.1835547710478167 6.7072128597238825 0.9895476727729539 0.008593912316598104 -0.178374395579267
Ni 0.7373764739722084 8.683263109218887 4.84186949594573 1.2919106900917556 -1.6140503758168527 0.021099500982776565
Ni 4.395362267245608 5.875771375203488 3.6251119367292355 1.4417741227155234 1.0384986487503598 0.8368051188291782
Ni 3.563034551167843 7.180356634165764 12.875167386330979 1.419869095112316 0.9247761848235234 -0.03853363729882396
Ni 9.133715799635878 3.743528194747693 12.095462359485019 0.8647609806121558 -0.2608651551853314 -0.18556499979043525
Ni 3.5547056590235973 4.74385621618894 12.087928923332077 2.294359387197094 0.4629533494417704 2.8938673679688676
Ni 7.903023723112888 2.37009388016158 4.315445143375705 -0.11637712794086409 -1.8201944853102203 0.853520117591014
Ni 1.5368677667289297 6.015855854425077 13.052842308209875 0.9044624129668358 -2.4973101865641443 0.36246332504480805
Ni 3.7139185152596106 6.6688222819223775 7.758704610525826 1.452514906171795 0.981174361107594 0.6486677303258764
Ni 7.838077080999331 7.792052933173039 11.659190309816541 0.6316922788138024 0.6954636076334926 -0.2742616310968954
Ni 8.516825640920674 8.465429825576633 3.0843057398364273 -0.14877842708970507 -0.71440929549806 1.7414958457567362
Ni 8.831255356824618 0.8880208654360067 12.472097669739542 -0.966336267653497 -0.22953317784126923 1.0948729137750306
Ni 3.8455150111386924 6.052016347959196 9.999820448765583 -0.936078240099904 -0.18831505173174665 0.8461978728979879
Ni 4.521353137962439 8.538480760495712 2.841146073261619 0.08542387409245934 -0.6095244844675115 -0.5930411421005077
Ni 8.017709760447417 5.0626281859748286 6.35702599326494 0.6392644347341055 -1.1209680682001857 -2.1112947852310096
Ni 0.6985909756667857 6.342133185446566 1.5849965975251554 -0.4107568699438732 0.7969998139067822 -0.313422360456757
P 0.22115828968590703 3.3407841471974042 6.440795931624491 -0.8380914417407695 0.3996371058816279 0.8036139767891902
Ni 6.116504433089529 6.533669629846877 12.83599445416626 -1.1311370383133874 1.115532499006911 -0.700933115388496
P 4.452597665396403 9.000547108385748 0.3133422807723027 -0.6548589467382528 -0.10115928254984513 -0.7498835771452698
Ni 7.040599695646478 2.108126826460603 8.897732081933214 -0.6073429034351605 0.26999539962137376 0.11261406135400606
P 1.5922315037237131 9.353963526169386 2.881428900491851 -0.754946593490474 0.8704351481787977 1.7686173845638764
P 2.5711664381517627 8.080691158347161 6.525510123037249 -2.59898214708435 0.6309546293168294 0.8396459307120829
P 4.306093388409699 4.5788973602039755 8.044050583726527 -0.7954489244798946 -1.0831371133953411 0.5675928772307322
Ni 1.6697650671114386 4.522850466887248 2.6194496809933594 -0.7273895098078118 -0.36483671037299104 0.18898739520842292
Ni 0.9666942704677423 0.9376835225495831 0.9326347165812454 -0.670513108335742 0.5153382908013899 -1.121304625603998
Ni 4.6863400688647445 2.3846086124264394 12.291189453213637 -0.16288504169441625 -0.3132781215694089 -0.25919933744713425
Ni 3.1075751671585246 0.306291733197612 12.209433422257952 1.0271536560511858 0.21076309632261767 1.3104012926967754
Ni 8.431243934562104 8.340917567173049 9.132647081115797 -1.1991833403593475 -0.18237451787759557 1.0415932285152836
Ni 5.825910322007374 3.224853455194128 5.430353453296165 -0.6572991807486294 -1.5678080570198611 -1.0909895195602244
Ni 7.8335008694728865 5.31085724679069 10.640585517186853 0.9970830619180505 1.721171018156455 0.1390192908204122
Ni 4.043274728882737 3.78679164236887 0.723973508434019 -1.8408142184431007 -0.4007519362123614 0.6719490694513202
Ni 1.0737252136741893 0.4609470945187403 10.99236048813667 -0.09312612783272349 -0.15990384757890524 -0.7417516920667548
Ni 2.037340601540295 5.141003996882758 7.948185970976837 -0.9292915561953737 0.15954415024664134 0.18090564664155295
Ni 6.246032743391219 8.179121818541741 1.0626618245810127 0.046894093448377305 -0.7842643686179848 0.4294310493146088
Ni 3.727619074921606 3.9014402464802793 3.2154258979513046 0.07800315614835598 -2.0500220544634566 0.2979157801807256
Ni -0.018077439275325152 9.084229078670967 7.239937223745039 0.73910679824474 -0.10514243556730925 -2.291382049736325
Ni 2.3912062180013756 7.835503546909817 10.988853930960884 -0.5692604947411423 -1.005479513511862 -0.5581705554755678
Ni 7.740619684605877 5.979545627998477 8.363679774321868 -0.17363919488712676 1.288996087548122 -0.37349130072419545
Ni 6.940344165824787 3.248988525800881 2.5718252628786784 -1.985226141033994 2.9561358869907863 -0.44433110635489276
Ni 4.348542663428011 8.917997493099914 7.997193546685811 0.6403635813355553 0.17861890748990528 0.37985118150395225
Ni 6.288949933698535 0.42526013125709256 12.662592534706533 0.9913222481748734 -0.5698549337920314 -0.2939100014554422
Ni 5.739916850194483 6.853059247814248 9.109225113409483 0.8476420615436822 0.6355615319612216 1.377094937369583
Ni 2.908626944580414 5.925033496829679 5.855708103441636 -1.6530149300055081 -1.6863017170830956 -2.2324479944042777
Ni 0.43171174726185996 1.5902569012041226 8.470391599301216 -0.9169183793420015 -1.1522751058435834 -0.10817196642225242
Ni 8.234232881280464 3.9533133354191037 0.671107503251931 0.365782362115712 -0.2324153844850707 0.4860110025921824
Ni 1.0086849885028326 8.14229688529724 13.298290080547906 -1.5735794122859996 1.4510000121891655 -1.5679240137724353
Ni 8.289091269763125 6.099097984338632 13.317150810017022 1.220056584263931 0.2046482416741314 0.19778468178507874
Ni 5.30538263790936 0.7370236658443005 5.999648204644605 0.4931440140925377 0.00913358687015201 -0.4980419656147874
P 7.209573264811084 9.146499245331428 7.2687963671095615 -0.2308210434147573 1.4968718350206156 0.9980384838527844
Ni 5.395577989017495 1.4850789025421256 0.7696223881985312 0.812369097274001 1.6390564109428871 1.1076934625784667
P 1.5752836119560405 4.149061017420437 0.4758342873536459 0.18720510649701955 -0.5491544680198865 0.005138606778145989
Ni 7.601723710218356 1.2642509610502544 1.998750691825675 0.5376801488316998 -0.3737514963641176 -0.07591104950601765
P 4.8816011189655155 0.9977076958228324 9.758180571049456 0.8424309496563878 0.2544533381217166 0.20503416425864043
P 5.707480962360825 5.28892137804225 10.916384146830746 -0.5149132874488294 0.5353579284564264 1.1605990523282463
P 6.397646655333832 0.1251776339445446 3.344587362666417 0.6503877983407766 -0.05591069512469081 0.5599273902656744
Ni 4.197677415947804 7.661916332995646 5.400535083589188 3.480065776115929 -0.7013095248913084 -0.5455544093734539
Ni 5.391610067366752 5.883875668009012 1.4737647108540437 1.1480042463823712 -0.3522984686966642 -0.31148194890093456
Ni 3.286618273342467 1.48768051154898 1.7397979484164527 -1.5926531410879992 0.11418783359902916 -0.2840305375582011
Ni 3.2447117800593968 0.09015230290154648 4.543319889119954 -1.9963217367265231 1.4353674478582312 -0.3108859671881485
Ni 2.0314729438162025 4.628758413400089 10.645145819593473 -2.878069481704663 -0.2629305223547923 -1.513298098897439
Ni 5.031202995165415 8.516170559516071 11.11602956318947 -0.24248228180276948 -0.40570670911447543 -0.8878600285234646
Ni 4.891754880736872 1.826647705208219 3.2799514163047583 1.4486091433594859 -0.39562207118496384 0.9483269755602701
Ni 8.425703817540315 8.821494643896026 0.9911830850329806 1.1343028376358788 -0.9866973478083524 -3.344077558812357
Ni 7.648721121845773 6.252218583511834 2.099778281874219 0.4469580024547786 -0.2940323859659194 0.3789764922084828
Ni 8.053701804477495 7.457914625296307 5.652282867378348 0.27984323894973095 -1.0452956170675354 -0.1960209050164366
Ni 5.84859485521822 4.327093426580134 13.26662250961879 1.6062244520145303 -0.7804887036256365 -0.41577849152818064
Ni 2.1514651405280207 2.5450848399427595 12.514228762361332 -0.4827410735916589 0.5555943101079592 0.28434961146051674
Ni 4.494822341075993 2.201457210005055 7.8113825137617345 0.6943485201924429 0.46970558056393946 0.22889451581600578
Ni 2.5086623138468 7.1560250391376306 3.37907552695764 -0.8278414818779872 0.9400133134882521 0.5099551721126055
Ni 7.17419886896249 0.5283914684449922 10.448432360435636 -0.30739209510227705 -0.5922268737293285 0.7819904849821435
Ni 2.3890538076719636 0.8329107385278626 7.041525232088125 0.04462740890138766 0.07227242431216585 -2.130604027082582
Ni 0.4759540736676306 6.656815575606573 6.580845785114694 2.195356488868619 -0.31256978264847457 1.0773318195674735
Ni 0.2794745721542969 6.24803542082815 9.31211599021273 2.2143438286043993 -0.16534121654439266 0.02308902060897959
Ni 6.413293742598077 7.362609639232263 4.116581145549613 -0.7994945553041779 -0.21754360957956081 -0.7464136163187983
Ni 3.2534898708810855 6.325606417438995 1.327817253061253 -1.322456681199413 -1.2689160289687953 0.15891962928876502
Ni 7.865590499992683 0.25625380802225556 5.286359073919671 -1.0317032230950813 0.7962277116274481 -1.460628536417865
Ni 0.6497013146106416 2.0117737101491944 2.988962384718686 -0.05768295653376518 0.49432903553957447 0.3842289988566737
Ni 1.426290025631843 8.335826648828702 8.877009049613868 0.8026022476952241 -0.3410943724507287 -0.749228202949458
Ni 6.205773311925438 7.378724641785511 6.965425361145903 -1.1569527138249107 -0.11401736945943589 -0.4359259130103331
Ni 2.1112244256737998 3.6569919411995584 5.367265370710527 -0.6977827426849724 0.3992151878528608 -0.15978609105411837
P 3.5475933466307583 2.1484798409841845 5.004149068985866 1.2077685109251972 0.3425737852097326 0.5219758507225656
Ni 0.36202605910128566 6.418506318917565 3.9912275754564037 -0.30238358614409216 -0.2653260191701624 0.3157386672947594
P 1.2371305908996657 2.493174317780815 10.411944326199217 0.6208105989042921 -0.1706780553762738 1.1311912885900908
Ni 4.430483988838141 3.631163017246617 10.219339163278825 0.2218869741499211 -1.038510732935218 -1.7138760271569387
P 0.5454329432704657 6.582229878539564 11.356052325666806 -1.4497867086073546 0.6318318897154602 -0.15515964802570054
P 6.567350172349282 5.067279263947514 4.2928869472928906 0.8692205590454062 -0.0556867520393428 -0.9096583553454786
P 7.375365010010473 2.435901486406901 12.964881720522019 -0.3657952176315184 0.24081466429235945 0.706437590146493
Ni 2.4911903569554443 8.584111859479243 1.2173639774310412 1.5078800132056611 -1.4547625645553912 -0.8567170272617569
