# total energy = -381166.900065225 ev
CRYSTAL
PRIMVEC
9.24416857036933 0.00000000000000 0.00000000000000
0.00000000000000 9.24416857036933 0.00000000000000
0.00000000000000 0.00000000000000 13.52977511761977
PRIMCOORD
 96 1
Ni 7.417918388974055 5.668025004300475 9.068818745292965 1.5438536030867926 1.0064051106499248 3.2989385003818734
Ni 0.5484814826691502 0.8981772880445124 6.7374357251075905 2.4602377071918786 -3.4803313710724897 0.16327379249240268
Ni 3.264356283280996 4.779068774440783 8.255057356127791 0.11696179679974052 -1.1532287280061042 1.3204365654455905
Ni 7.273570696186118 5.086437380601454 2.847097622812506 3.4578707280761285 2.2837983238517956 -0.19136026631597366
Ni 1.84614366820275 2.961831621470045 6.556366496947846 -0.388642297433021 1.6184973558446127 0.42233557592040816
Ni 8.259387324702999 8.724221098903996 11.660920599183997 0.17709578597715953 1.0930176057338468 1.0240300228205395
Ni 9.327458565479057 2.236959384372816 11.152241733283148 -0.9039775029106173 0.5626483887412633 0.11341110333400468
Ni 1.718195130522454 7.0154457761914 2.472729131426833 -0.1382980963836715 0.9294208826843865 0.6508385127249501
Ni 2.7205773091818886 1.5977528577505027 8.210882247608694 0.4929336978539446 -0.1166540357513346 1.275737679876319
Ni 5.151618013444728 3.014652800886649 12.783432597716487 0.1767872535978052 0.5754776792954476 -0.09043495415380555
Ni 1.4792611045544883 5.509626175230907 12.256596335839074 -0.32842011941716986 0.09247281051944074 2.124509227038754
Ni 4.139344574376514 5.5824147588371975 6.135035780208265 0.4217637625773381 -2.840953807799288 1.179344965477182
Ni 4.850988406198076 2.756379974194228 4.650008163277144 0.1113598772319308 -0.09149373443562306 -2.644552379514981
Ni 7.735011860508591 3.4978547381084364 8.852572682335529 1.183718154844213 -1.8074353858723387 -0.024754838347176723
Ni 4.168657833027206 5.665427392922094 10.946345441497366 1.8258575971332685 -0.4558457918627118 0.7539600612074886
Ni 6.326283762420447 4.542612185659315 5.326820892206892 -0.4988737174874634 1.048791803146252 -0.058869006422066356
Ni 1.912202497063627 4.24458943395965 3.0882520980797135 -0.11493139663327304 -0.03448697803327609 0.8899079121914287
Ni 5.671417614179 7.153673829361941 3.5522557459398625 2.5190056692597067 1.6199348596220875 2.415591272127098
Ni 7.356463156079133 0.8244975665845721 9.80681400414375 -0.8834421019614268 -0.4145785576828086 0.08220073916947133
Ni 2.460039661180916 4.037085581253226 10.682082393548038 1.7238089699999344 -1.8960088613373733 0.3130616346832286
Ni 5.423729360540834 7.5847756323184194 12.803240077789283 -0.5277783163369556 -0.34079920980781303 1.3955004364599641
Ni 5.7160484602103905 2.208376415042025 8.485699362855874 0.5388852248833945 -0.3406673122156391 0.555360082609966
Ni 5.044810889367123 5.364899471530111 0.5783503158530824 0.15658172518420774 0.020948834337525212 -0.2851456249992509
Ni 2.5487097264528904 2.1748385713382383 4.402859769085588 -0.5762706075103883 -0.1624538676942686 -1.1489244442037954
P 2.881139273705338 8.807668208913391 7.558287391593824 -0.6220565554962513 -1.406960614580764 -1.5263269070569392
Ni 1.255561468449764 3.3553928557161927 0.22145700080082703 0.4019505845061529 1.2553174643487541 0.9386506288127704
P 1.6069877821882323 1.6561390266681209 1.616848536840611 -0.10709236020482846 1.488763346980868 0.5519824243869849
Ni 8.802639381191545 3.3720231150389908 2.5120325630903917 1.235504800498201 -1.0496448951751665 -0.9012930140999187
P 6.229007376175972 3.2498614269062607 2.942374495387429 -0.15940479645529967 -1.173580809299895 0.01273390262690065
P 0.1309020495500205 5.647512194163015 3.341191963903139 0.45348860448444483 0.223806302659821 -0.3642332724610372
P 0.5071739152517379 2.0563283298050115 4.971488917232248 -1.6475713903924336 0.03545936924887442 -0.8433745445165798
Ni 6.221353204569927 7.41470141829905 10.753803275680296 -0.20418621443604837 0.11679107554983112 -0.8059652506301863
Ni 2.2184618029915377 6.346057039069399 10.165529344828313 -1.7333673031123311 1.0872341662828502 -0.8265325332585766
Ni 1.334441959167629 0.09081841005608711 3.183298790856339 1.0538969855833011 0.5219691658543462 -0.15831104917048863
Ni 5.096153001806712 0.9346686436180236 0.6020209339864663 -0.3820109081594324 -0.26519437868830453 -0.03262524223418897
Ni 6.217812687993701 7.411724796007809 8.46471417570263 1.182226915010667 0.7440682560150734 -1.8350855434894393
Ni 8.702386372655832 7.662167811890663 9.486401876079539 0.12353276514903885 0.7918961741316297 -0.9249888150549619
Ni 0.6346436049982259 5.4095118292242885 8.479164660068054 0.2092715993787557 -0.5725155113433301 -0.8065614894532883
Ni 3.626089845015529 8.899638442377828 12.266242625779785 0.20654340181431527 1.359615292527581 -1.184723970400908
Ni 3.0073221751818244 1.83077985997902 13.16543215028669 0.7192871924156515 0.5951335058531622 -0.2508519939237035
Ni 2.9613509247025154 7.000192897990945 13.170925035272576 -0.07996336519852035 -0.5192396827383251 -0.30653283242577534
Ni 2.700425021620076 5.387020767005074 1.2678146139374624 0.48098243902933935 -0.5934445481865135 -0.8264476868542541
Ni 3.751246643776711 0.9343081210423765 5.97332846319449 -0.1385202396968066 -0.8514334102653142 -0.29935174129630376
Ni 6.342026581557037 5.327525297854696 12.159560297978365 -0.14297313326183764 -1.3498139901664432 -1.542924149293988
Ni 0.10913110806523867 1.2630862216953216 9.011033447334759 1.3917011173185323 0.8768906739961544 -0.5420155429822601
Ni 3.8588580105230683 3.2263904828147743 1.530515397392318 0.3413738513643605 0.8707084564448424 -0.3403086433246397
Ni 5.223158634289162 5.243819351124324 2.9295343451932285 -4.145860653040396 -4.138304180849376 -1.3736871972396147
Ni 2.2809893594447943 6.585175948409492 7.263351267791814 1.3649703861919074 0.5282215745219613 -0.6666430838573745
Ni 2.36077577868608 9.083662106824159 0.8950693985590622 0.12358033055752266 -0.5000983339231838 -0.19006700142584687
Ni 4.177846536621904 7.885848959658175 1.4015897510903321 1.4660818462229523 -0.4611803167017477 1.405846812691295
Ni 8.643778343691661 0.8055405500235591 2.33482000207321 -0.9433133243957625 1.961397928266145 -0.6175147017618398
Ni 6.87325197468874 3.060291261296129 10.804012977465609 -0.8818583024140749 -0.46384217980462694 1.8883577725500191
Ni 1.6698111520368915 8.653632627426015 9.27673119025179 0.12029137539360574 -0.31645523374580986 0.43125036191153476
Ni 7.104957060806551 3.717967636793902 0.8701323293266102 -0.8024053011930696 -0.7690997450624044 -0.6059712198986145
Ni 5.015340479850124 -0.004225509469956172 7.7622488788903 -0.25658555397337096 0.7466306174256109 0.6627085246896587
Ni 8.488642706140132 2.57015619761959 6.802757793730543 -2.041069730366175 1.4928169482249518 -0.17641007276404458
P 1.5487125432938904 3.3027195829972897 8.899588523867354 -1.3696875891619185 0.05912740228977559 -0.2637044244063394
Ni 3.7030383044946693 6.372902104702199 3.9975075977820587 -3.842598520946092 -1.4922531053016816 -0.09490276011717204
P 4.994467147137017 3.7369274266054973 9.800860759561267 -0.686210978686973 1.1739739309732555 0.46299268732013815
Ni 1.8033154350495957 8.21742804339884 5.1559673947740094 -0.05222836117709714 -0.8882042992367605 1.8727149238064393
P 3.357269421943279 4.395953450719794 12.816959348417948 0.028824894651492294 -0.1870305285923682 0.7059138564325391
P 8.200862493256286 6.627292380579958 11.240591025904482 1.0027999097971698 -2.1788322659613506 -0.28739045516936956
P 4.686395984162265 8.871526925645961 9.924306462713417 0.49197004838909464 0.6047322052851908 1.3891765511244656
Ni 0.2968154632796779 4.662740156698651 10.608737310991646 -2.2858130402889794 0.17140619179154995 -1.6003281411347534
Ni 8.4744436631608 4.006385697311584 4.728899746997337 1.373089672864932 -0.3848445209534856 0.740636347515389
Ni 5.816634258815931 4.9778368878142185 7.74212987033547 -1.7513146316193708 -0.7196669443525734 0.4259101806455439
Ni 8.21881466868979 6.853256837993235 4.779379378505956 -1.5986823780012145 -0.7205025528799913 0.5538241055814139
Ni 0.11374487261666094 5.899582183720584 1.058524787856295 0.6391284233768735 -1.9218348212615421 0.38168514938889747
Ni 6.175206314887098 8.867034259703281 5.667893737106264 0.9269099433370747 0.23871921521591144 -1.602476297826008
Ni 5.946782908624536 -0.03288243214959768 3.1290308990528435 0.4145983551771505 2.6595156856930324 -0.9618813172059368
Ni 7.669211868368692 6.7307438714534635 -0.24199754344410557 0.47274128206646976 -0.12787175884402494 0.8162668896665104
Ni 1.2146560223667275 7.932661429480661 11.74391289609796 0.6921728526973627 0.2567436768177901 -0.2972832888030493
Ni 0.950966112870994 5.763110522585246 5.421976666173072 0.917221255294401 -0.7740828000992926 0.054184970682835704
Ni 2.135920621505564 1.1340468721194779 11.02181483399949 -2.4915056640672253 -1.1484431336920027 -0.4967967803537767
Ni 4.166513185910536 7.669664832630402 5.88524910029646 -1.6246057827351956 3.2926277276724973 0.7573893986040117
Ni 8.924153977521831 9.000344415175253 4.737099324551156 -1.361064880489914 1.521989713134166 0.2455136124299256
Ni 0.2180163212455488 8.174451903547984 0.4511006373194252 0.9161460199523513 0.2516670336258311 -1.0203281484889202
Ni 8.404040075054944 7.86169394708982 2.3830394343575794 -0.9848196711696652 -2.291034436588919 1.6875397032552548
Ni 8.024058524491505 4.848085737255687 7.132261561619085 1.264952673445673 1.1333304464202805 -2.958778981040588
Ni 3.9919278176112747 7.057636161710716 8.776711337084494 0.055572852169297846 0.7541202409344367 0.4114970905440074
Ni 3.8105387412177505 1.273227074656472 2.6487917178693867 -0.06065592311916006 -0.7478104966663249 -0.3791675251733663
Ni 8.597123024735483 4.140601781306976 12.577752619476096 -0.9331464111650897 0.2238674949150596 0.8046030801753369
Ni 7.094501906112784 1.8410778638064782 4.6357065100262815 2.037108945946214 -0.13579204213236615 -2.802424798486154
Ni 6.158030649616525 0.5261300073958904 11.778210610461187 -0.8408664333827454 0.7855141818646859 0.9262836226069855
Ni 3.558089740747321 8.599794589462714 3.855999713589989 0.9017493849110471 1.2462941778042216 -1.1605969954457174
Ni 7.547743492881437 0.3293798960292176 7.493289793288954 0.24391901424929602 -0.058372012180989793 0.18262520043582095
Ni 0.7066519807741405 1.1187939939190235 13.146774644788524 -1.2680940472881321 -0.7505883165217783 -0.3394501519790864
Ni 9.670417220774123 7.552568948893945 7.181185399551257 -2.620832924410854 1.6141089969689297 -0.3795575615229334
P 2.9863379124454412 4.2408825223485085 5.120519705836154 -0.8703315327213978 -0.8069597533329717 -1.1466184217784383
Ni 4.114487004994077 1.799663988450093 10.787749711636483 2.825112727001973 0.41263506080319257 -0.800478516484002
P 6.292533302838713 7.023848725454559 1.5410278659314434 -0.02072154881806754 0.18423111147036014 -0.6068762482113871
Ni 7.09090592452492 8.867598153988268 0.573756888472594 0.12865954485264294 1.1789796117179632 0.047533269694272975
P 7.810573694696782 1.9399350028826352 12.926915036322871 -0.44157205555251694 0.23062615379513182 -0.48155708058588675
P 6.001684025977566 6.744305066798958 6.203713482035316 2.6006651912137273 -1.1465731703627995 0.2958092753606841
P 6.117800027841751 1.7889962178783814 6.347886460036593 -1.2784735907502434 -0.6214258638907878 2.3444632458320203
Ni 4.353494984310894 3.104469143065809 6.765997432850587 -0.6826502579189082 1.1255240630019843 1.0968560056433305
