# total energy = -340895.56258035504 ev
CRYSTAL
PRIMVEC
9.06546317762076 0.00000000000000 0.00000000000000
0.00000000000000 9.06546317762076 0.00000000000000
0.00000000000000 0.00000000000000 13.26822171151549
PRIMCOORD
 96 1
Ni 6.4424712471919126 1.954015296992491 11.537992324195406 -0.1902418364408143 -0.33113648990706845 -0.39568403477115077
Ni 4.5874236135517 0.38681697516510105 6.155592846503486 -0.2975236869486295 -0.44749613434643576 -0.44804429354042197
Ni 3.074062358899375 2.0552765225714014 4.748139773941419 -0.8039397355597251 -1.1689312263430256 0.44932136048063265
Ni 3.229054585732197 4.459011325250424 5.011964701340036 1.1990516998774898 0.9280826234889371 -0.5929382979740562
Ni 4.99970275561774 4.812328693711699 2.6167586865772736 -0.13816208502643948 -0.8873388659126717 -0.5716729608373767
Ni 7.268489070922757 6.197141678112552 2.598223440219293 -0.42132333260580995 -0.11334708286528866 -0.03471117822894022
Ni 4.954937497613384 4.525687808162947 11.44820706866666 0.8474582276676501 0.7783618870906207 -0.3158715933281979
Ni 5.532706673067338 7.8434932800560695 12.46134149514451 0.12041401701439909 -0.22959462720682394 0.36450323829297226
Ni 1.841775795301132 6.650605220161133 0.3226869809065723 0.25091010085514853 -0.6464074735367901 -0.5320116376920128
Ni 2.8841227708663113 1.5868187041479305 0.36529375208815856 -1.022239249468704 -0.8883611365295991 -0.007580126340103074
Ni 0.6187051817408047 9.05977023538463 4.922086071538823 0.3288461512109949 0.6897727278963024 -0.5625491441592375
Ni 8.617538802422196 2.2943509219417693 1.2151890997269965 0.10581426482335325 0.012469850332236588 1.4229883574675881
Ni 6.696331417280204 0.7207442240748327 4.913594452022282 -0.01286322911591333 -0.2303639012726807 -0.7484908105628013
Ni 0.8191326043192791 7.181270248067368 2.328227651920805 -0.916157589916577 0.2842668219387234 1.2837520655403631
Ni 7.759746529662338 3.8581614801166224 3.864873549178272 -0.2596999312326366 -0.6171969134111048 -0.74713275387301
Ni 7.590621245472532 3.7552140783552885 12.715176281935431 0.4330272513062994 0.5196196917855631 -0.15326037412045862
Ni 8.080083742469533 8.818964332515106 6.763781184216173 -1.2946753973210865 0.9076061008021401 0.9613544981681894
Ni 6.81459038663355 0.5891010046369114 0.3778947461396075 0.07107351890805824 -0.0716378760519605 0.1811478445593461
Ni 1.882978326210366 6.516255053367987 9.213519587192664 -0.11192911947183949 -0.07666206873942925 -0.47231370761074787
Ni 9.013445717684698 4.922374353273238 1.5986881153073276 0.18855724964953977 -1.1488784214572085 -0.5330819879380561
Ni 6.42676079921266 1.9164661478118428 7.040025796399311 -0.07032455655717566 0.26988998439176104 0.4254877483961446
Ni 3.531279002773352 3.9784420477962086 0.27623735981246145 -0.8466401026417291 1.4221568627052281 -0.005812235806402893
Ni 5.981084490178607 5.609971617168417 4.640693182721283 -0.1514660012241972 -0.09507245292581692 1.167244839779538
Ni 5.292417501608557 2.9713415937217 9.145506854982887 0.43157226402732773 0.009540849610899696 0.6125236763051516
P 0.10406426684560628 5.549504976648155 12.667794731209312 0.23115297283287936 0.1508633346431918 -1.1110994029362218
P 3.9577909222931864 6.009586306939583 12.654088657175942 -0.21961334762439597 0.9296584526164893 0.42240371015418227
P 2.3155641061722663 8.602254431220222 1.618882341457693 0.7172989583410292 -0.21074047061479836 -1.443440711784669
P 6.286164528173868 7.6408620433380925 5.795014948448108 -0.8973468849679772 1.1427486544103869 0.8263481851619124
P 4.724556877592181 1.0288938279591724 12.68509707455219 0.1066205627747325 -1.8060688445421151 -1.1984968558152842
P 4.160666926521515 6.1098593970137385 8.154569215508616 -0.42276186482454936 -0.2445265659263079 0.6805090432061893
P 4.759830595472892 1.0605413605013365 3.8296070836682383 0.9133139498201949 0.04199202816106962 0.18057577410595996
P 9.138802944838249 5.608004411622256 3.7750746954545074 0.5093594475101357 0.3305345946570114 -0.1654970253959666
Ni 1.29583546165627 1.1169920007591585 2.792894293572825 0.09416562484083138 0.5119909715957117 -0.6801714573611125
Ni 1.6608654087610493 6.702686307086007 4.998934910872303 0.5906854973841376 -0.4937873041034916 -1.019973850473295
Ni 6.261270765824746 5.554400326855192 8.975341762147252 -1.1417245840212464 0.25033648773986567 1.3200745541204815
Ni 8.612126720804415 2.4138971870902997 10.311717069342137 0.6099728848588397 0.29062336028437047 0.3916525450142545
Ni 2.2471833161506263 5.243699701585185 7.142058492908996 0.43244926731564237 0.18102623137981724 -0.09214885152111871
Ni 0.3882230285301224 9.186305972773209 9.340695346293497 -0.4225404928423626 0.6214752290714844 -0.3282640534552798
Ni 1.6998740975404627 1.1866872829660213 11.532659112108737 -0.9612799361765121 0.10613616693914625 -0.6736231147196334
Ni 4.10661863405048 6.847470822190821 1.4910293922448872 0.1768870124004631 0.788735517015461 0.2069745758144629
Ni 5.7884071322149415 7.847835636998979 8.117856808594837 -0.5159867230186661 0.21136113491793274 -0.4309922231541416
Ni 5.329386461135038 3.0477634497315673 4.686442043498719 0.1640294397115046 0.19682077520991265 0.1104857021570936
Ni 0.8515851500066007 7.591056387713158 7.158696337788582 0.5624141612432701 -0.6326369021152589 0.3425673574518294
Ni 5.175010685809769 4.450897735555427 7.0032988847441775 -0.06822910748072766 0.5717688629852927 -0.325613246095994
Ni 8.195614007355623 7.154010399784846 9.148120428065646 -0.39312038780903263 0.21400448607805078 0.13198346701955335
Ni 4.583679577189651 0.3607818709806721 10.450847454957822 -0.3692289259034157 -0.5502070776541169 0.1328463292404809
Ni 8.097199337267472 7.414325179775749 4.7572677889848745 0.6390710877763768 -1.0329540647830469 -1.2402705973179609
Ni 7.398868564770195 6.103486376281244 6.735413536312723 0.09113995064063013 -0.6902689508064305 1.0877530149007977
Ni 2.3241944272780066 5.186968031963626 2.343181133710636 0.7397531735794873 -0.13834874711594883 0.4040066957042332
Ni 2.229832019305681 5.465014858260022 11.392533338617621 -0.14964488885505842 -1.2599084261535463 0.7383886891317928
Ni 1.3110110472980867 3.5036112086402427 3.7596171739026185 -1.075012684515994 0.01843043879104568 0.3106617669924843
Ni 3.863528234417671 2.6131107441266956 2.435860085139541 0.1612336221339223 0.45360430412670266 0.5323795625543928
Ni 1.2885649600524842 3.251437214734375 8.348232895884367 -1.5624923012339025 0.257665160190795 -0.336012329942131
Ni 3.672092844932457 2.700447418005587 7.244409387182139 -0.5398488743482445 -0.3880954237906155 -0.39970421167413744
Ni 4.104279744507116 6.88227313597752 6.060472565795405 0.1525504925376276 -0.06736958769390979 -0.5842477121785937
Ni 0.7630944426437168 7.453497046895397 11.220762752223346 0.2061065713872128 -0.635588528544415 0.4914154614372053
P 0.16210408282804628 5.594243038262472 7.961556435401135 0.5820296214813524 0.07946714228839218 0.6359407696775112
P 8.43591224427775 1.7168537103882064 8.1162776048799 0.6153032959328177 -0.5241278640685618 -0.43413025456249105
P 1.7156208073731007 3.269559075963761 10.54230528847397 0.5174522518205992 -0.10177788997045052 0.6320077531716921
P 3.812417152070859 6.289138000151476 3.7759903072524903 -0.16771537320352406 -0.17526747451916913 0.19487727833029664
P 6.872011031469434 3.8765009124663212 10.54777176287183 0.22219499230864315 1.1032200001881451 -1.149070997083989
P 6.197767195083452 7.873336785392306 10.322517662372997 1.3470672806592414 -1.0266371214260834 0.00592407879391883
P 2.4933015805411207 8.599126846365728 5.845514112019041 -0.09894324873513283 -0.1583313608854628 0.3010846648270105
P 6.8205191996620735 3.916488671287142 1.576768731482149 0.876608109758729 0.2928573918212118 1.1316528016075413
Ni 5.443085502425162 2.708053341753188 0.400867536805634 0.11364610216294622 0.9669746725684445 0.4108892817566795
Ni 1.5300689035996786 1.0578761142775048 7.085164551493537 -0.5226060281073968 0.9622600407015945 -0.06590457311260907
Ni 6.893985714621025 0.81374227981353 9.469158401189512 -0.4686038628593284 -0.6372391767739606 -1.0463500264739787
Ni 2.753072432731243 1.5818326993074292 9.260873941528743 0.3773494981280211 -0.42591429441060197 0.1933510714937573
Ni 6.4080950101824925 1.8684735848561802 2.547498546611036 0.7039595609196456 0.41198457170338726 0.4229025041674717
Ni 4.040894024789325 6.938515270578376 10.481470590141848 0.9212535163822456 -0.6924988685782139 -1.2538398513619633
Ni 8.001848793790392 7.175994148399783 0.20259497486459066 0.18583213740889287 0.5599554152901325 0.5365650613906501
Ni 7.710566391008303 3.9240945950347434 8.10547701184904 0.6466648409632347 -0.8917807037341093 -0.0057723837074029625
Ni 3.1514995468040348 8.21211315064601 12.256108470446126 -0.7888419606863383 1.1337204827698475 0.6848310676203109
Ni -0.004510068014817159 4.981218275854499 10.255273681454993 0.2631524085576113 -0.6935687046036249 -0.29934865597251026
Ni 8.58056077743237 2.0791277566356903 5.797947625840657 0.6069996611631288 1.0693290038676553 0.01681887132955168
Ni 3.872539304983959 2.579486940575024 11.317315376140153 -1.1898088411229832 -0.5856708177783655 0.07445554800641371
Ni 0.985533716773503 3.492560408821022 12.831657513926555 0.7907350639439931 -0.1858370225048993 -0.5302020952870997
Ni 3.1599032313261164 8.43621140456818 7.9511275263674746 0.9355480786280469 -0.6011046358349326 0.5629054990573918
Ni 5.643087754772692 7.837129324786921 3.7071408327758437 -1.0671286537822267 0.44615581826845735 -0.8187459473346221
Ni 3.083164084099127 8.664715473676686 3.669273485831737 0.3436215097479566 -0.8516707230871011 0.7498938615579149
Ni 3.271934227360509 4.352727832977628 9.391910681468794 0.6423315036952034 0.2989629904983174 -0.23115785792888574
Ni 7.1963823754657605 6.023329549372674 11.371701810394008 -0.31321127288721545 0.3153933681401987 0.08569383992439435
Ni 0.744206549761563 8.911005981870762 0.11455663412269046 -0.25552086015428255 0.23679423027905672 0.5379791681293574
Ni 4.532831393279884 0.33445757851549407 1.7176641628113716 0.10590939564032081 -0.8716381673479634 -0.39285582129373636
Ni 6.0108010790279955 5.550193951862478 0.3613874439322094 -0.39725909256775455 0.4087220989020316 -0.09234914045738289
Ni 7.973872773903508 8.761208265535407 11.482916008180892 -0.9224488222419275 0.06513838437054588 -0.3638483783177927
Ni 0.1940045417975741 4.677724693944853 5.865230588251053 -0.9138006596486262 -0.0021700110681252952 -0.14881725074744048
Ni 8.077762983852862 -0.3113515255382761 2.575706642359589 -0.4356592896125077 -0.06463110571682418 -0.4814660635339773
P 8.378618515928716 1.5190724965605362 3.6303445731297717 0.11614032933970966 0.6587629097783493 0.11867620838768594
P 1.8929865977447544 3.0588958387209044 1.6444895557721733 -1.0053062211587913 0.860100599022009 -0.14623174940845138
P 4.884707353069086 0.932944963901233 8.31933401182882 -0.518607448470965 0.867306372741829 -0.3424596282293715
P 8.51898815038385 1.4925016234923372 12.485596142327712 0.7222146504750916 0.6754506548466754 -0.25584790447639805
P 6.261597122505216 7.845188521701839 1.4627687168089254 0.013180246135699883 -0.7894777944981242 0.1716465899371302
P 1.7677109597613205 3.240694640668931 6.100529222137659 0.4057573598467528 -1.1267998443906142 0.18258946210187907
P 6.967615407920211 3.844581416023766 5.956993927881975 0.27111382949653307 0.5193170729434797 -0.4123514681245028
P 2.286173874003347 8.517555807175123 9.970405093990456 0.9404838253667674 0.4856515623702346 1.7914269262592244
