# total energy = -340864.59938217624 ev
CRYSTAL
PRIMVEC
9.28620704285866 0.00000000000000 0.00000000000000
0.00000000000000 9.28620704285866 0.00000000000000
0.00000000000000 0.00000000000000 13.59130267141692
PRIMCOORD
 96 1
Ni 3.4106659556440793 3.433918617904333 9.97914188002453 -0.41582117184065803 -1.0476191229943894 -1.228724544351574
Ni 5.48497243822562 3.4419790455568493 8.181556007650467 0.5014347933464203 1.1571830846681619 0.37453516860767755
Ni 7.761328212124494 2.4226692509645917 7.457602383418995 -1.9043176383133846 2.013903197253712 0.9272639842423838
Ni 3.6290496850268217 5.507807221172092 12.759773051520105 1.3035163926514841 0.24243188818080824 -0.19404681200920132
Ni 1.7131287485758269 7.969320675904512 3.976203389261995 -1.3291058110848144 -0.4703259877567577 -1.2245999806602392
Ni 2.5793554212190895 4.409908256967802 2.290325015048275 0.098221797188076 -0.9755994381229777 -0.8913621281394519
Ni 3.6968482821362914 8.493870649185244 10.123482038108497 -0.3680719294808371 0.5576807603233428 1.7098939025807387
Ni 7.864432968145101 3.353695075865063 -0.025252911242226044 -0.03776770566707689 2.1564505558320413 0.07566165249937293
Ni 6.115812336518679 4.7014765835043235 12.393609552990617 0.5403052451593727 0.2669980075559466 0.1441697246731001
Ni 1.0337684188491323 1.8830570499737433 10.00283192263321 -0.016222375396133352 0.8101227244419853 -0.2141703222319537
Ni 7.557718838035706 5.525720314422902 1.385796453124404 -1.0420722250342311 -0.304808650645817 -0.18551820571289984
Ni 4.851058805424518 4.0698009265837 0.8137698180737947 -0.4435240370725652 -0.4209273827189718 0.7146064991105305
Ni 7.09909164805591 3.8577875351843978 5.432552728484044 0.6521518322197348 -0.08480603800280233 -0.658514541212969
Ni 7.655094004354005 9.196827230830191 13.486799481638924 0.5411256841781391 -0.821264599991418 2.2030176049583026
Ni -0.37775361345242087 1.4185145461521806 12.148517763732986 1.5902573871623127 -0.22352219576049892 0.8271619393124594
Ni 5.1537612941215984 4.8749150711380125 6.463126692134484 0.904168535875501 2.213270135924246 -1.0339791636134514
Ni 1.3556004939104795 0.9428564525840027 5.77596409130912 0.7535155174709023 0.06732562182985179 0.44529527004037506
Ni 4.117792044219879 5.59341676325567 8.477004111460284 2.1479345479412295 -1.9421573348689778 -0.43605112573428767
Ni 9.064043757324054 4.016711681319374 8.859083240120702 -0.07324198731428676 0.24505055675057796 0.7470615343154424
Ni 8.918482463023143 7.72158324628029 1.5223891287308435 -1.1598578032868476 -1.3129950215658808 -0.23790006174872574
Ni 1.0643850432389312 9.374611663327219 1.6047382835462207 0.9060793797449687 0.9063945969925422 0.08920828083555604
Ni 2.801314340286415 0.6759318621122833 3.441154430377652 2.4869216442409683 0.34890409830313457 -0.6669996958658447
Ni 9.054562540004676 8.787166210218732 10.377585162612672 -2.198219155128395 1.209889671033258 0.038542121939256206
Ni 6.963410877974214 0.26867782634821147 8.3321207102684 -0.14293199561125708 -1.0483693708968524 -0.31550623956897916
P 6.058925032602418 3.906530835585385 3.0316484894226403 0.7085116990667023 0.37726619438559544 -0.6405206757387097
P 4.998375192843314 0.5088767131517958 2.294769393705526 -1.0700679389162089 1.4180765219882674 -0.6961770887607495
P 1.4470974912149046 7.804824805585767 10.20333041738606 2.543388983200078 -1.7182762131071634 -0.0973188257578324
P 3.310226341024708 9.17156874786378 7.031474131982413 0.37402557596111063 0.9983801834629193 0.13234213591055272
P 8.163105243015924 1.6758260551655078 1.1363225027962425 0.9594925052587863 -2.725534158675687 0.8551733369237208
P 8.475038221444112 5.914719524519558 12.921713357679895 -0.7315742373131207 -0.009300965685951722 0.0713941354722706
P 6.810021311195111 7.551097772463997 9.184499791073605 0.9578711676052792 0.177676598181294 1.411353087221505
P 5.2669508709148225 7.948528858492088 12.243480373479716 -1.176340117212587 0.1960630711082817 0.45214957395804706
Ni 0.05601904356428941 5.914552372794046 3.1600999473758993 -0.3062878062945048 -0.10412813537018197 1.1158703419623042
Ni 5.139924845731911 6.312847076070621 1.3142843018464538 0.00819899087102459 1.3848532411587633 -0.5954605501752777
Ni 0.4742707342464198 4.881378271191182 1.0857721065183203 -1.0357624807661194 -0.7561987207300203 -0.07012812427565342
Ni 2.353830598674152 1.7731547904489418 7.804125554200705 1.7007004090069293 4.791424547629968 -1.273922223934135
Ni 1.8238574805212202 6.542058522783817 0.6461138515221576 1.802661104412147 2.787047544699136 2.0043119540208516
Ni 7.867283833685794 1.494262136430491 10.077856117388327 0.9394612976395239 1.780328245242902 -1.5739573644507086
Ni 3.3961516141453663 1.6895510690715199 0.8371497013695778 -0.9634885137920567 0.15618166153231167 -0.2239579977463369
Ni 1.8095752941968315 3.0940898737294185 11.863711653114166 0.6727515107479575 -2.3806106422868547 2.667402287529961
Ni 4.75356291841557 7.9014199305183395 8.32407514054704 1.8614146683022716 0.5562579118338872 -1.602630564015685
Ni 0.5736210767878641 3.3173952928078214 6.638304486334206 0.17599586804476142 -2.6272293148555015 -1.6397891753438536
Ni 5.060611351975989 8.17999685349971 3.6076078331262917 0.2925452598974317 -1.757564983404457 -0.09389128813352217
Ni 5.094506007427238 2.3229075294542456 12.75554597010602 1.4054344077442247 2.4470543757323857 -1.9072718358457024
Ni 4.341394621921416 2.5844721212611814 2.811972120029264 -1.49188595177025 -0.33725931497535466 -2.7277872163759214
Ni 0.7118546251664228 2.624012790551981 0.8006827665868236 2.1366504903869785 -1.1130799237013604 -0.5800254465671302
Ni 5.557358421579725 1.8388082737476614 9.763026771005277 0.7059701635917712 -0.007097530276729712 0.7454522808467936
Ni 2.5097924447847597 2.83106734742773 4.648973297899991 -1.3593286145250976 0.6733014697141565 -0.8160352332716784
Ni 2.5932383006436415 7.152784496773477 8.086525608592837 -2.309022131415591 0.20322333630214678 0.8746075343889326
Ni 1.7401237522461772 9.39448414624932 8.656558495006355 -2.631094454237862 -4.9844945975481965 1.9359440069694143
Ni 8.307162171787215 1.5886007130686373 5.225122080225891 2.867247194278178 -0.3141849496543944 -1.498942601506715
Ni 8.892555373154682 6.293438903497166 10.281629857340537 1.2031184137476958 -1.2108517778362116 -0.11928890227102036
Ni 2.9613806898790647 6.11257145028512 10.303240718207972 -0.8897014526075774 0.4069153847105959 1.5794356139564605
Ni 0.8562161415264279 8.045086838596768 6.286616327234143 -0.5003523589155189 0.4066780718888093 1.5801915182858786
Ni 6.52683842955516 1.700991676062188 3.4472842556004926 0.21904950470112597 0.10404457451744017 0.6496691750071972
Ni 3.76754417582132 8.418383072702175 0.9589345913369595 -0.2559726029797204 -0.06798176735661196 0.1595886303313316
P 6.801004404224382 7.498361403064644 2.2144854913209318 0.5085510926762273 -0.2833947037464151 -0.4943076953833358
P 2.5510696347794997 3.8871690940467953 0.23931019679627355 0.8336331488590998 -0.15799300370943758 -0.4800748396134055
P 8.920980452698867 7.167661000344134 4.9503738603794645 -1.2240240535521114 -0.3242824430997125 -1.2152987578639713
P 1.7926836837130447 0.44687178057274624 13.131060679057263 0.45132887782896464 0.6474397714560463 0.15118729364151381
P 6.412432359648481 1.6709972275395761 5.850280677092901 -0.958774139035523 0.2248437427853999 -0.9271459706072807
P 7.573366096785119 4.70758690769252 7.447163758160708 -0.9127511353381894 0.5641496558771381 0.4021133353362623
P -0.2541356262285799 0.8954967970219844 7.522065374983783 2.2968695552134575 -2.3815866330468793 0.0695586249254286
P 7.117766210278501 2.6857382083011445 11.69929843003748 -2.132511271407624 -0.45411569654548245 -0.6898992261718375
Ni 8.522110004589969 3.2065179815508613 2.681441480334763 -0.589192714888695 0.8573677734718783 0.8767533770873416
Ni 2.9839090279954283 7.483401323631229 5.858503613367444 2.4097322422431597 0.4741489610472737 -2.5369144312193277
Ni 3.725180499610746 3.1793743985689438 6.622701801378264 -2.32331617944076 1.2046441063636026 1.2219751414428828
Ni 0.44074102672920806 7.976378193203949 12.763184803961964 -1.3908397977595015 -0.005569523667977505 -0.2588005593468188
Ni 6.723938172555913 5.86593907929068 3.828847071153215 0.9322426684038977 0.4312999842025475 -0.021483623795072678
Ni 6.553211257358324 0.3824125034907473 11.681058462301221 -1.419111391010685 0.6645491774428233 -1.0541258137646556
Ni 3.9589236153267393 0.5993754432066292 12.363137793429596 -1.2070195485743147 -1.9469475571687695 -1.403727452355447
Ni 1.2752376587666154 5.3961591547363765 12.490366257924517 -0.8215546204280109 -0.3706864842855487 -2.0922328835035513
Ni 4.802547660197854 3.055301387203428 4.770465672347725 2.3924102060249446 1.0999608698208994 1.8378353383204349
Ni 4.992032713480793 1.4016507942893126 7.273222886729782 -0.5980640492363958 -1.219494541112874 3.1685439751159947
Ni 1.9745261886572496 4.248643986675644 8.180183506259866 0.9591613471716126 1.2017097063256272 -0.09911834086041639
Ni 0.15088879124128793 5.454439389698577 6.477846258807299 -0.12046003976098608 1.9852626506988844 -0.7352606850257724
Ni 2.67030453231211 7.823137205736415 12.200110072433274 0.8045794260262531 -0.5824129729627001 -0.09827759012667592
Ni 7.499002151345777 8.68277995763586 6.006581469758021 0.6500448131790612 0.49992889822485514 -0.8151823983530799
Ni 7.361529143318303 7.436153102552886 11.474280634393267 -1.248991007910094 -0.26561706804802 0.6998463100822205
Ni 8.935067628676823 7.246844487202434 8.112417410874802 -0.769424732501991 0.5764688395641233 0.6883707053424531
Ni 7.884853337278606 9.034755060531385 3.476940686189289 0.9707377391553024 -0.6312202242733903 0.02838986399660272
Ni 4.42295537776479 5.5405782455796135 3.434005908249879 2.0047058470251606 -0.6598985660446893 0.5703143899269533
Ni 6.153727919589212 1.9706724127634774 1.0341909412664012 -1.2622136772479553 -0.6030123943806066 1.2589589177560836
Ni 4.634086579501663 0.6372436666216008 5.203838093843901 -1.1919719102125728 -0.8984797130208397 -1.5972962962869652
Ni 6.62371214069692 6.917657736218515 7.146959259139349 0.79561193242032 -2.0738278986338026 0.5773044480915411
Ni 6.8119899870733756 4.445167984844074 9.900299196962136 -0.005610918428874208 0.056173976088406484 0.11294573366181193
Ni 8.768538079031005 3.984358536225635 11.366705498335884 0.6262636515990634 0.7027226031887511 -0.155374592249984
Ni 2.4024067473496267 5.534152190354336 4.172407941910556 -2.5209273117624518 0.35440368796512517 3.258226367374492
P 2.9275603240835997 5.48449884167 6.406613622359234 0.08208889618195539 -1.9582275009579633 1.268457601275138
P 0.8003837507222947 0.8179922563843927 3.727156604454589 -2.4732747428814954 0.007173634930303775 -0.09399721758376715
P 5.470922407075555 6.8494969770371 5.398315411995495 -0.9640078766306366 0.2974313843451394 -0.6843042485825633
P 4.747740466643534 4.77809707723809 10.71702760057751 1.2473131059870388 1.4267010304324848 0.42753768894663785
P 2.9539795829216278 6.865218525442295 2.4653672306261916 0.3113204836224058 0.35289830706419223 -0.35477598370287927
P 1.528602529816441 4.536516402836932 10.496617620833272 -1.9059189213622334 0.41061365949778966 -2.718328899176499
P 0.6360559607497611 4.11026093036482 4.300519524688605 -0.007766017098664045 -0.6552739227884844 0.5229829518308412
P 3.6134674297262204 1.3181306487746474 9.933801045858429 -2.3369576814835944 -0.8620410105778314 0.29779982342815164
