# total energy = -340861.03696943505 ev
CRYSTAL
PRIMVEC
9.32771455789524 0.00000000000000 0.00000000000000
0.00000000000000 9.32771455789524 0.00000000000000
0.00000000000000 0.00000000000000 13.65205311531814
PRIMCOORD
 96 1
Ni 0.5239741057541227 1.0894863900528056 6.10354619177079 -0.6146875167256898 -0.8581329337726769 0.18211715045115087
Ni 6.78775924066272 3.0341283246099486 6.054821941917794 -0.031051727099482007 -1.1315972657792575 0.3834468692750106
Ni 7.972257731374579 6.215914370939197 12.858814204255063 -2.363414847233859 2.2041668880713976 -0.1793717264955298
Ni 0.08136192315026929 6.9677001825254505 4.102441735349385 0.7007528810568899 -1.0090024390634558 -1.160372538139737
Ni 7.05503557408943 6.344534227211303 7.654938209253993 2.1640260541864538 -1.300263175821509 -0.7371980112578013
Ni 0.9008081779478481 9.248746143223247 3.7338365729535603 -0.623833444891016 1.2314969648903888 1.6398434256205565
Ni 5.883810421217533 4.963556756695571 5.456835219326897 -1.883521270393324 0.9328039402240065 0.3882142087566669
Ni 2.816661987012744 7.5427164752044105 7.71906158309855 -0.19646622008397133 -0.09149450576657146 0.9101903165895485
Ni 6.811050543956031 4.5730146751627 3.3473194002597206 -0.8617720731871611 -1.638363241530604 -0.879281542825834
Ni 1.4536963333409783 8.3652623295552 1.7471079902348579 -1.181813224512016 -3.3136932900935445 -0.2630927589642694
Ni 2.1985050144252707 0.7736014704338274 0.7366487963742456 -0.32853299084595033 1.8175254231184892 -3.9442560832885944
Ni 0.6912386835096807 3.1115576832954766 5.124707950318796 0.26101247939647304 1.0394353016320164 -0.688660211558414
Ni 8.445247482034228 1.8853736361487776 9.614977402259782 0.578685644709784 1.2027396902520384 -0.4210543952151394
Ni 3.7113763690288666 1.4636023662194302 4.0982237428186545 0.3136375617913566 0.8523368959161901 1.6087122514333907
Ni 7.7342051277107595 2.3409205605535255 13.37260897509369 -0.4072817669110792 0.8597923237529709 -0.5486065659362165
Ni 0.4987062597424101 6.734665889302883 9.251736608515932 1.0494638895126118 1.2378362768448552 -0.8642624437091825
Ni 6.245930956440948 4.208534228151858 8.759689404208482 -1.0188127402856584 -1.155067838097372 0.17857082786078923
Ni 1.6349431552441815 5.98656452497368 2.1968474795453266 -0.26336838122315936 0.010157143038659926 -0.8571690271975108
Ni 4.276234780535855 3.3954933149528035 7.229363097321037 2.0907622124952963 -0.28390069684855623 0.4791222458921491
Ni 6.179582922670298 7.352878828177804 0.8820044381364813 -0.5350902766173364 -0.24212669823556365 -0.6732842433229759
Ni 9.141570702758639 4.19592315804671 12.792765590122265 -1.0717453266186316 -2.944620430152019 -0.6581191055467633
Ni 2.039859244936841 4.477013836758718 13.530140082690432 0.39493892907501016 -0.6541076703945251 0.973004423702292
Ni 2.0113071106233362 3.1015397178421273 7.49908609028072 -1.4228004098264981 0.015610195733431182 0.4080494983150391
Ni 4.225613273538341 8.749349632602302 9.58655399040741 -1.5972813838886297 -0.31564122248494675 -1.0109611054517236
P 6.265444535331458 2.3708531966241018 10.345566915246229 2.079480983154522 1.5708663842302109 -1.4522505967668151
P 2.4726185626353185 1.4252094930294974 6.218032694919137 3.1818301507019395 -0.2751772009326293 -1.1331473838751969
P 5.4493441317518645 2.8387220319821784 4.305816694538419 0.4596021735813504 0.627014670832475 0.15261219901349846
P 1.8377183423860548 4.5193803163575215 3.712757803557396 1.5529946461561124 -0.09897538752464889 0.6792214347430173
P 9.05943084821283 6.630242124637843 6.121007673454841 0.08436637936222245 -0.22480337646576767 1.6529087434449468
P 7.4269781927601235 8.967422271646868 -0.13695510201615846 -1.2631349035106438 -1.9841573334498472 2.0269718575122124
P 8.001761292574715 8.229077696762921 8.898135075013695 0.5629499791420822 -0.3411563360369157 -0.4084158805155224
P 6.247246164195996 6.470365096825539 11.562675096111635 -1.7925533265541838 -0.3451577438868249 0.7273416872890119
Ni 5.4849107074256285 0.35221823343079217 1.5253303829611742 -2.4598021623163575 -2.1815347524941786 -0.4530255488050972
Ni 8.22665249097347 4.834591774984198 5.315740477582437 0.5313009847782334 0.0695946203696866 0.3026530377553949
Ni 4.249128441981447 5.162115816849629 13.35206281819975 0.7411505681476462 1.258012237572098 3.256976811238107
Ni 6.9953755116689225 4.815693825255626 0.7846734676341311 -0.7147821054564465 -0.9585964758070782 0.8287148856218759
Ni 2.928585234195933 7.464428966778001 3.9008147898716716 0.2200406649698017 0.7490253429100325 0.43301079624606714
Ni 2.5130075667442617 7.02455260285894 13.116892478339548 -1.2816139361514378 0.40401543745498164 0.6311168659263066
Ni 8.578288675014795 7.12463898024669 1.7429301068767988 0.08348937607390781 -0.5954314967095552 -1.115876255499575
Ni 7.991127697959426 6.054544908794922 10.386345817824397 -1.299753326064626 0.22724078226266672 0.4403934618633835
Ni 0.3446711795683105 2.770452489009118 1.1420200785381558 -0.3026885189790206 1.4056092427591922 0.34438769849001977
Ni 6.215336052635559 7.435988765039394 5.4795108934582695 -0.3859426391136708 -1.8961369022748051 0.9857162148420056
Ni 3.915028361340772 8.983904343300564 5.992118246231524 -0.4529748980728198 -0.2385055565432086 0.8623351447794826
Ni 8.76566380539365 0.3148346189578542 1.5557881693623132 -0.5372224924689909 1.0813813070464988 0.67015726765822
Ni 4.018799185985573 2.220872873975674 0.40917978802480653 0.9409335113096763 -0.1430806053739794 0.6911174148496549
Ni -0.06236696519011882 8.738967886280534 12.962119575942582 3.100744498973518 -0.6013656028058031 -0.6638688635463469
Ni 5.4070802570133845 9.171839136553908 4.266990082620757 0.4895748086840408 0.39124091139813266 -2.5551448381844253
Ni 6.341129611391495 8.228853831613126 10.335846503887815 1.7147136925668856 2.265973636965549 0.7760939169920504
Ni 3.5182180556136258 7.325539296759026 1.5427088479855096 2.338213922488199 0.06176201169914525 0.021629919564949845
Ni 0.5569130642321621 6.695526798946964 11.64337195321272 1.9082311144351782 -0.41324029848735927 0.32898113412696245
Ni 6.654494182532359 1.5521037221052616 2.745905675334038 2.0954758159208815 1.7581527375871269 2.967170547538393
Ni 4.539322970118473 5.971938668520372 7.513571098243948 0.10753433283825352 -0.9857239281514896 -0.3955179415069317
Ni 4.697409076732414 1.3065796190670178 10.934338788608667 -1.5052703434969559 -2.90255461133022 1.1580834849952442
Ni 1.424472603578087 8.185563908271416 5.9951488206968815 -0.38182938827624563 0.2337904104557264 -0.5738959366306245
Ni 5.922408504128112 8.246287330153454 7.802503586599003 -1.1727976512769673 1.36180098732499 0.976031383454074
Ni 5.805289719926752 4.36026816114035 12.042599069786199 1.7117142436189297 -0.8940427602954087 -1.3757183687370307
P 9.045187428057089 4.007466012777176 10.765558457234702 -1.5139653001677926 -0.49128330673471515 -1.5768200307104843
P 0.3651651012606335 1.6088162267201285 13.116087496571742 1.6195695058628687 -1.6534196216430945 -1.7042588157821488
P 6.350839762263877 0.1669903429470583 6.143137676283587 -1.7554343102146994 1.61439258964762 0.9872856162116544
P 1.7851753261861296 1.2455950211768863 9.5961783263057 0.48446114160655923 0.906715984887703 1.7402285490085383
P 3.7210305536137986 3.250400714741578 12.318998840838534 -0.5804802747163617 0.616999195578002 -0.4336875105981176
P 3.5423488532186687 4.558304869278219 8.860988384490957 -1.1337284531896474 2.3433856964971254 -2.197487676279009
P 4.067284646345455 6.33689482897453 5.535034114464848 0.038416909215301574 0.9073924421294373 -1.7092344146198695
P 4.1896362784232855 8.852933902955607 -0.17309719767918877 -1.2801237247591566 -0.04502695833265148 0.7099774849789515
Ni 6.614394337575235 6.805341982636245 3.2599597566378464 -0.735953597327739 0.500118388527842 -0.42181287064771866
Ni 1.5609743786659096 2.8410073220530077 11.638061685305278 0.400605126221852 -1.6426626402369062 0.08072261196204808
Ni 8.52644523740798 4.629270121763401 8.708931712578176 -0.6689372792081899 -1.2802599932267047 1.103582011513254
Ni 4.157894065725195 3.32384713930366 10.257742751438528 0.6319560739981503 0.022464756761419378 0.3208893582577635
Ni 7.426558445604257 0.9313760313809698 11.465130520945522 1.963070687982877 -0.683107657171301 -1.4962951365815391
Ni 5.538078680502067 6.407925375461735 9.415342856615247 -0.8930564851227394 -1.2501680589373307 1.6660110851548597
Ni 0.00044493198521860963 8.884284351641554 10.55750098532911 0.43617865245108756 0.15899496261139068 -0.8560953345173579
Ni 7.881349825128445 0.8572486836549259 4.8932509736308285 0.4399442901411068 0.8302390355758863 -2.473861725733217
Ni 5.798256623137342 1.4758403277415857 8.129757124741763 -0.1168016170727924 0.4148516088385371 0.6159818100570811
Ni 4.1457960199216615 3.48950735015235 2.482612276030774 2.107987832344963 1.006341861512157 0.9087882940356994
Ni 2.209558356196425 9.250686307854808 12.027281096911441 0.1830661446279815 0.1659063450192433 -1.1347298978709683
Ni 1.0416445419985865 9.269220476714963 8.198153524633042 -1.0329813184765566 -0.7148037027230012 -0.4449049765804919
Ni 1.5567116131052199 4.34176197542392 9.889847428121847 0.9556458778191865 1.0493116802054638 -2.174859397356532
Ni 9.19949581026823 4.444516079180067 3.0313290774660473 -0.9960749323685104 -0.25476881247960637 -0.5442639726968046
Ni 0.8514188620456674 5.2866594618525395 7.458389271590808 1.0836999278773465 0.07209193287024358 -0.6836229062448227
Ni 5.939114440931603 0.8047336505987253 12.960303469914866 -4.048061545212035 1.3730485352143516 0.7837663459356436
Ni 1.9050271307579099 5.905889121616117 5.521244954008901 0.8490019180056863 -0.7707928164941112 -0.85657535947757
Ni 4.285152075669377 7.710326178399237 11.664928301595113 0.7659051493845068 -0.965180299672183 -0.1765226870825089
Ni 3.0049232502762075 5.379237029007566 11.505226634816813 -0.3880332030941124 0.18037368539748289 -2.0605296388629997
Ni 7.944405175654184 1.4439861824685971 7.295097367472664 0.39033074087903746 -0.2992237003588718 1.1578731687566512
Ni 3.521930486014402 1.1552934163781157 8.111012149532218 -1.2510424911224842 -0.30839302556296566 0.42223607422806636
Ni 2.2135786011781695 2.502290022697801 2.4496565276665 -0.9737235612565036 0.5524341672124227 0.20994599973796102
Ni 8.26513864130915 8.56741255982056 6.548930571146278 0.9106618569093283 -1.3425930469379714 1.4834105673093874
Ni 3.3801772076209593 3.730162386182541 5.158046134980637 -0.42243739160559507 0.17339982518281102 -0.981504233643187
P 8.012152366611057 8.42829902465179 3.4690143612314843 -0.9334001790471087 1.0112621816319098 -0.40056373146095525
P 4.757927288893805 5.478399962652409 1.9642851686802432 1.306597088459337 1.2741145424505993 -0.6879397884526217
P 9.043088692277756 3.2874783801764615 7.188898538724038 -0.14918183317571082 -0.23917224359293 -1.2636488670325847
P 6.20601766577532 2.665935447198331 1.0501103757466874 -1.815621521227557 0.9576932472665183 0.06521628879633284
P 9.534603284082985 2.0343185824794014 3.1213368592557114 -1.4345218120284844 -0.3332321960938326 1.2396609887584198
P 2.8329388489457936 0.4071146320179428 2.591063747849217 1.1575957467255482 -1.9453714709309013 1.8461063200799757
P 2.3041693651287596 7.480164821265711 10.333593860817997 0.4995728004370171 0.17994328272828364 0.42268935971540106
P 0.3244216439978476 5.700987215551186 0.27683537532297847 2.3935114095089234 3.0562538727603106 3.4625007706489725
