# total energy = -340887.5805458038 ev
CRYSTAL
PRIMVEC
9.12832936423194 0.00000000000000 0.00000000000000
0.00000000000000 9.12832936423194 0.00000000000000
0.00000000000000 0.00000000000000 13.36023273023122
PRIMCOORD
 96 1
Ni 6.758058015015165 2.1253853705775883 11.454221839463031 -0.7827906122859358 -0.20135928651021448 -1.089621435568104
Ni 5.258693452026722 0.7048302366110302 5.814266380021682 -1.6598319529273413 -0.6658768951153112 0.8507793216210832
Ni 2.5975755766868223 1.9481132200470952 4.601838061673574 0.8250996574667919 -1.028509912968764 0.24103937870865583
Ni 4.037359535838369 4.591047463880469 4.896257710485118 -0.4169871671243012 1.5608884470818927 -0.33270254884260764
Ni 3.7955500987862187 3.1825006468048924 2.8848614363305205 0.2058468899679229 -0.4986135218475413 -0.8675681110436478
Ni 5.398630736662791 5.075150139425454 2.6064747846967182 -0.49848419535852867 -0.6727576813955446 -0.08422368313677107
Ni 5.800541937265627 3.000509150145447 0.12480890486911786 -0.302803190180014 -0.863075622489933 -0.6694784964236405
Ni 5.761919976972397 7.893293531419604 12.484963547342616 -0.5528146904802932 1.4318429796447405 -0.5291314879307404
Ni 2.1567411809314625 6.678093852365983 0.548402625510835 -0.9077110018111205 -1.2577533274837565 -1.4988608404261863
Ni 0.9160917204319602 8.9304816652881 -0.28090789612280953 -0.9751543801657593 -0.16395256372698216 2.203846271507185
Ni 8.244715943938807 -0.04231163090313801 6.902336732956707 0.0945255792834114 -0.01896060026290283 -0.2941743108604224
Ni 9.13608814925045 2.936647359974936 1.4924315970601263 -0.6912680814949063 -0.6303535053977208 -0.561288275168943
Ni 7.144350644580016 0.9705422033317742 4.582493306709401 1.21622795454646 -0.042626319310958845 0.18073929626701776
Ni 0.5899082249571325 7.92980684769777 2.5229998666873903 1.4878117817008762 -1.0926270551636474 -0.563879432934887
Ni 7.628800196629644 4.111874086033035 3.74777242443624 1.386190471912948 -0.221082990191387 -0.31176014226298565
Ni 7.876588689222344 4.059395322212242 12.535318148988928 0.6354214068389314 0.29106147626305356 -0.7317783829041269
Ni 8.50835121579623 7.468698433078959 9.098705816044864 0.0905388267215215 -0.6015280965255962 -0.5624283023106572
Ni 6.979319583331778 0.9921398299103091 0.11444003587902586 0.07071664978927175 -1.952304964825941 1.2410018190570304
Ni 2.31918892505302 6.36051928403664 9.28415877508748 -1.0028816708776986 2.6248572150788987 -0.3599595847863478
Ni 0.17105210710250734 5.2516281253268975 1.0603841308671071 -0.03961684306067371 0.7058976584826231 0.317319381518318
Ni 6.4567683857458835 2.42526923717016 7.202447894943112 1.3146438700232133 -0.042451998516623665 -0.4065137783968032
Ni 4.205284277401652 4.356705000007204 0.5651567606850711 -2.5407844556976955 1.6493426233602435 0.3850424958969046
Ni 6.480556811301108 5.968393652196353 4.52759553568518 -1.0822120304779104 0.8082892707776724 1.730704154457871
Ni 5.824522057731312 3.1640431654262797 9.453633506926769 -2.0794475588134254 -1.1190266282030985 -0.9883474818172655
P 0.261693676264332 5.82235864374183 12.22736483949888 0.5732662734664256 -0.23059838588098996 1.3724720938855912
P 4.189054108316007 6.270094056273764 12.619433875698936 -0.28906244355515376 0.10744408711729238 1.3162425819689008
P 2.502951317551957 8.600510826082319 1.12888767636948 -0.1489391210372854 1.9820788536542635 1.0396343050166998
P 6.606828987320074 8.074636916715113 5.553607856273835 0.8840774215525807 0.47990848923887025 -0.578959467196461
P 4.768830800838856 1.0701231451514006 12.451683485220881 1.0315055052619782 0.9501835691530345 -0.024152685986803566
P 4.376924248896238 6.498174486405323 8.284987393294903 -0.2554092742770827 -0.5116598135085382 -1.2891611523710766
P 4.846321186310192 1.3387607413389329 3.608291556253648 -0.2435022384268516 0.5637308231721646 0.5292633855229143
P 0.36677534918126403 5.964970528795274 3.5000998616227235 -0.33728708288949655 -0.9393103738839566 -0.8776231812868047
Ni 0.6628691335441625 0.4200446262994795 4.7490414962489975 -0.1898065486756086 -0.5836332185230464 0.07814071016748479
Ni 2.0657499967662747 6.758660484733754 4.725327010159235 0.5865272522413898 0.27072687847075955 -0.06428760633447637
Ni 6.383760009847693 5.553255502771751 8.974455564914802 -0.8994567322221284 2.5584625897037485 1.574211903663676
Ni 9.017940186103376 2.615960031432879 10.330251593963313 0.1592826690551386 0.19603170364971398 -0.34611933646914583
Ni 2.701528988130759 5.662439446772535 7.022912831636279 0.9965804112500192 -0.5931470715507526 -1.1035791832997768
Ni 0.5705433876690076 0.41909984424078195 9.059573582156647 0.2999798617986059 0.41702419100982374 -0.3009787353767655
Ni 1.5564074913440067 0.8633381939061738 11.294673252653958 -0.0692079264542292 2.06167326554914 -1.9332248082660386
Ni 4.30879952905025 7.271143135355945 1.333695431538244 0.9430814108906146 0.025863498030323197 0.6421283865454618
Ni 5.965773821753395 7.97536633808385 7.956806619419659 -1.1943910611770268 1.740920175758924 0.19359584051471176
Ni 5.647368575478723 2.9650638483684175 4.924528145613488 0.14140913120882745 -0.010404997383407886 -0.35862441091469205
Ni 1.3205314681870588 7.6115020130428634 7.071009997503693 -1.2143034838302378 1.1482454158588997 -0.6258121658839415
Ni 5.324435677985559 4.816626731846974 7.092880561121406 -0.17332372052923697 -0.30567819773496385 -1.241957240991764
Ni 1.0021536068995958 7.502947923747878 11.135699750576268 0.04224039672644983 0.6083201797467652 -0.648651018155328
Ni 4.742313004891838 0.38128391540439305 10.268380692362868 1.0884125028616674 -0.8434143966155798 0.4930242006852219
Ni 8.656129735103034 7.4266624777137205 4.778540604470127 -0.8248692866235408 0.3895804929765742 0.6449463156102312
Ni 7.247582918027458 6.532113613885878 6.860572801797743 2.027122267047148 -2.293722010723411 -0.44233773007394783
Ni 2.4448495030243262 5.245073985054967 2.567609098017332 1.2454266875976034 1.5491459618339836 -1.1346977590814522
Ni 2.4371178083024247 5.557125914297237 11.607610629815975 0.7445850477504918 -0.19507242506023822 -0.3543198700020672
Ni 1.120109875136209 3.8826526147677827 3.6774039613049596 -0.9440730853799224 -1.5205866621390522 0.7818884121866405
Ni 1.4448227967979337 1.2043734807771451 2.276089519351181 1.0036478596197618 -0.12899944469056493 -0.10802927019680106
Ni 1.6594480698809897 3.603773033364225 8.054603885739096 -1.147801643453262 -0.4248825107119779 -0.32685997401890154
Ni 4.0447899957009765 2.6662479962769816 7.100134844232971 -1.143206567883412 0.8058148410952509 -0.4703175031163255
Ni 4.545122840331606 7.364662866673395 5.694184123944773 -0.559028789710805 -0.3941542283901857 -0.06631080741209225
Ni 8.248887590323587 7.39006700647393 -0.20137641627152367 0.001189906543043112 0.7625830269898093 1.9005635705875912
P 0.5265813548700965 5.839948933858837 7.968710873359249 -0.18056600391394712 0.07566628048506324 0.7000494272319622
P 8.67474239807583 2.0334539685182373 7.784953957857754 0.9619324821588464 -0.8769770630623734 0.39097403088999116
P 2.061103677269878 3.5311389189578843 10.343786167474722 -0.01252075817483005 -0.18799726338101172 -0.0713779375223545
P 4.06719091523763 6.535089449162549 3.6880658496581837 0.5299269872488422 -0.4270255251969097 -0.7645828310286574
P 7.285885386803255 4.226608054108101 10.369156532457698 1.4997622691945334 0.007800726991341404 1.2044772417684353
P 6.599763660620249 8.01040086505275 10.022552052021398 -0.3800429857997842 0.659537840271161 0.7948987084033794
P 2.636854776673059 8.87076413651516 5.414996005018664 -0.17185459218287824 0.20704862358550793 1.6451830926659152
P 7.212959165866688 4.124854569969923 1.2445481698451035 0.08781397159119071 0.7106660264055439 1.9788657460336045
Ni 2.7460478490029123 1.4717331108949414 -0.0391395365514724 0.05043501672210023 0.5647201836686274 0.9743084872256964
Ni 1.8688154254199896 1.1622553704502814 7.03437618728181 -0.8807822957410766 0.5897917819252746 -0.5235313681351436
Ni 7.215588124638716 0.8490267995909468 9.04316723631996 -1.0596984227564268 0.32636940753572824 0.5410359526778101
Ni 3.098921665844172 1.8096273397330838 9.367005664056823 -0.8433064102828057 0.32696873168262397 -0.5486325340781455
Ni 6.611977364915295 2.3663458730262708 2.469718722741385 -0.10450403065236197 -0.5742803165532367 -0.20016089532673917
Ni 4.331985484886886 6.810135132356899 10.484429071947865 0.9357614801904335 0.9712676435168432 -0.22031294479458186
Ni 7.34905342396448 6.5155456966246605 11.270692219355366 0.8114802669111444 -1.5760625837191695 -0.9841570978850018
Ni 8.06234105745844 4.179761469323214 8.301995296017271 1.4983875003341938 -0.8202148185706648 -1.4734372581467592
Ni 3.3078234766006256 8.565850560605272 12.095913249565857 0.041865272775218225 -1.218696984912243 0.1842812479820052
Ni 0.5179824688865885 5.143740404053988 10.144504702724658 -1.6180345572755812 -0.9210272593040526 -0.27479770610602355
Ni 9.173514298435569 2.705937971071348 5.675119608683035 -0.1921889328648561 -0.1688561716761866 0.23423932506768694
Ni 3.6568451385745386 3.1376349094280966 11.723002750416954 0.7488487081228523 -0.35008294910258414 -0.1265424985096401
Ni 1.1741952248732415 3.7408440226724577 12.542853584635832 0.171106401162944 -1.304482613219495 0.21198848408928653
Ni 3.4314940788347714 8.587785935359378 7.609253705593035 1.0045068651859477 -0.2957241718460455 0.5435924005510767
Ni 5.800587578910974 8.503148068226592 3.2483003812368674 -0.8159149056437303 -1.191054026383994 0.7425433347301147
Ni 3.1522128509521545 8.634212617007066 3.3221421735791083 0.5677887952916222 0.04680204795520326 -0.3145729291214324
Ni 3.650071918404939 4.569678045528673 9.061737908979035 1.4326531342508617 -1.91929200023503 0.6457775532622749
Ni 5.566783686452812 4.96875946411995 11.51344735129912 -0.8723547337990137 -1.7327785204883963 -0.43099916513267705
Ni 7.8860273814802495 9.22481550780639 2.371133681623245 0.20713886930646905 0.5843431001058774 -0.48026432991639223
Ni 4.636862547480496 0.8268385701216128 1.5044955967584321 0.16280302350357123 -0.2907069211371122 -0.7371828417491497
Ni 6.244388681613935 5.797639128621512 13.629842230576118 0.07060763501523323 0.3329156932946783 0.34482118648301263
Ni 8.210238245043149 -0.03195554157374336 11.242995956125473 -0.07572875829188248 0.06224872152757666 -0.179458115561749
Ni 0.5142654132894713 5.179842945524024 5.932758481174677 -0.9780761817982446 -0.4121642918143611 -0.6147245406112123
Ni 7.396977151579573 6.380282116472197 2.3782145264824885 1.4858361460317442 0.2610651870112794 0.042944621882326034
P 8.810654089592232 1.832804167240649 3.439765257804683 -0.16870036282461268 1.3708826379112844 -0.02414445845668745
P 2.242657014133986 3.3462902552996727 1.2072479916011438 -0.2043397092947771 -0.0361319698358668 0.41130014404185294
P 4.942396849767115 1.0607574795260513 8.231973709390635 0.9453822911096493 0.6742034127031357 -0.830564537236105
P -0.4054347356236786 1.8026624246530234 12.459458995922319 0.9634867140198439 -0.025325109028349935 0.034736117929604696
P 6.5278050425650544 8.006932100006324 1.17983288090659 -0.1195025609437232 0.05645371211235439 -0.25802511463337496
P 2.293839555226904 3.724458671992631 5.727946161841379 -0.8191344410222925 0.132602588660791 1.1266862016308854
P 7.294064369649564 4.156685053435414 5.976699518816728 -0.30979427678586646 1.243550296510497 -0.2477800398665991
P 2.5324723337628536 8.732524721086026 9.692635069957129 -0.29938079476202634 -0.5178165771385533 0.983681958020796
