# total energy = -340862.9743443187 ev
CRYSTAL
PRIMVEC
9.28560203936807 0.00000000000000 0.00000000000000
0.00000000000000 9.28560203936807 0.00000000000000
0.00000000000000 0.00000000000000 13.59041718765528
PRIMCOORD
 96 1
Ni 2.691403918659855 7.4462357699764405 10.372736277437276 0.706741237429841 -0.3211796358046727 -0.23286147088355377
Ni 5.010213766516337 1.7050036906936599 13.28247163026432 0.32218982223674186 1.2298591721766496 1.0532017592884892
Ni 6.925285634047576 3.365538632818378 13.07498670793747 0.9472813079045751 -0.9263779820930045 -1.9261352484091083
Ni 6.279082011076226 6.5020850316716965 6.878150989109008 0.9796610097868612 0.3246187433932087 1.4709265759097636
Ni 7.997159829559627 3.1856115204733406 3.6637318166080437 0.5648603087909175 0.573673021986541 2.862068478290716
Ni 2.9789233028086772 0.3980858343127313 3.550986035625774 -0.9963014465570197 0.34952270572374 -0.42610352760327264
Ni 2.453218938592633 2.4771850776731172 0.7874042031005525 0.36652232560553005 -0.21634161885165967 0.11741379673549457
Ni 7.588296196862271 4.966562150934253 5.806125438282344 -0.7585487090194356 0.5589699114484116 0.017340805271292718
Ni 5.518191916278818 4.39628689652591 7.621547009505939 0.41192620766162613 -2.1575610152874005 -0.5491457262691382
Ni 1.2529620081225135 1.9961351740684832 7.547764543593648 -0.8669325343421779 1.880851951091277 0.2335962921670493
Ni 3.0769421188232418 3.378055624480715 12.259670913414203 0.5635966115871455 -0.19408306456377544 -0.6381462619692622
Ni 5.51166413798607 5.5287032178825015 2.814643358601774 0.3826297726903539 -2.593596457292404 -1.8213514817327985
Ni 0.7396307087358943 0.486220126866941 0.9563631622174348 0.5541670907431294 -1.5741386272235793 0.008457129628417694
Ni 7.383232959569202 2.846473474120562 8.395521446255422 1.5261852392727522 1.020123745787598 -1.4754398903990849
Ni 5.056846060380029 8.43652666523234 7.292237773000774 -1.7985303700732251 -0.37117885054093497 -0.9483516581506183
Ni 0.8926862170960369 3.6137242063724964 12.408526543933933 -1.659879261225509 0.07024999456549837 -0.6573567734594421
Ni 6.279787716837605 7.552128776591645 2.1318609631857326 1.3455703843987408 -0.8036180905542484 0.9696146812944526
Ni 7.3007768127134485 3.4527118655528164 1.7585045444480285 -0.582842604300951 0.15421245362108282 -3.0655908338905205
Ni 5.406031128230322 0.1394827437363752 3.197036525325967 1.126915286922556 1.4575313855497802 -0.10496014435317406
Ni 3.148905535279558 3.421818667288279 7.738437883276092 1.0780650981890725 0.6859816362849863 -0.9983087067950355
Ni 0.44508212377966133 8.05546412529243 8.640841482994263 0.5040089818314998 -0.8749852294433254 -2.4211461405070565
Ni 3.111586700345631 3.1537804763943407 3.3000119957539997 -0.7077863908649036 -0.09984570594474418 0.11900890913675634
Ni 4.76925239141422 9.030898057150894 0.8528379841436968 -0.8255933092737588 -0.7644869288807414 0.9896577159882569
Ni 4.978614862490421 4.567652683713177 12.078428959808491 3.0415435631333296 0.015613023946908595 0.8171523775952572
P 1.3676763367549432 7.6078238181277715 2.633360548346721 0.33132032378310033 0.46670484606440266 -0.05149019745949197
P 0.2298827232086934 4.238478088438802 8.109456187399125 0.2450703542449199 -1.099384685602455 0.7766441330685657
P 1.6799604217668618 1.6836560914119734 10.99974377513893 3.4299470050826675 -0.37010232964730455 2.0131367514013334
P 3.724297156457892 1.3155841088426936 7.933949950225037 0.9422555725552094 1.250026391153144 -1.1562662292808474
P 6.21436136427616 1.7557309350937702 11.401150140770985 0.3163557320534681 2.347974858529705 0.08757691587972015
P 6.823970429279206 8.358852603470135 5.8550503473103035 -0.032687205820375966 1.0658122489636481 -0.7536492148352891
P 2.386297604089321 4.141824255936377 5.6888538548251315 1.9332610608206122 -0.5202647815687298 0.622375886508883
P 3.8172553193152057 7.89773888762443 5.15015614755782 0.5210631091003091 0.7491276728158518 0.31285080422400313
Ni 7.623200775244115 3.4526004383273357 10.581498898616307 -0.8472121730951151 1.1107962698735063 1.2349008483656152
Ni 9.421079058375978 4.47673735332301 0.8872411400108777 -0.035029223689991285 0.10525427855482519 0.32985428076053513
Ni 4.384559181044062 7.961930255103464 12.277052632028987 -1.112121159332517 -0.6214106943821363 0.05556642441139462
Ni 8.295942649084129 6.137225867437111 8.295767151203997 -1.471479105979124 -0.61081697802669 -0.2324495801571158
Ni 5.232074658050628 2.687299682521314 9.506891021839126 0.06888293901464265 0.7649440710228181 0.049120411675734756
Ni 0.43632115817623757 8.359706878865486 10.74295323409706 0.1925658565883006 2.0815026415702413 2.0361044159411
Ni 0.6477013905938529 5.516149083811671 3.155110174618411 0.12011165528263185 0.6297289844398446 -1.0855387808582981
Ni 2.3988888805686455 7.639924144668351 0.634524192620542 0.5199647338298077 0.6011840829226163 0.36686479654661336
Ni 8.473734072940786 8.317150964333964 12.88858103099094 -0.9168646432859308 0.8052715669972712 -0.9547405923960977
Ni 2.231413760671082 3.589600212055915 9.835670050463044 -2.807416338163475 -2.6525078869166316 0.9950117812113186
Ni 8.618310898002056 2.8194987999520977 5.853542365525464 2.362593379773828 -0.9418783917214488 1.906639344468026
Ni 3.9924560601794346 7.555350880528463 2.9532523271783377 -0.9598563163561081 -0.7604963196641096 -0.44494637134138854
Ni 1.6429108692945134 7.709129737294018 4.928836606627321 -2.0981417927888186 0.11222402500443898 -4.067264600503046
Ni 5.6203056828298 6.4807652891963805 4.67742707201596 -0.027659413588481396 1.8461189184854656 1.7310291418974573
Ni 4.469903150160191 6.327803565417684 0.6759927631434147 1.3013121859113137 0.8967079658323975 -0.030747051374869626
Ni 2.426754972540956 0.7730811618252147 6.15766904907198 2.018509585677472 -1.2517495444918378 0.25588827079603027
Ni 7.445325780968348 1.0982453055424954 4.880536618622267 -1.1617735322523217 -1.597796118741519 -0.7908736464043863
Ni 2.959247111909202 5.9138885651652 4.418666126203506 0.2163267064533242 -1.7069559029983377 0.25292815972644184
Ni 7.474937566139857 8.600491827527259 7.907339271659809 -1.6679453260630954 -1.091013173709308 0.7329770311979182
Ni 2.195255626002579 7.908872324570382 6.894037725781924 1.6163851945976162 -1.1893558127459645 4.716816533206089
Ni 7.078368070653876 6.248662378519983 11.49900181594733 -0.20760989540561667 0.26377770084643604 -2.037809057337032
Ni 4.999943890567861 0.360971282625519 9.284238997003921 -0.36662105596692346 1.665418960096816 0.7163841598362436
Ni 5.253412971730191 7.652738275598637 9.880057085733302 0.3395403977000475 -3.4108226255483904 -0.07786251680543363
Ni 4.016477912872659 1.5078053583991067 11.33849832612401 -1.9097449799765434 -1.9276455144060478 -1.974539350744109
P 7.735723701775424 -0.24180172209428408 2.615108768812975 -0.6094985163255826 1.3084989334677402 0.11209675539795534
P 1.356970037506668 1.5476591627127207 4.657286601010315 -1.1953277140586833 2.461314999416458 -1.2139653837645286
P 6.55140086454905 3.1516726447123298 5.7171080849662 -1.117410175645598 -1.1869855127415752 0.0639163390379867
P 7.85885078593165 7.788744489900013 9.998143945056949 -1.3262408308321934 -0.05210803354914897 0.3255649093565619
P 3.4033588902669685 5.899245170616604 11.996233738372405 -0.7668361458392083 1.2954906941335302 -0.3951538732992937
P 0.30458074949034963 6.567446385018278 6.602877457040519 0.3829151651412567 1.303238199289433 -0.5399571177913346
P 8.875457077605251 0.8978685116411039 8.257387900507577 -0.3787456071445993 -0.14863290265077628 -0.7489307263136972
P 6.407093321949359 5.144279289973922 9.334074823600185 0.4134930379281137 -0.3071660951344 1.4562160091724663
Ni 6.992745533474046 5.659676635832998 0.11718708447788993 -0.23795791156985469 0.5244731632231224 2.253590432809848
Ni 9.041873638860746 1.5463498928133221 11.94472650339393 -1.1960836183881012 -1.1175071062347786 1.7624073990984228
Ni 2.1278421545867268 5.573171966451444 8.820465884710076 0.02186440417325912 0.5560306263144296 -2.26312048378747
Ni 6.075838751799344 1.3363095727821128 7.165099308727241 -0.426424144167485 0.347433170184563 -0.6024639780763044
Ni 2.6161905414603503 5.102549794031383 0.22777767720731962 -1.5796911816106924 -0.8074297509908545 1.0964687975072407
Ni 6.29782035616124 8.971043065863485 11.564208099738453 1.107482117898609 -0.9173752643737619 0.9434976724924267
Ni -0.11135108354333578 9.218504362451979 6.443774236017409 1.2386140355511444 -0.14854985601866674 -2.4332912605100225
Ni 0.3139434221113694 0.07659971759652762 3.636469288773754 -0.859230794822546 -0.6357227401294342 -0.840375866899572
Ni 4.389972687082002 3.248252192397768 5.428447500316412 0.08612295704201296 2.3771237121795186 0.5844868247725934
Ni 3.9854454305762705 4.67977632935318 10.123474502597057 1.8587710600318375 2.448228855656461 -1.4177690180501776
Ni 7.2422496625296855 1.2161353101011265 0.7419428236646198 -0.7225103273386395 -1.9080704204875978 0.35186086693861335
Ni 0.4918871298428494 4.789300006398631 5.292584284287736 0.38545438662334264 0.61885887449456 0.345637768847037
Ni 0.36299090108735754 5.625719188867739 10.111325220778804 -0.9088327741203897 -0.2041612747353839 2.0717440195215806
Ni 7.279512783850873 0.8280528549559293 9.716169922496217 0.5776515470183148 0.13747945713711807 0.8633838977589711
Ni 8.37163887759405 7.195459513429895 4.896410355452211 -0.017811574260124162 -0.2531875840354156 -0.8229106202352731
Ni 0.11384891051452922 7.050334837843344 0.8325545148653514 -0.02179806971169794 -1.3093988195741901 1.3510406634846925
Ni 4.065329465643843 5.773564545876445 6.627611515416608 -1.8137407592650763 0.43569631349803034 -0.6089868667964867
Ni 0.7816239157787387 2.6969474231275217 2.5047410305345066 -0.1944468756610974 -0.5675098305986227 1.0993090951695133
Ni 4.57107907089671 1.1559646083415227 5.154220455607231 0.8144298364577716 -1.896248231041689 0.4257556573455506
Ni 2.25046781622829 0.30122771856359143 8.991488104618778 -0.4785843711108081 -0.47600581175035445 1.257518585765131
Ni 5.49804215967105 2.9974295078406046 3.0927034998674934 0.24820684299137252 -0.32506765800516924 1.5457132820033508
Ni 1.2583105149455893 6.875728375515013 12.18431175226136 0.1732656135977919 -1.4468494803559018 1.2743816800690568
Ni 5.033232774180234 3.971656311423028 0.7404496988431778 -0.9576924759355699 -0.6138560219633299 1.2232720058774351
Ni 0.20259233856803366 2.1062345584455855 9.784461811872944 -1.5106478057587855 2.0479127214299373 -1.7168687912366756
P 8.833736867264834 5.426227312848707 12.554053286092426 0.7138351681621449 0.06910482521746164 -0.826333786984209
P 7.874023459801278 5.390812026350076 2.407039782112562 -0.1918230648850051 0.727405964868044 0.2721836655219441
P 3.7337034714088917 6.888198939166734 8.430516094977865 0.46263478976008715 0.9731880004680079 0.28628616636159726
P 9.02678453541023 2.2534670657141467 0.59004337276884 0.5451983115856158 2.0655558884329976 -0.8985185366785752
P 2.9630820655861645 0.21961470438064254 13.198673713901735 -0.17079349790821555 0.9939915674769203 -0.062224553157860574
P 4.3246484761439135 1.8126609617123088 1.8047254861376552 -0.14361590905215912 -0.44754498530650016 0.5150495559163775
P 3.369485013720821 5.199352196167783 2.473836689547421 0.25438803210141997 -0.17950748074244569 -2.1125281434174776
P 6.4512649312503525 7.903430961726072 13.719798419150521 0.4626633290051773 -0.17633088278667697 -2.9060176301781566
