# total energy = -340869.3551275714 ev
CRYSTAL
PRIMVEC
9.26548210918375 0.00000000000000 0.00000000000000

0.00000000000000 9.26548210918375 0.00000000000000

0.00000000000000 0.00000000000000 13.56096963607402

PRIMCOORD
 96 1
Ni 2.017049164238577 8.46844696034565 3.8442773196214652 -1.2795974199420415 -0.03843490693743058 -0.429341574924596
Ni 2.9931399256480784 8.150779900487041 6.005787397681641 0.24173614766536433 -1.5739139128072828 0.06971006290162833
Ni 2.0352002440187436 0.7423198639222436 8.902275371507958 0.3722998515192556 0.3707715878001872 -1.2457395908523319
Ni 5.533012458317214 2.0257123901673446 12.933137267025842 -0.03986778272921521 -0.5730449014842389 -0.5691116278681037
Ni 5.014340025946643 2.5924819410365596 5.0859195827275006 -0.4394115575660884 0.5792960246002734 -0.5922736678068637
Ni 2.800482752667474 1.861944990925668 13.256200543762432 -0.031182596250391454 0.9844340056954722 0.23747917216122327
Ni 1.4229557061352063 3.582545049719411 1.2579532181060376 1.4362588493242492 0.9652875146740085 -1.2379787159599904
Ni 3.4698953161986013 6.850740082235292 12.130884557544624 0.2048505874929246 -1.1882468959525019 0.6658023331236339
Ni 3.1119419394006544 3.746015953528231 9.289603106767908 1.0124443748654692 -0.6954612936406473 0.4625579137755646
Ni 8.904860441063173 8.649133130224685 6.425974239287879 -2.3723939108040173 -0.3961478617814468 0.38071250106298304
Ni 3.7730063034004235 8.948890012842321 12.736069724481501 2.5649618242748473 1.1185334906167639 0.5663533483966763
Ni 6.046246052591328 5.336361862475326 4.694916230648362 -1.1246745705174952 -0.4779431379823833 -0.10929451006246985
Ni 3.0216498146136592 5.435993593397293 6.016771626920736 -0.040957930469600425 0.6594612213969545 -1.8454427183540476
Ni 2.469788424727746 1.78371652406301 4.227442073694467 2.0380669389841093 -0.535748993247258 0.6574614173581064
Ni 6.403680562381775 8.31043342559784 3.195669469994568 -0.27207876451296364 0.7854648166839892 -0.6282089482508922
Ni 7.376167051185618 6.256183350018083 10.539300780165355 0.5506719331056774 -0.49591977706546203 -1.2654229282138725
Ni 3.6850490801471714 3.6195606514150542 11.773851243136761 0.3899928979236445 1.714150620974564 0.5311420906028658
Ni 0.8879389630284369 3.599936359952883 5.569341487776149 -0.6007593366803717 -0.11992036520743217 1.3557678937570328
Ni 0.1595766216078998 2.5287910158661333 13.07824027876922 0.6755642976064042 0.588645069915341 -0.633720879208057
Ni 3.3865615686014503 1.4116610832398397 10.772590799122447 -1.4369910995045831 1.6641395791637597 1.4946028364807808
Ni 7.640010924498546 1.1412572484749686 0.23761143989097344 -0.20498377063667922 -0.05888803258545987 -0.6746533557563608
Ni 0.16886990033148688 7.7972554242173855 1.6333238484878316 0.9269917044176035 -2.9305793786779204 -0.07688369783193211
Ni 2.559218859663003 7.998066221601536 10.013339192887658 0.3761238532510361 -0.38928404478207795 1.5260124611403139
Ni 6.673185645365801 7.44038610884582 5.470346295486596 0.9200247861814671 0.16600199005684313 0.1349687749001224
P 8.627053485959173 8.491870099541291 13.116671646156751 -2.0935721711402655 0.06265444160642758 0.9975512598037206
P 0.4286276959603645 6.81217714499943 9.934563136022446 -0.7560593669386786 0.5169074350607227 -0.35480040918291156
P 1.4691904626962229 5.775017589903825 1.7090756519379122 0.16242609978012673 0.743174026335578 -0.6456559400827461
P 0.10227609956375255 0.8341945330821089 7.977470907596762 0.14988811521411605 0.6998499096266464 0.2886407826367029
P 2.6779004221459815 3.8872774963196655 4.511449489538072 0.3068133397806716 0.8275789722452199 -0.4950070354432055
P 5.971547734476114 0.3212055475401012 11.326990004603966 -0.722295383114356 0.4157527804965679 0.23578147274382621
P 8.560879411538577 2.9898043520284463 1.6285910401408643 -1.0875064461076303 -0.08876168021644068 -0.26874224394056295
P 6.980234462535246 3.7511860926386613 5.795754665787435 1.172491432890458 -0.6988104126185384 0.23698063525824997
Ni 6.429253293465624 1.7367590598844065 6.826157831206829 -0.059383998385271926 2.0519457538487305 -0.1265656384380917
Ni 6.622827749191628 1.8065281414283854 3.342820153321109 1.402926039500074 -0.18176696620058372 0.7366123139576605
Ni 2.0542222791329254 5.649859455309393 10.663234944551027 0.6817187472435743 -0.15851108099643668 -1.3426678660399651
Ni 7.111711656042425 7.2101296087861355 0.8239274521712346 0.7334814816381626 1.7592200025093765 2.021770515816931
Ni 8.437064771874276 0.46821354243958035 2.1858931212196895 -1.628165475061996 1.431854035388334 0.37608322982108777
Ni 7.656809243866306 1.9488459491993702 11.501438651814286 -0.6762986046692676 -0.3899430185223155 0.024523953283293248
Ni 5.502566083555791 2.621825723407049 10.471848995738792 -0.8992099063186451 -0.6361287173186012 -0.44729815940301676
Ni 2.7874925465154607 7.708278997913689 1.0315381869982971 -1.6657429190951378 -1.0138451118677378 -0.3115426269355409
Ni 2.8187172217881313 5.965590029372159 3.628454587852513 0.7733199537913391 0.04009661091056965 -1.0740341226528083
Ni 5.057470845944946 4.283627031672492 6.741538034669664 -0.4339777881450268 1.9873791828212546 -1.7193727886054515
Ni 0.7180878481238414 3.0155809237223834 3.3111275711934622 -0.905778560675098 0.33832580856665606 0.015732837354224517
Ni 0.5127842183836914 1.263895171890122 10.773010525469585 -0.20063397830841576 0.29155101430496244 0.008509580132907925
Ni 4.94492303272918 6.883817853963314 6.955556777039332 0.16765880893397575 -0.4934456044933566 0.5353414733961942
Ni 8.624644460567216 5.5910607047810945 6.36759428855849 -0.458857582105842 0.39634249429075613 -0.48119018416477133
Ni 4.628089866275481 0.2896241511997756 9.49080768714882 2.3295976415740975 0.5401715477949858 -0.7721732417814056
Ni 1.5957013577030608 0.6304345326892665 6.079952024017714 -0.23106658376666012 0.9693357166014532 1.6453792678371213
Ni 9.072296971286447 1.2533603185414495 4.686020441114447 -0.29424655885925455 0.34663921352835786 -0.16565309135785664
Ni 6.381165440449256 8.927477483300738 7.390145884296562 0.6332339122693094 -1.8428921840180517 1.7917251742259337
Ni 8.28783491432483 5.856266603988705 12.669471290972629 -0.595357191828194 0.18943451004817052 0.37114311220699303
Ni 2.9992273475039077 5.970139381170046 8.232674718686614 0.32019644595579694 0.5595108715535462 1.6144334701878842
Ni 1.0764174035022243 7.410069450836271 12.73874096302189 0.9510469455945944 0.24160142185971298 -1.0353567606872687
Ni 1.0945036249064535 0.2794033977002851 0.4212468127787 0.031656964783648704 1.2417980897060807 -0.13204208817163066
Ni 0.5070479583061512 5.603661760677484 3.7518596932001813 -0.6923852258184849 0.41936466621754226 0.17400454864634549
Ni 7.270216261350904 3.5878912329930994 9.407014371630742 1.4376318184123758 0.8148494404936935 -0.3909583471607073
P 4.841297878945932 7.261099026790576 0.8085310002719479 0.19690279340075767 1.4227811265527883 -1.5685883868293116
P 3.721851575750449 8.411065828605695 8.053833306328881 -0.9453144139861914 -1.2851198924221674 -0.48440329178543023
P 1.0920760685499433 0.8914598462936045 2.783172052129809 -0.7678874699218582 -0.14410210465995826 0.18023433160614122
P 7.135681458692395 4.057234237722216 11.513955391821959 -0.9640379585376235 0.49824893941927095 1.0157004199089217
P 1.977819112278789 0.27293794416756423 11.912728777338385 -1.0030459643697047 -1.3619835356494416 -0.1358411502027467
P 4.598570039741734 1.1828963258267138 3.3642734509847116 -0.7882665477988424 -0.260830445292654 0.8410937189022031
P 2.1173758063313 4.112354591786643 7.362427267517416 -1.7814996398431835 -0.26011387884160364 1.5065836629917408
P 4.2082152714219685 3.297029213361149 0.517190881754517 0.4289813633716999 -2.7028372312988034 1.240822613166689
Ni 1.2840846577711749 5.134744968133098 12.738185034085284 0.470604438229125 -1.4731757769552565 2.048532614402123
Ni 8.420340576364728 3.0594066548914434 7.371566739235209 0.21455598770614664 -0.5402882758785083 -1.1215324253440877
Ni 0.7980999203247751 2.951630565048208 9.107371454445108 0.8064892414544563 -1.8474404655103667 -0.3668457703832198
Ni 5.941286669360226 4.557329378127889 13.284163769273684 1.7968781791817827 0.46078513814585803 -1.662864311995762
Ni 7.539452645348904 1.3528067398178802 9.068613942081436 0.26921712669445247 -1.40252983250292 -0.3212487984797113
Ni 5.503418507925252 0.6454603652974831 1.4921948020929545 -0.025910292107858602 -0.7136004264435195 -0.8303308239587442
Ni 8.62695156565413 8.173878747802997 3.8564280730792038 0.3797822759392298 -1.0882695495259 0.6261911464899151
Ni 9.10116821406082 4.404291407362696 10.801651984283497 -0.5000237719315065 0.6523793748495087 1.427205480872729
Ni 2.9540395904401646 0.907885693273839 1.9562101545129367 1.1485806877111315 -0.08855084975721525 -0.8812540931711725
Ni 7.871963007814877 4.144088868584535 3.795661334115322 -0.14005750227693944 -0.8736996778626823 -0.3452135368254248
Ni 5.289191292204357 6.041307550537816 2.432390158614073 -0.1837611138124771 -1.8449166706472486 0.227001412558351
Ni 4.911937915823926 0.3165913373662763 5.6215098591872 -0.464999947558154 -0.5848876597554379 -0.9348040013731708
Ni 5.541286533990356 7.325475597649482 9.370819691664819 -0.13618670646762351 0.8389543039616971 0.4788774768711946
Ni 3.944880999634263 5.232310496507347 0.3760534964255909 -3.1761089319474465 3.235906620831369 0.6608660721642812
Ni 4.072068274847304 7.987744474345229 2.8936944309198753 0.5266539729245252 1.6294481984291613 1.005420121028836
Ni 9.234767203009378 4.882890628886293 8.629712679372602 0.040003794086447234 3.4571024824515364 -1.6170277132776216
Ni 3.2302158206634557 2.281958568013332 7.080263682646884 0.5252311244350697 -0.1895044440541575 -0.20541545885745915
Ni 6.143932032235174 3.4747596943938985 1.8036085879629793 0.2056705122910587 -0.585481841696011 -0.7061537403574871
Ni 1.3687155728870717 7.722427389350298 8.029111146518039 -0.946781485450021 0.17515228909754352 -0.8305036020911827
Ni 4.213218631851418 3.64039872105548 3.042268292324126 -0.6812330658564074 -0.20886330819674354 -0.7783791134818014
Ni 7.8883814424092895 8.604770001083574 11.093510969808424 0.44985306461438657 -0.18100926209895277 -0.5317889801582455
Ni 6.058772984629503 7.341171324626307 12.522348404092916 -1.3953304865410034 0.3607627974139335 -2.668969889127397
Ni 5.692999540789973 5.090891440517208 8.901813950490576 -1.033818469665871 0.39830450311313337 0.039561564342706065
Ni 7.735899400580702 5.146984670220694 1.390731285324874 1.338688826787559 -1.2975228940722106 0.2870950354161378
P 4.497465097137764 6.897095290065907 4.794847236647867 -0.21451047918019187 0.540637945908443 -0.10776701767434989
P 7.306889040202308 6.824722608002159 7.882693362839588 -1.0334204628965042 -0.3003734976925988 -0.404440183697226
P 7.254279631834882 6.286388822240311 3.1469997446912195 2.3594309228854464 0.5519196894698495 0.6604559812100561
P 1.6321239685329916 3.522810485481159 11.192126277324633 0.9804608799803372 -2.116364743554749 0.5670395758304234
P 4.451480508598219 5.6820662717034 10.686343057349259 3.676677520638829e-05 -0.18308722767390403 -0.7509459569715131
P 5.044786400708066 3.0424971497363624 8.261343047399127 0.6356756889415827 -2.882182218321456 2.8322886759251222
P 0.7307991632593241 7.309446313310692 5.2291370688275585 1.727947160538024 -1.5512326691596834 0.8624896680794759
P 7.133365088123205 0.2770647899736317 4.990504572789686 -0.04008941182171805 0.2417006664417386 0.6612077717744161
