# total energy = -381167.5170893407 ev
CRYSTAL
PRIMVEC
9.27320368354712 0.00000000000000 0.00000000000000

0.00000000000000 9.27320368354712 0.00000000000000

0.00000000000000 0.00000000000000 13.57227094066076

PRIMCOORD
 96 1
Ni 3.5371058311509986 5.194922787114484 6.357142655148937 -0.614901946729341 1.5162571815257628 0.5841924334606261
Ni 8.499326849601252 8.048009308391425 3.595498266278989 -0.643358402297821 0.2994083055658521 -0.2042111541367128
Ni 5.547777453546403 9.04219872898044 12.439637132915394 -0.18147694576399068 -0.5471932305284576 0.6487497485167214
Ni 4.1310545154159195 4.923867048768447 13.041608065529378 0.5453955151980865 0.5363233776934893 -0.2003259601496937
Ni 2.596357882340574 0.20658286368217552 8.752974930334453 1.1892557968329907 -0.3142643967420781 0.6318730273660408
Ni 6.360907575770507 6.6745365913914885 6.168936498845493 -0.5409631904583457 0.3785005810133288 -0.39797231658469523
Ni 2.142119282027805 3.8475726843780014 3.3870143958790258 0.5798138447769562 -0.9757287646119905 0.8612673656366006
Ni 3.5100929893514095 6.52540493268191 2.9981555895325545 -0.6639277418087405 1.8900233331779 -0.8003260500665378
Ni 7.234072417462699 6.273201617054228 1.176554386006924 -0.8571330317532528 -1.5016859685798074 -0.9971049162949215
Ni 1.8290188390064035 6.351875475560139 13.031727467198632 -1.4585243455906687 -1.2382432824752867 0.044919743330825865
Ni 0.5826214661879557 0.6720272031060412 11.065105416075596 0.558282912683716 2.6778144840022207 -1.0829347675765477
Ni 8.658427202074838 6.058489863182723 12.805396389339869 0.5369234731713334 0.5308122180672729 -0.2625533415210317
Ni 3.374546573771388 7.6740859236043155 6.936746620917536 0.33288509716705894 1.2998420291236905 -0.5734495931218253
Ni 2.080053730992909 1.36345765721842 1.9528188877111963 1.5559658129692944 0.12977103274926685 0.024009475540719943
Ni 5.8158935863824945 1.7162288648188275 5.185760862055097 -0.9713630314441272 1.0987971885301013 0.9780237312937544
Ni 3.7780422045244753 7.324365599955869 12.454323105300567 1.4233331424015165 1.5679430399358287 -0.13446920955588454
Ni 8.611884993701292 2.596274423509062 11.570401347546746 -2.568670640585002 -0.7782682989355499 -0.7159596707043153
Ni 7.502735669305374 0.4876443886062267 8.39039174610921 0.8449879117502866 0.06610126250444745 -0.12685360199215573
Ni 8.202769801626355 0.18440136090681739 5.655199170227016 1.2697986886840646 -1.5512208420851412 1.555890736756985
Ni 3.7482381284709625 3.1094813248872586 5.6782041334733 -0.2891210647072311 -0.5864588608972996 -0.7768739896911846
Ni 6.766285666834379 8.132914759650278 10.333180736913286 0.09302482636816882 1.8975983173116806 1.6214546387007236
Ni 1.216087907174109 8.744389798532852 13.511167852667167 -1.4419944662564457 -0.1826102880374855 -1.6475719046130657
Ni 5.186289434654676 9.001470819202273 8.707996184071243 -0.8150476725474286 -0.4432944375602623 0.15499818274717175
Ni 3.9819043102993383 1.0385153333257255 3.559260441636203 -1.0927517536669695 0.27632545560445954 0.4458241459606515
P 2.4735992143889898 4.253785363757 9.432361347739208 0.5500399559486334 2.3162124785164435 -0.5040616894463061
Ni 6.302588398950178 6.71126775046055 12.273811853262588 0.28881124677629616 -0.28044924796484605 1.7450817633357816
P 7.497153200797529 5.941721684693045 4.430844202131405 -0.8593264398601458 1.8645395870844985 -2.475987256716652
Ni 7.9429995519415275 2.37036063980786 6.375085376603803 0.38212892179453545 1.1632935684412742 0.4636197793811757
P 6.822314362389861 1.1479298614387903 11.631300329581165 0.9656783223545239 1.1232995445468397 -0.33139411444382927
P 5.072451588471441 6.797183980901057 0.7526085595721909 -0.4185748233263953 0.8712023653621254 -0.02271363954743185
P 1.2695664717667055 2.0519373779766523 5.741993573039107 -0.23118382607081475 -0.047278730481305674 0.29918616225271694
Ni 1.02018221000345 4.110672014119833 6.373579408355175 1.1658099071052246 0.24449674112963696 0.10285338242281641
Ni 4.86754161070092 1.7354429424737368 7.451516057085719 -0.028518162044350884 0.28325020774875087 0.36592865788558915
Ni 5.206616296729753 0.15385079197144216 1.7561027125545146 0.6143607295138903 -1.1012168537151872 -1.205032085830641
Ni 1.5663182570151322 8.241411240616705 5.299171213556916 1.8697985214905928 1.0841012770808234 -0.7801986831890434
Ni 6.099616520711449 7.154703068694182 2.9527428573454793 -0.67504390632656 -0.7938041897876199 0.7359178589937971
Ni 8.968124379411226 7.169020894900352 5.656311954647185 -1.8971766563932297 -0.7794556343754317 1.308901054002165
Ni 2.9927038731940794 0.42202070938784164 11.491682050343679 -1.2349589552970601 -0.6832871201719587 -0.8075001992174737
Ni 4.1260098927111555 8.244452851365166 4.867667726268539 0.3926745585208657 -0.28614629834962335 -0.8269688494650468
Ni 7.095808953256767 7.258692772758927 8.362758526995377 1.1003840734012467 0.2044250699197318 -1.480907084161243
Ni 1.2889845598986454 1.6802210156228763 13.102670255945423 2.8508710669129997 1.1631200189778872 0.06261638927964054
Ni 8.465507476431632 1.5743117584333424 0.06783348361276963 -1.0403938088905438 -0.6676342441260502 -1.7094272473569656
Ni 2.8311553949961215 4.765666197034496 1.4604303281936513 -1.1891879197095327 0.002653378462447043 -0.7104621379248538
Ni 6.095026284978254 9.205054728872096 3.8957849967021505 0.3510352857135245 -1.1950009268468837 0.0695910208252608
Ni 5.187559863534368 4.937211188606967 1.896494376964019 0.7951167379514564 -0.37207205177916564 -0.998305621471242
Ni 4.688615149141331 4.00767454282974 8.593554652340067 -0.9947279314223127 -0.1796432349893616 -0.17663864383508288
Ni 2.413592314531405 6.507665294383726 8.617170719697093 -0.38685563784624344 -0.893901349621538 0.813311149472296
Ni 7.939475734610993 3.98997199734556 13.505142125031956 -0.48525021316675787 -0.36336398248220647 0.6727060022220027
Ni 1.7767179712584853 8.27268048282344 2.920888475997806 -0.13441135973475563 0.1764373264575542 0.8182283842682554
Ni 1.684579421268536 8.014635048989872 10.802835110726791 1.0026518142550798 -1.9223076471329021 -0.6874836747518095
Ni 4.0473545806122475 3.400372445522798 11.005021548628951 -0.87579846937324 2.9801512760687774 1.4487322992009113
Ni 8.862966251705306 2.909495418175982 9.290843916424633 0.0037101018617355457 -1.1703011101073586 -1.524548732110594
Ni 2.128107471537184 2.429829693862363 10.201108990685244 -1.4216979207909386 -2.4830791305664266 0.999081066184686
Ni 8.796857583943797 8.19732643117103 11.760019812743453 -1.8624179127558054 -1.7798042544186317 2.4454302098654015
Ni 0.6452424821125863 0.827691833682358 3.979688014662503 2.0720875189039285 0.664474615451146 0.9882171268869884
Ni 6.921584005872391 3.090489804116383 2.2366697922484695 0.4756384011086067 0.25355885133190526 -0.47538566166785223
P 3.994831155980296 7.827158693801989 10.107406051264606 -0.5598808532984552 -0.0085705152778304 0.03453480055207601
Ni 9.30667976604398 5.96705607665888 8.079789504111087 -0.13741415111682143 -0.18165100944800974 -1.043907735581073
P 7.30963975279564 1.0038891914514834 1.737685203080376 -1.6112121350371091 -0.996904113138025 0.8830255832492987
Ni 7.7893054771092585 1.4145437353076544 3.927095968324641 -0.660457780982269 1.5740226704710054 -2.0522419449329106
P 1.6157537048811164 6.380742958060011 6.447778946171659 0.03627235206847302 -0.8146728057065131 -0.04224733870498531
P 5.1223228769019915 2.8826031280219104 3.3824000498167273 -1.1905673165555624 0.019277103062057124 0.5164238105560848
P 6.744781107914624 2.5870012200076578 8.224497844750495 -0.16071991572229744 0.19512538978536073 -0.754070618643424
Ni 3.5843528029906513 0.43407865590071715 13.548532371535373 0.14874166031449867 1.9101337307745296 1.5848680978259415
Ni 2.4206492223959732 2.708860387219607 7.901844147481946 1.321183213803628 0.43305527633075747 -1.0754888528214641
Ni 8.343574123591672 4.946530758125878 2.65267311988425 0.7480349539723052 0.5338373780468418 0.26075973995571866
Ni 5.776157909378979 4.424347395758322 6.447928244748032 -0.6510051202098014 -0.6967861830996581 0.8422797687905041
Ni 8.259837095973994 4.972134072993254 5.995632380568806 -0.10394712970762744 -1.7681530433329484 1.8052535477296716
Ni 7.190432721785092 4.8845301195154915 8.264141717039346 -0.2021036208754068 -0.7767030113309591 0.15256180539153724
Ni 6.26105372046739 2.1795181117489673 0.1367491500741531 -1.0132879538126873 -0.46682748768519605 -1.4810505517176429
Ni 1.0248837241786617 3.772162993504585 12.069005735371283 1.9981400208821845 2.564428063258564 0.7637734477534845
Ni 6.203634044386697 3.1692100286398013 10.255845928992981 2.0960100911577966 0.40428746016944567 0.5080106467917251
Ni 6.644407953215427 3.850159908154893 4.517937202096241 1.7670251003760922 0.2028584967635603 -1.062500668091912
Ni 0.6678208779978044 5.876011764682096 10.28590780010383 1.0042212156247285 0.04293048081493897 1.5129396871167555
Ni 4.415194743902436 4.8744501473094655 4.006805643661658 0.20455671040158963 -1.4184171931571377 2.3910331231717596
Ni 6.12128799729423 9.072855939756082 6.44401866215184 -0.9705431066459932 -0.7924921558444158 0.43465347405581267
Ni 0.6983899933401824 1.2392987355381233 7.919813761226967 -1.0677765717788708 0.46517478257312145 -1.0842869107290682
Ni 4.332551954297925 2.4100035847763612 1.3843715130751364 -0.7405432735809505 0.4036272008776275 1.1846136700752887
Ni 3.185048660220199 5.8515768734558975 10.827320077251898 -0.0007543616675212815 -0.737523255807704 -0.4253190840287643
Ni 3.1023873242086846 0.897396649761711 6.012054296649443 -0.547751674135089 -1.0404400887474468 0.4415553433819686
Ni 0.07731626151330527 0.4196931353089893 1.7703945737908782 -0.40061515352418103 -1.7235932544447026 0.6027737960072393
Ni 1.188787596065976 5.928080802342479 3.921653525189667 -0.20040437879611295 0.49833198605138046 0.39256297264366585
Ni 7.486359191921895 8.304339199577232 0.3870820605556021 0.049804582226952936 1.9713632670089725 -0.5068577641342045
Ni 4.703174078638535 1.4173813355790839 10.771360930722675 2.3821173087393688 -1.768138130934613 -1.5145301715323272
Ni 0.22715453832969 2.911516976539288 1.7702990597948138 0.15685503345025242 -0.17215695391464544 0.5653853280564521
Ni 0.0290056532320413 7.276756973179661 1.5912947033258134 1.169476300213218 -1.5082175990507378 -0.7013555476378953
Ni 9.260795955119034 3.31577300997949 4.160864155391532 -0.14294793645085704 0.012056931164534074 0.9725418822435767
Ni 6.000968181863514 5.918724140009562 10.17089689367767 0.2721731239989829 -1.7669579945835827 0.5074318914701196
P 8.283168475983526 4.6700131029175145 10.15743312951398 -1.2478890330951669 0.8390656327285807 0.7101340651614738
Ni 2.8411704547776377 7.890235024018538 1.020558702065607 2.2892238657427413 -1.925144602361065 1.1996782777178954
P 3.393167166402207 2.9014277311297607 13.160012964437055 -1.6170397974624797 -0.5502870389624329 -1.0770538833157386
Ni 4.844877901343488 6.390155259613935 8.260938752549961 0.09532827769036487 0.4285044237352814 -0.4581333023453077
P 6.1081293215257375 4.465891347444612 12.205081650871232 0.39575011212239586 0.09906460480434552 -0.3776361761305045
P 8.986281311866975 8.468975654541158 9.73244499500569 -0.3741695577381427 -0.36544143383652544 -2.668961147376649
P 0.6519154793521965 4.727006211637143 0.8230023746716981 0.14890363981365967 1.7517298647799184 -0.9407175386441282
Ni 0.7741669030722547 8.243831546730572 7.648870228643298 -0.6184919780734445 -0.31281558011069355 0.7465804809139658
