# total energy = -381165.02383608976 ev
CRYSTAL
PRIMVEC
9.30488790067345 0.00000000000000 0.00000000000000

0.00000000000000 9.30488790067345 0.00000000000000

0.00000000000000 0.00000000000000 13.61864399511901

PRIMCOORD
 96 1
Ni 5.255512393574547 2.280721094433293 12.72301439597943 -0.35405221816297733 -0.09245841234173753 1.214717945659837
Ni 0.698463042326507 4.024885127998399 1.847287315655905 0.5389492453521105 0.9006803202165843 1.0684538003515536
Ni 0.19800801635812687 3.4944879029774425 -0.2475444485332096 1.365377648932655 -0.8870917828988721 1.7376505038687171
Ni 7.888153656554866 2.3576539083077757 5.539846508229784 -0.10153003562570256 -0.135207887494122 -0.13808932280697508
Ni 8.686373472498564 4.846646310548585 6.648172187085634 1.641768410557411 0.055319855618227304 1.1096413303334567
Ni 4.170097209919683 4.826417484065382 11.549236274047153 0.19980916841427523 -0.06414799543281856 0.1080459823673494
Ni 1.998941171530419 3.275171693129649 10.926442441806529 0.38073512677080235 1.3723533089195397 -0.8723591046743879
Ni 7.028735592322285 3.2750786442497812 7.666547513773532 2.292425660509491 -0.017204022583112308 -0.3737648661005563
Ni 2.1533092632306694 2.6813895711429234 3.035868583886307 -0.3560211689638901 -1.0350307448064175 -0.08921136615934958
Ni 8.391845853053837 0.4594204699467947 9.88230094979451 0.2153021218435518 -1.1878787139798057 0.017151057857989815
Ni 6.575950437998845 7.990544643961108 11.312340339325985 0.7304082420294776 0.6448964362089022 -0.9093935317198661
Ni 7.5603145381175585 0.03471746756737816 4.705254815634662 -2.70021547740524 -0.9971982473396762 -1.1223772898428865
Ni 1.1135903844787551 0.06698216666144793 8.177437041130258 -1.7854408838791185 0.07374103843789236 2.443529907518895
Ni 0.8792616683531322 6.7818955238096725 8.083319029633039 1.1348247715776199 1.2756001258571905 -1.977263177433175
Ni 5.7866074851945095 5.429430054934967 2.3731437553393255 -0.007227113876058521 -0.19534624754691518 -0.09366374550374837
Ni 3.5775154184832494 7.02393427012112 8.402566944992175 0.7816104759349055 -1.022021477030943 -0.8195640723605435
Ni 8.016188915252602 8.032844664748891 8.116971087525934 0.030475285770721706 0.1471241793157337 -0.26368077025725556
Ni 2.172309844499621 7.1355091819702885 12.61663905553726 0.2807022445159166 -0.6243566643843377 0.8590451611743013
Ni 4.628214065059534 4.462354436695642 0.43222879578310325 -0.4452543895001106 0.21794058790766335 0.01265959774553949
Ni 2.6564338615624496 8.366490033289933 10.066969478734825 -1.713167174015372 -0.03754710501583856 0.0973764184686452
Ni 1.8850586474605358 9.225480072675122 12.02086382654377 -2.1175042564758306 1.1592237692472747 0.6568690351897462
Ni 6.656912268371592 7.544514838316051 6.052234122552378 2.5943099384196606 0.44533229392589757 0.7648643668248182
Ni 2.317047377133581 1.3340417906609328 6.725403687864492 1.2581073683890656 1.0782538171611107 -0.10002799715887935
Ni 4.971694700202573 2.475481704884043 8.044954976463652 -1.054578585031358 -0.6464866635141576 -0.8919208288563993
P 6.787711078801394 6.001401519480741 14.041367215005895 -0.5928819908148241 0.13922292219078605 -0.690747690215062
Ni 3.7933609051119834 3.9798494701425087 9.258580350710403 -2.0339662865521744 0.9950351782500864 0.7463727357785339
P 1.143031050068845 1.070108642916653 4.00147123835733 -0.41636778837274746 -1.096235598450512 0.18171554413735802
Ni 2.6548148110527543 4.375344429131505 4.628187080884372 -1.306515070268492 -0.3019632107772219 -0.751337535982977
P 8.229866362980422 1.2031406264632762 7.605522336401204 -0.18561539341239644 -0.3411267683505609 1.1977376090517566
P 3.448949781170268 7.893485357371276 0.8033784458435553 -3.9862162297704637 0.8496197540953431 -1.7095876841942301
P 3.2979314491452496 4.936838589804193 2.1361119692535504 0.6073120501972251 -1.107820475074634 0.3849018565539823
Ni 1.8448429215817848 6.342286090875477 1.9344741160917909 -1.2402369158665478 1.4969386837028091 -0.7562259744235299
Ni 6.186475741537279 1.6061818496095293 4.126816453938095 -2.2227096840705913 -0.6647216984649456 -0.5770252262882256
Ni 0.24709967488744272 5.785704911059794 0.03488030310714635 -1.9345463552909392 1.8085139636484984 0.6222342187246961
Ni 2.099219949363668 4.842784782034083 12.970505806651113 1.8413250966412482 -1.5063088120637993 -0.37326555786663457
Ni 0.317704234442134 1.7069630913940628 11.675631080992826 0.44676902637242416 -1.7715569268081746 1.288758003395387
Ni 2.3508892547414058 5.873412785222937 6.2855355790442635 -0.24604840188747304 0.4686984794556638 1.2527746433222424
Ni 5.166911250164674 0.09587291337152068 0.3898515444250291 -2.666688292182072 2.8718330138766475 -2.1138090670124305
Ni 0.3547181483646431 7.655391883566212 10.101397564285815 -1.0104725958510792 0.6041575637286434 1.9852675357948906
Ni 6.035987788127505 4.78683449056973 9.139199568329147 -0.7304295821857163 0.7184055611416466 1.1225097016556926
Ni 4.004693521067142 6.545886344913643 3.5300204787324603 -0.9948508301534221 0.09169685158536466 -0.9316646844132407
Ni -0.20689139291908099 3.959443850787557 4.214275887591993 1.1281699852652636 1.0502295640340429 0.18197188312253823
Ni 8.060750023821166 7.039743274810616 1.8640928738487816 0.5449031489427003 -0.000683913440902048 -0.09114946372232689
Ni 3.4625163078549557 2.2872810404639545 0.7574318394537625 -0.5336311755733067 -0.4864560605494009 -0.46481045725516723
Ni 6.8928283983877545 8.155557527518203 13.6044264239463 2.7766451184188887 -0.7659953951054679 -0.7401357537298866
Ni 8.693742943784073 5.464007018693746 9.10334225198339 -3.1919425565455932 0.31657273316028056 1.6166996405142415
Ni 6.688604716854476 5.026612149100396 5.76183042946338 -0.8876844221775487 0.11663269559509591 0.31541213719327615
Ni 9.311122261705206 6.8302995511167675 5.697958886855904 -0.4729053184481598 0.9282170921842724 0.25161715422450215
Ni 7.824256990749825 1.9432793315936563 13.994927449552804 -0.10952076714066299 -0.22149925179319918 -0.14331380443070801
Ni 4.321329554368397 4.6769716781101245 7.08139567539452 0.2530898821152867 0.009609240954989903 -0.7602078418894134
Ni 7.295478816238564 5.738194152999427 11.218834589458293 -0.31137164857531535 0.34911132921793425 -0.538004622050654
Ni 0.2336913312985301 8.61325566269865 0.45906688420329805 -0.514070736942876 -0.21378285698554794 -0.5586876043213024
Ni 4.844003722360347 8.699046729936523 9.951524663971965 1.1813815362912363 -1.3979234440791604 -0.9842239465671951
Ni 5.200157614941347 7.531413556030701 1.523245522005993 2.879751497392776 -2.004167200912871 1.6358921542822924
Ni 3.988363442650389 0.48398072178783214 11.6848512944989 1.0032789063161174 0.5781205162349334 1.8078390490686607
Ni 0.418899543742078 2.751269279923447 6.953339015454415 -0.1795982406840391 -0.05786010554157778 0.7329896296034086
P 5.811972609846401 3.045536362504545 6.00763300296547 -1.2744611271567405 -0.6707164825957997 -1.5513645667518572
Ni 3.500005701553588 9.273028050287436 4.65880202333839 -0.48650054063409115 -1.9123919306810873 -0.5028542994017662
P 2.284126683436445 2.1497734057957025 12.617265274498768 0.220995058463271 -1.0662735048707828 1.0824380304457875
Ni 6.312845425285387 0.8270417064826697 9.035834359150693 0.5814732347572502 0.7844733993049974 -0.6343479712690946
P 4.998827753571948 6.441606465246089 10.381886899224927 0.1138034536764169 0.5384951885338274 -0.023223232193998713
P 3.5020341671347 -0.07165322043079848 8.18972135425037 -0.8320336655824638 0.18990939280206004 -0.543990921541076
P 7.015764578468749 5.973244928432823 7.774693574399581 0.882776700463286 1.4007087201337811 -1.7336172143396078
Ni 4.750750134957098 7.250257060622939 12.629630540144364 -0.4893320965456153 -0.412791898096031 -0.3114690933851281
Ni 2.0710447485397765 8.399131580347465 6.462959322198093 1.0633576167755685 -2.460993611521297 -1.2114256480618104
Ni 4.838848814415686 4.56117234711497 4.448979590703481 1.1810236387311854 -0.03633842941971806 1.1382697927034267
Ni 9.282612084913792 8.402118449391214 3.6774973703897205 0.5435818590281155 0.437161328079331 -1.3747850582894838
Ni 5.732499561551534 8.092712314055667 3.648762015309026 0.5082626149015311 1.2879594187534915 1.1415723747140984
Ni 4.370245350514763 0.7524537243808489 2.5128166374420946 0.6293952552495096 -0.143267781684121 0.4464221845559666
Ni 1.0077845031813744 1.6203252793493954 0.942076175685313 0.34800318375542 -0.136893502726661 0.16400012913546594
Ni 7.293980729272697 6.296487432204673 3.980021610570264 0.2559720887590882 0.06837051815459838 0.3857022409680906
Ni 2.0559522202252616 5.970220839837128 10.001314189100288 0.7134312478555068 -0.11464137619668 2.3419705613171535
Ni 5.0263330024607935 9.516201992933267 6.7485830943282945 0.30545374042898366 -0.4533600493263805 -0.46001586408000134
Ni 1.8855052820839002 7.117159942860409 4.290526653177046 0.8004548623349181 0.37531549841712786 0.31358099752180835
Ni 4.046686480551363 1.967620918567005 5.2814051053752875 0.39658494931886534 2.654859417867944 -0.32877724564627253
Ni 8.478427835770585 1.8155418293114962 2.877565455056459 1.2468647055957107 -0.2205137479514783 0.39918176351176415
Ni 6.957646248103484 3.5514710370083247 3.4843706982694447 -0.8752477390760925 1.3220823285791297 0.40990172103242956
Ni 1.1787246003860337 4.515652835083769 8.616025727852307 2.5035391981929918 -3.3231608632643477 -2.195245674322368
Ni 0.44775400138900245 2.212041716203061 9.499834694964566 1.8007119511055762 0.7558143408074081 -2.2195163739442743
Ni 7.623773874187222 4.208312384881282 1.3860644889060763 0.8567489089409568 0.10994499916227517 -0.46034110862990396
Ni 3.5787808832494474 1.5389354241292577 9.707914322079557 -0.8567468520584277 0.46711339435673105 -0.3309446856112365
Ni 7.277818138839705 1.6047116773076222 11.673289040686557 -1.125489610219623 -1.1270986065779556 0.17869089837842128
Ni 6.854641138090116 0.3721750487165924 1.834812252332064 0.3414275874204314 -0.3349898022148876 1.8476451253220052
Ni 8.547535238848207 3.648018554758885 11.594464543084369 -0.5222589291806231 2.382210125563491 -1.8814649020849272
Ni 4.39195365418786 3.163922452360017 2.701966400436832 1.202459182897142 -0.20369616217350728 0.5363177212665344
Ni 4.7012853504195125 6.9669139165382905 5.673662893833691 -2.726657216536536 -0.5268468056616217 0.1287863002384943
Ni 5.5341565692258845 2.958191378972884 10.539019473146041 -0.4431931360957077 -0.7662969855062868 -0.03599750114053155
Ni 2.2608737683575466 9.049143140438145 2.37481956566574 -0.6459001948830683 -0.2943450321103318 -0.15670051015025915
P 0.10304512103171073 6.117145021147975 3.5518236922630226 0.2109304751384174 -0.7652142939650692 -0.5632644250587073
Ni 7.712505286028909 2.9850173710386962 9.802304966794788 -1.1480227583251326 -0.4928977024096866 -1.3063232659726598
P 2.4140787490594526 3.556449152081238 6.670929151634838 0.45985568435305313 0.5127088235983428 0.12878475757659755
Ni -0.09728539536790996 0.1761713052308124 5.935086513287943 2.9429193883005125 0.4347367777982384 1.4956104518096887
P 0.17360687810166295 5.613322556217188 11.430304917755656 1.3896979708455743 0.565471202902039 -0.2311851116223954
P 5.954458359587567 2.68630255199993 1.2844886096874737 0.11293750613169583 -0.7826648853413488 -0.48397520310907616
P 8.526431752894249 8.848753072755411 11.933772866454147 0.5777741886391082 0.39235188507412433 0.5241476615629037
Ni 6.636301941480932 4.203418013800249 12.763365973222784 -0.46876224281406365 -0.31729727003113095 0.29862180510881475
