# total energy = -340896.75226967677 ev
CRYSTAL
PRIMVEC
9.00296847470949 0.00000000000000 0.00000000000000
0.00000000000000 9.00296847470949 0.00000000000000
0.00000000000000 0.00000000000000 13.17675439674326
PRIMCOORD
 96 1
Ni 6.281812321224299 2.0300253664841366 11.259273654800879 0.9044881239984487 0.5073290473436682 0.21474393534723665
Ni 4.6798060868000375 0.27238571457626354 5.755685139696668 -1.016240608683108 0.0911144967193334 0.45867786199486815
Ni 2.649528637195761 1.7182975795258018 4.67841962963927 0.5352481423514395 -0.8739681010327206 0.48726647226583825
Ni 3.2693920266504426 4.349271098485573 4.850231381654697 0.9817235487428446 -0.8729088065302709 -0.4510558266732361
Ni 5.045812771305573 4.634818252823697 2.6449173166909223 0.38869911881288544 -0.3689247643994356 0.18338984651598741
Ni 7.181379938411012 6.055837809956309 2.620658817861775 -0.02664614183261863 0.7368015471503311 -0.4805967735551464
Ni 4.889890358530659 4.625230091289816 11.302308744892997 0.5472009438379415 -0.13630472010272654 0.039169728220926084
Ni 5.4765507998755245 7.827297918925835 12.399681484968957 0.8130836068425222 -0.36665396608738793 -0.4015219816091665
Ni 1.8943866419118833 6.21171520788834 0.3920225628007987 -0.3443902695931811 0.7650008924026825 0.1370246289878866
Ni 2.723992190291282 1.7332695162683782 0.316874784093471 0.8093897029307029 -1.2419181602237128 0.9228769109182816
Ni 0.5643690911496652 8.901289049311991 4.584891390286335 0.7691457678089915 0.1799281132196321 0.15811898776434058
Ni 8.639797827010046 2.214757278703576 1.330957460681596 -0.37356894803966634 1.2298473451021077 1.0695678593513387
Ni 7.011962075740053 0.6174929078285113 4.835144206914342 -0.10877874676831586 0.2730233878144201 0.3216547756688783
Ni 0.6199255099378583 7.246480404187061 2.320215351717117 -0.5022822289483801 0.0981400361075471 0.6202871223006543
Ni 7.551798077518989 3.9208198239340306 3.822958455805268 0.32868031505709205 -0.7002507446094908 0.27807894796045657
Ni 7.636732083068879 3.820445727275591 12.63878682590565 0.31855068282225785 -0.2770422791658261 -0.6817884241392451
Ni 7.880073320720774 8.690646593529632 7.244091916623739 -0.81421077846843 -0.17698522854122423 -1.3528203810929347
Ni 6.649223468827755 0.7640279252687986 0.4251931002237386 0.5860724240921583 0.024682847458660714 -0.36285593249753634
Ni 2.0032415349693053 6.406566456787668 9.093343976171486 -1.0870351628981667 -0.05853013502540888 0.0804377337317776
Ni -0.04697568943801302 4.782665002785568 1.46750818597064 0.5348452504860659 -0.06568294402010623 -0.23426863564372555
Ni 6.234312659015139 2.042665534365422 6.932988935684606 1.850628376320045 0.10128655215632879 -0.37284286850691917
Ni 3.4207949491999967 4.2418116655574964 0.6763011988665052 0.668491449920023 0.7793635888822578 -0.9575724054179381
Ni 5.969850457082978 5.7247176286843775 4.783807479497915 -0.1657623632422113 -0.5861919803891582 0.3243816876817381
Ni 5.1406950571324 2.9343105392048896 9.237747990949735 0.8388743426533811 -1.1673903642184669 -0.4451528309252398
P 0.2120253117556958 5.433534616017419 12.33336291754452 -0.0918644875114805 0.09854189953165608 0.0970239202252329
P 3.8334190049942034 6.111251081544136 12.553862723621194 1.0579063638530104 0.06908528483343587 -0.39884443477700343
P 2.2951267791852237 8.393575639413699 1.513982410058947 0.14216477842792935 -0.13118051150228377 -1.1144816891448934
P 6.22798357210592 7.720756788792551 5.833204300327023 0.8087456415888008 -0.1149005433953376 0.7177062210817768
P 4.764415985481177 1.0284271064209254 12.52451844784323 -0.9241850882067437 0.20848921268677642 0.22501574958688988
P 4.093604796852569 6.06193281968254 8.317496953755569 0.34479933210614166 0.8463747647954843 -0.8821529508363581
P 4.638464455097145 1.0980110505480292 3.7153837848794127 -0.13035210206371745 -0.711576196924639 -0.33039241265219227
P 0.1404364065266245 5.493125265024703 3.6789100582857865 0.22438865752585227 1.1605972525560335 -0.25667888501812564
Ni 1.5202232678761172 1.2069469703226388 2.5131894816682627 0.3818430151230004 -0.284114098410943 0.04081600557509745
Ni 1.9392124224538487 6.529303927389921 4.891079650679603 -0.42616497696882727 -0.5922944937424702 -0.1204132456834507
Ni 6.186524901811534 5.826928330932406 9.168675415437772 -0.9096748104057106 -1.191542535984638 -0.01332422791273189
Ni 8.753748400281719 2.137880930029577 9.988150823574989 -0.393167181886568 0.8474764825000953 0.07730613008133137
Ni 2.55121622034132 4.957142533796471 7.040379045754645 -0.8502244775588778 1.2045037241309964 0.0591050336922724
Ni 0.678812126802467 0.07885790205766796 8.853777683243681 0.48510134629371937 -0.6428552374091573 1.4478442401690035
Ni 1.357458598983128 0.994215825830552 11.533086339896506 0.2291464839258118 -0.09212751136488005 -0.6611776898674291
Ni 4.135738689790186 6.6134906865479675 1.5366464831532116 -0.1709066264473121 1.2349191031980602 0.5205316620768712
Ni 5.6109111029099275 7.8836024844027275 8.202345384475803 -0.9967074237461867 0.18228684325979574 -1.3171617513490605
Ni 5.307709127193457 2.7753091111768415 4.805878256962994 -0.2036524534197654 1.081163534608738 0.25979300516707515
Ni 0.7375826053724401 7.285310207657135 6.803961991234871 0.091129666227985 -0.14887690034078233 0.9600134107592628
Ni 5.051565668225902 4.503951101596943 7.020232202674347 0.17888681643931129 0.019262704884353922 0.09126696313679765
Ni 8.302897739912057 7.144305713813338 9.12442852577527 0.7952661190451271 -0.21389290020085097 0.2634848521963656
Ni 4.528232107847531 0.3475695051578969 10.399107529588845 0.2335034753429269 -0.043450357874150976 -0.11094695806422829
Ni 8.093092560207305 7.205030736861251 4.859718709940522 -0.05268344643664476 -0.7651772700795467 -0.5401810608766826
Ni 7.280403589782989 6.098394842417017 7.034159795062059 -0.17478642111769252 -0.09064835571619226 -0.5751197817353966
Ni 2.1782232322204877 5.330540655503243 2.7750903390404345 0.5137894582570314 -0.12107916140222375 -1.1462702944104
Ni 2.2596280740884236 5.29662647287589 11.203930606367948 0.1079873612152721 -0.5544609678344644 0.9355421650907758
Ni 1.1279189121588766 3.3688658264512408 3.6831396529229856 -1.1071720428573577 -0.18647748430237562 0.5884103281967157
Ni 3.662515652508137 2.7112439867870792 2.5732356808855137 -0.2534349241595313 -0.1622353239255593 0.23373590306870717
Ni 1.2704359047235103 3.2483610920559394 8.197996950653396 -1.253005785496442 0.05990310411353555 -0.12762159050643182
Ni 3.613359444080916 2.521137302327521 7.027136579275599 0.18313093642764589 0.42785753417990185 -0.2639990728286227
Ni 4.221960119846503 6.809278244179244 6.186736471573079 -0.540008025633928 0.07213898405809512 -0.2860095156614429
Ni 0.9100740815153866 7.34640435241668 11.460165895614981 -1.087592063842901 0.5761693060458335 0.1159032736282391
P 0.2231259720104143 5.421497647030753 8.010782019700581 0.589152862789695 0.6194646263993591 -0.4377040879566785
P 8.564343947371121 1.6336606719389337 7.785419710295787 -1.0163745631578107 0.40971763004608147 1.028967826441789
P 1.7208004047900447 3.276270294642823 10.390411562240885 0.3571830504824752 -1.0127215397862561 -0.39169856776084155
P 3.939329927327138 6.171913083812013 3.897130312718913 0.36462305170028814 0.3985477294721911 -0.49165457403120494
P 6.844326800847223 3.9913760886673875 10.256785901442319 -0.08489885482692475 -0.40332843869028606 1.0908972169567341
P 6.572950319048377 7.831952453679841 10.1884902821185 -1.6742653547438522 -0.5735406101737348 0.8455707808369503
P 2.36746563169671 8.465239269281955 5.810329557768071 0.8578205447385806 -0.40687193306717023 -0.2569385664374155
P 6.914387902308878 3.9072793591951047 1.6198447163615688 -0.7245942064508618 0.5054575413525682 -0.3926406199591367
Ni 5.366282440751606 3.0080088399714144 0.19359443448606103 -0.06442258925044389 -0.15052369191558593 0.5346717010226791
Ni 1.557405528096707 1.04975513897845 6.90079792124278 -0.30406380205999245 1.042380243192953 -0.16710653597493155
Ni 6.740639611752663 0.7638829774747183 9.14392985600864 0.46232060095377797 0.9778620089049095 -0.1421002437385811
Ni 2.75588070498894 1.5236443959351544 9.26317957658439 -0.02589178016509734 -0.07000316866201492 -0.31398491782844634
Ni 6.347326923554864 2.0513533990416617 2.641385452118395 0.1432724096698113 -0.3869217151974885 -0.47741837582716484
Ni 4.208725756039175 6.945169051871637 10.346532893993158 0.01896779935175443 -0.3342233563625083 0.24232158785518915
Ni 7.992403359648691 7.010485588893521 0.15360774955391823 0.2687378730651888 0.8098486448449923 0.7568116717236708
Ni 7.407345446710426 3.8819179967153463 8.165634879808618 1.247950996681354 -0.664382569957972 -0.1137070373078687
Ni 3.137003373734274 8.394385906585576 12.449819016971007 -0.7110108113394722 -0.1923293150974623 0.49197570481604946
Ni 0.08868464225882385 4.768467321340562 10.066961009899202 -0.525943577121062 -0.38587347643863223 0.481985426372557
Ni 8.672748691999722 2.3448051597898765 5.716063074991871 -0.13745606009835037 0.37548004901945015 -0.2032585604154564
Ni 3.517612873270753 2.621007232745682 11.416326840428992 0.5893510948434302 0.06996845876933756 -0.23351170287304301
Ni 1.2310119053273934 3.2629098892754245 12.582890995202124 -1.3384219462794176 1.0279041610639652 -0.4984165753453868
Ni 3.0440207142770705 8.227903011670529 7.944291495576334 0.7020859980460166 0.765821588531765 0.0015640020530102096
Ni 5.730155421704531 7.949603247036419 3.588715618196698 -1.529034021575457 -0.08930212610094297 -0.028238683130719106
Ni 2.99652105206791 8.304185164418485 3.652596181730644 0.9330556512234962 0.41858999283504683 -0.40439081851652936
Ni 3.3944972779882914 4.288302995286098 9.250055048993692 -0.6802830432383122 -0.23096631074336998 0.3384091123090817
Ni 7.250153615366238 5.946883884244546 11.2860619878 0.14227019365754207 0.3037411286132511 0.4778505782685771
Ni 0.3127127117205948 0.030655108002689706 0.5567786883428905 0.9092906875934147 -0.4084835005286642 -0.6492125470857529
Ni 4.441749591702498 0.33387148846888304 1.6377516208600562 -0.40108952205743825 -0.40575915961896575 -0.35179530380800056
Ni 6.060078208155799 5.552499842786153 0.2760031073502667 -0.9397482327523236 -0.05627244933948373 0.5252529788119406
Ni 7.9757208588765955 9.051134458297826 11.229203739755658 0.5110931423717908 -0.9057109406619563 0.22862352154280627
Ni 0.1284084405085354 4.9206625051248425 5.789853206037875 -0.08370534873945584 -0.6202752952261125 0.28055466319445876
Ni 7.701409409321838 8.827959870257098 2.464184523113126 0.8491584981882085 -0.24531718014840334 0.16794291583329785
P 8.58834586159584 1.4991833303130375 3.556168986496104 -0.48903976211617706 1.2702617443634123 0.05811181654106766
P 1.7375999441536334 3.368451689896726 1.550152736611548 -0.16385177648305976 -0.699907245227143 0.8135484622940828
P 4.809376810551788 0.9769301261638371 7.977655596823667 -1.4498239896031933 -0.6570114743048814 1.9026870446884974
P 8.437870244809655 1.7155876859843011 12.459991471165498 -0.19463636596408415 -0.17063254685031903 -0.8721865836522656
P 6.11242146745907 7.782598179943939 1.3703562517656989 0.7891754327663569 -1.2077777668965781 -0.18222487967360873
P 1.737068769007625 3.2427792515385625 5.995765502130185 0.15205401251718328 -0.595925148516522 -0.673662195487685
P 6.920302852663582 3.950934753822136 5.984671143953471 -0.2328452729336377 0.685199249593007 -0.7308278460653994
P 2.381132137995707 8.313116109246288 10.230129011784413 0.23542434651472358 1.258170617526833 -0.29899204396403994
