# total energy = -381171.8530078455 ev
CRYSTAL
PRIMVEC
9.19609561309344 0.00000000000000 0.00000000000000
0.00000000000000 9.19609561309344 0.00000000000000
0.00000000000000 0.00000000000000 13.45941548534820
PRIMCOORD
 96 1
Ni 5.764590858148198 8.501882253333468 10.685780209444149 1.734075642033265 -1.3418507694553083 0.3957434272541765
Ni 2.3782390423722637 8.783595442967563 10.370344937601129 -1.0763128913846562 -1.1673978204176347 2.6280677515963964
Ni 6.580891471553568 1.3321371984463475 3.816135017539508 1.92398272084248 1.3392295297823773 -1.0266162954904772
Ni 3.3963663637785313 8.794796287290026 4.525512628533321 -1.0959149818862997 -1.0033647811617041 -0.17447994562086724
Ni 9.104318469724719 1.6856351095756361 4.376732677831024 -1.7810476399074295 -0.7379153490398002 -0.6384133995877199
Ni 7.900503587925043 7.162287021434315 11.646647122592414 -0.2071049307447401 1.2127631359263114 -0.8880094096171351
Ni 5.545153627259357 7.211283818273462 2.0063277892176323 0.8827152510977314 2.1747444690452222 1.282260311486185
Ni 8.085758931829819 4.223362036253707 9.807701146060229 -1.5384866823479246 0.2749956810494425 -0.15107056555799145
Ni 4.642777559947375 2.985438836233987 6.398740729490553 -0.11865204001796985 0.3969824418676002 -0.04310145917516448
Ni 0.5309209404942912 1.4540498365275385 6.94041466445632 -0.45705780989294187 0.60300288129891 -0.39619748407245964
Ni 1.0435729176626343 3.681675226754238 12.461305313340976 0.4857698331156537 -0.27237238449398254 -0.2625152891942447
Ni 0.9919000570321589 8.801068024422966 8.401528941549142 0.7358360979132682 0.015324803282528448 -0.34764785729853026
Ni 2.4960410257636836 1.7629834688500492 4.395670197300029 1.5859921841280558 0.8756979392396338 -0.565585102772084
Ni 4.478084685586959 1.0199941287933445 11.02272238983967 -1.394101756340225 1.903603642965496 0.161962786990463
Ni 4.114112421679931 8.685206417182645 0.7444147348596455 0.6281446706718602 -0.26772511552995826 -1.400404301519485
Ni 7.807963278879934 0.16943070276348174 5.918118752958614 1.513374460661329 -1.9370634652858383 -0.44631625510572165
Ni 7.98028891250771 4.8886627615023945 12.067832894670378 0.3999577224458402 -0.7872427345200184 0.5095227125608773
Ni 1.9214229982685331 6.6179057559525125 4.7358429660456975 0.05032471639648107 1.0747704865982006 1.3681881217982566
Ni 5.659819742084307 4.9275806376704265 2.2036024299446226 0.22493835938173518 -0.8494325777852015 0.7623976504518806
Ni 7.18607732050017 7.143922418715136 6.050114909758673 0.13614916836146876 -0.9694390749485368 -0.34759926344878206
Ni 7.640998968930314 6.640371817265958 0.5195416919190731 1.620673280450009 -2.1813573463760494 1.1684838543929619
Ni 4.399402892464633 6.024877145260669 9.976024638925168 0.3555115763173232 1.076774661512423 -1.9127606268744155
Ni 1.1420171200205695 1.1478106601873606 12.065760094744038 0.10851777979744537 1.8492302104209377 -0.9261378410577406
Ni 1.1167186612922482 3.3424036753678474 5.148293367005512 -0.5026313847576828 2.5287393516077032 0.4832596650992903
P 8.580104241680651 2.7719790674219933 11.162593163218812 0.6300298035097149 -1.344025151398808 0.32351085504101057
Ni 0.3378038545441365 7.406259435124742 6.70943817293051 -0.20447906308611882 0.19205806371394665 -1.0635705041173231
P -0.05381095283488636 8.711727956612844 12.697625655963487 0.06119354079018492 -1.57802304987965 0.23009599232327468
Ni 9.340290280327672 6.186682445633194 9.893315875582148 -0.5240695000268006 1.732517553517526 0.7078630097391099
P 8.693942707910345 4.648865375170257 0.8418013862347539 0.3461512181483458 0.02475329568527995 -0.09352721992588409
P 2.096075244058529 6.274827021027945 11.13108458119742 -0.12724723788614858 0.8327412331724496 -0.030285795467734942
P 6.375533462879579 6.312319502393036 4.1558636148723895 -0.0015660589355392383 -0.7812348377630417 -0.42579165278980863
Ni 3.2394809745000277 2.159178851399038 13.006882990847698 0.15096206500458517 -2.182867355262673 -0.9341517125011525
Ni 4.855023444152994 2.586503017225151 1.790210348805317 0.20884402492303386 -0.12138692245062964 -0.4019742386552367
Ni 1.3137725957271698 4.295045600698369 9.730955131041252 1.16266956170403 -1.2965715859025349 0.005846945699080253
Ni 1.1533834940620835 0.4719629330064635 2.88443352127851 0.3280177417724286 -1.1003107969611503 -0.7390669461457401
Ni 8.031364026930502 2.7294655179123497 13.248438670639977 0.4260297369425437 -0.08988628073918713 0.6552376702339103
Ni 5.598932393759983 6.752426240968101 7.939358930643657 0.5986312345937755 -0.4265817527912718 -0.21523527316135835
Ni 7.237584651411593 3.186768955077731 1.9237404143352494 0.518107626016411 0.0382947818151405 1.8014652843318328
Ni 8.985468131445975 5.375531645709415 5.254179049844349 0.08648316859490912 0.9674467271088564 0.2003979510382097
Ni 7.622073404385463 8.425986877148503 2.38815795098163 0.07352300888981532 -0.08608259072238077 -0.1856580737248738
Ni 1.6065578843466883 5.788399549405059 2.6734971610724965 -1.4393945667397532 -1.7459842205453933 -0.7108154074992146
Ni 3.38769444571935 4.828281198430726 5.1950785028762265 -0.08781988512846167 -1.1476543192421202 1.4258659361256991
Ni 5.697799616511048 8.53035336501027 4.358683501187594 2.477222928895966 -2.162873942859881 -0.31077643819347767
Ni 4.568142048846301 0.3454053470867866 2.656309658577683 -1.0198267833724692 1.3751786941834767 0.5860765378572165
Ni 8.008382984268897 5.470490527871774 7.983869872096517 -0.39004329154560563 0.07236858357039794 -2.186538890576989
Ni 1.5067802481408408 5.466269520035969 7.041091678802346 -0.2262971874024748 -1.3049891205422688 0.030151840993031944
Ni 2.8282775640903988 6.380812021698211 0.6199465018382146 0.24247611115518236 -0.09012513622287059 0.09305619382673651
Ni 1.309192940166754 0.023993532776467916 5.342472601986246 -0.6220413859875996 -1.508629746887492 0.4574653297440057
Ni 2.302076979417717 3.052542745118233 6.976270240821905 0.538582091820679 0.14700847967347586 1.0594161156293174
Ni 3.5106186543058535 3.4997212811349847 8.966608778788745 0.3019256726710671 -2.0046402838945476 2.394571218232005
Ni 8.35235374045724 5.772085675983015 2.81007021460432 -1.4097708303360494 0.1519542537145254 -0.015563144545579648
Ni 2.6441441438369715 7.656696703953668 2.5487153411944186 0.7053934651526947 3.091458959906534 -0.34241900479942317
Ni 8.0659689343077 7.764438158864978 8.518800310230048 -1.4094574128606887 1.328957458432408 0.45432267034996593
Ni 4.102856400784452 8.529728030516077 9.031066051387272 0.81395109704914 -0.3964620505877559 -1.6725308885512484
Ni 4.084528582447286 7.1419728464685335 12.081655545820702 -2.174972011674996 1.8573584959550271 0.21874868563125552
Ni 3.3861219133883638 3.9992991693269357 0.6013115339112534 -0.12818569054001794 2.491752747081025 0.6837177799514741
P 2.6618374315844417 2.611838260335484 10.796685121208435 -0.2498199531147633 -0.12183198040784822 0.5121629783972017
Ni 3.9760514398957483 6.061615546794528 3.336602778324654 0.31711523592731194 -0.4059039127269461 0.7656701505555652
P 5.662863649695748 2.007424883411122 12.744222271876392 -0.4730850385591336 -0.38683455480032086 -0.07282649704342296
Ni 2.1757594115906644 8.557288728738097 13.166242129816466 -1.187223339783994 -0.4101128086019711 -0.537582704021887
P 8.396844450499994 1.3028476342697923 2.0692640276199903 0.5983646111959501 0.015372625801328364 0.8699816055811469
P 7.08001875106588 0.7703532418349648 7.9594275698595105 0.5372278917856296 0.20404840330660345 0.2744565207165209
P 6.5001313608476 6.6292077573255055 9.860407647825225 1.3999013937411375 -0.42642902926349147 -0.06771103019372855
Ni 5.74043271526223 5.735466823690695 11.80813331845099 2.5359721219107163 -0.30691361280396173 0.09682980193655583
Ni 2.886038239943756 3.8767152162740373 3.0180583065921223 0.19313792704168672 -0.08405630432097136 0.5047502308728984
Ni 7.502331044842943 0.8741026716884902 11.992083736403911 -0.3734285658070601 -1.534862455331776 0.6604780926972432
Ni 1.0046458453990994 1.950740150731597 0.9384532695791852 -0.18678524535078156 0.3571002609606818 -0.6442168936433744
Ni 5.1120083329799435 3.2553718275289407 4.145849986479344 0.2057119070519554 0.5647361245082274 -0.3943966834182949
Ni 6.031443157449699 4.0599933996457 13.42934702020056 -0.9600614903883788 -0.11650568309892838 -0.09315389574686539
Ni 6.728580765329229 1.5830158798594098 9.955229508164589 -0.4739887813203256 -0.6929099879737034 -0.7571993940803927
Ni 7.6955777957396885 3.716418075563979 4.485026818082054 -1.2134874156868456 0.20763046423090695 -0.9453447530034944
Ni 0.8182032855649082 6.0647422192654945 12.88514231975241 -0.5953232532664651 0.6459169070536166 -0.28228064474663
Ni 6.24333959002621 7.997798278345123 13.197320334568325 -1.8481922560747268 2.0978623138751873 -1.008685164933353
Ni 3.4986177496746436 0.7445398017584842 6.678656082453844 -1.5760106474353117 -0.6464398694366221 -0.22402098977378837
Ni 2.635748108642876 1.2355414112844838 8.88773662648951 -1.0182758939455818 1.6031897789532648 0.28968876428524304
Ni 4.8196736530400655 1.6887158015690884 8.247162362828869 2.253426653538474 -1.0317024517641327 1.7131946848191981
Ni 5.852661864778927 3.805454672222506 8.418675981223744 0.6126733145091383 0.7588143039759964 -0.5497604770350015
Ni 5.9949990309719325 5.01748166730622 6.112512256964563 -0.06950283198682869 -0.3280743060419769 -0.5881496183361613
Ni 5.638990585770368 8.856594049069132 6.829885872998099 -0.5454849895880993 0.43390476881524626 0.2953158806640333
Ni 7.2821213419318624 2.234927090055957 6.143375273081654 -0.6024187266606658 2.329724139849633 1.418200192050325
Ni 3.499923595236047 4.716613010739703 11.45110870469636 -0.8908862169442979 -2.466674463956158 1.559689541677785
Ni 9.009166469556801 7.730614919605521 3.980272447731553 0.8239017805039487 -0.1257122892988609 1.5895202518859721
Ni 8.793527226110633 2.1299720520820085 9.003837332212903 0.9215468792529484 -0.5977022950216029 -0.4205136922203209
Ni 0.5682249019015742 7.573435255270926 1.4143824785760248 -0.49006460383626577 0.6896544571508832 -0.21894846034688747
Ni 0.35341606587931323 3.7371644670183937 2.961313799291829 0.3413496829946444 -0.6363045807748331 -1.1961093294197143
Ni 9.077585420097954 9.177234310966762 10.353345955064121 -0.6355635888437506 -0.5641931075205638 0.19386477790538223
Ni 5.844127888152288 3.4972659236357253 10.779215298581684 -0.9457052216667068 0.7389867277271079 1.2294668218342373
Ni 2.2886414838880635 6.703300698791914 8.992356926587155 -0.10380880435755026 0.924881085832504 -0.45427587627243055
P 9.107785397729291 3.6274734398604807 7.352555156997688 0.6959505745722401 0.3219450532157875 -0.4589681395417773
Ni 6.4119591971663406 0.8349751245429934 1.2825555299332188 -0.39639777300872375 0.67660328039388 -2.0291652656191053
P 4.9587829897115725 6.062700686063863 0.40933568341300147 -0.159733383439312 -0.8631185599127263 -1.105867208003005
Ni 3.7355827385919045 5.245296541198152 7.946048170512425 0.6348148836031842 1.6258373411494513 -3.5405854307675404
P 2.6535241612498717 7.727469854943548 6.777125114269636 -0.25790093035068484 -0.027849675222416555 -0.12909457550753253
P 4.809861419138532 1.1799877983518088 4.963065611387247 -0.6108856264810962 1.6279865262819704 0.7250294942160674
P 2.7809820449192766 1.9786043201052113 2.0693044904402025 0.3376714628121088 -0.8212787410588048 0.19420930572899456
Ni 4.491658122549155 7.061617363964691 5.547957516778173 -0.6644082809895847 -1.9750016350925084 1.5934116165205783
