# total energy = -340889.2050044671 ev
CRYSTAL
PRIMVEC
9.10071748440412 0.00000000000000 0.00000000000000
0.00000000000000 9.10071748440412 0.00000000000000
0.00000000000000 0.00000000000000 13.31981995304710
PRIMCOORD
 96 1
Ni 6.610679402610482 2.213003312229895 11.113751814296775 0.04045373713967226 0.12747426629529013 0.8413927381998606
Ni 4.705207541586637 0.6945412898905751 5.888119733256482 -0.56716067478932 -1.3871803466300432 0.6133114623137697
Ni 2.9145230324230504 1.8929037699337785 4.604368859685642 -1.0488450249816905 -0.9736909082463554 1.4687915318446316
Ni 3.570948696605139 4.403846376954856 4.839689756537421 -2.2356559598186143 0.6887843958411041 -0.043504093930221845
Ni 3.579730889148162 2.133472140588984 2.5320307899855266 -0.7047805141590443 1.809659132996535 -1.9876617470586802
Ni 4.8496814344576125 4.614264069998626 2.560575190929767 0.3694829508957508 -1.3486711348112514 -0.5256548422360495
Ni 5.433993011892639 4.477662297904557 11.869651052730681 1.1689631080222256 -1.066909338682569 -1.6291116410253492
Ni 5.618346249554835 7.838875855290513 12.369144851635426 0.6210571676974594 1.2763002372480083 -0.014625206112342554
Ni 2.311618688806267 6.732046573339764 -0.0902263350363108 -0.9442525483805803 -1.4523408424877762 1.1603103174432339
Ni 3.1710813640089213 1.6906403199144113 13.441031018054371 -1.4466347932419343 0.593199779165559 -0.019966158709281742
Ni 7.986489495754591 9.13093204379893 6.667302247754711 0.48485452039023597 -0.310153202787182 1.0219024349545756
Ni 8.890909716203394 2.4079588859673473 1.4442147273724808 0.12029008984202509 0.9668929114879155 -1.2864046726718619
Ni 6.861085649057405 0.946802262596844 4.7406703080968935 0.8979035288023955 -0.5692964901854002 -0.5727638799087104
Ni 1.0077588694913195 7.382474864583144 2.177311207634576 -0.7478035546877895 0.25478989552552894 -0.21142027029064234
Ni 7.990694027314047 3.8137194409343462 3.4834662279436692 -0.5449157473481906 0.4178451442492223 1.4402000933601842
Ni 8.024111862565842 4.235255582281796 12.94813068909514 -2.7914798694388763 -1.2247187656262908 -0.4604771199871359
Ni 8.17532028650608 7.569075979507649 8.748325132318875 0.5194510274181828 -0.2396584392007292 0.579145615065338
Ni 7.138957861405722 0.6702633053858882 0.2524784798583708 -1.503418635000198 -0.040546296853478554 0.4531289071521809
Ni 1.6638296056846225 6.7151374399253205 9.17309384857957 1.2176675152064642 0.2559952286875397 -1.3285728213994794
Ni 0.03246681025620209 4.9819785670979515 1.5107073008202423 0.47898649164523316 0.26865816886718896 0.34629314304284875
Ni 6.69401467423376 2.156342244071489 6.772502903630701 -0.8324172741741278 0.47235587370259297 0.683929638851964
Ni 3.820199151909095 4.617649536968579 0.23034371436288803 -1.088271606408429 -1.466566756279171 1.2041838788977326
Ni 5.894971663583572 5.799587041776914 4.5047496739512445 0.7340489241058583 -0.7213201636852803 1.2174944799637097
Ni 5.650653797251967 3.0899575667773065 8.91797889081476 -0.2299733507024814 0.9688240670723574 0.7878353737986948
P 0.38427325288381364 5.836909084905347 12.714114835155973 -0.07378680407416326 0.3660906373847501 -0.8672999449839257
P 4.274042840953676 6.204086639662664 12.287973730671974 -0.4094741465767077 0.6910623932420034 -0.18903007552090026
P 2.707117676925126 8.500498029257125 1.1850963639085248 -0.4365087820969967 0.42598114309279544 0.21253201529758234
P 6.2924000038465975 7.978981403684131 5.944209276345767 0.04980123979284326 -0.41507992279925926 -0.8685235329783816
P 4.886047902231623 0.881972390265777 12.415377407425906 1.0140574849888602 1.741069813962911 -0.4253838758284286
P 4.358324587213715 6.192583332538953 8.138516984284333 -1.8139495328417727 0.39541766848364157 0.027660442029745907
P 4.867455136049865 1.0588684998764157 3.7250074653168532 0.7365351808628219 -0.9593657498729349 0.6370869674668125
P 0.15089353910916137 5.809297507521375 3.6291050126752746 0.2810994799543352 -0.38956918012266456 -0.7463300554660567
Ni 0.4552879729374076 9.281457913914581 4.828541377402495 0.45651736400843956 -0.45208221105522145 -0.24539945544956449
Ni 1.840956873523855 6.738881212303297 4.673498821111608 0.6430192737908474 0.054291414353712944 -0.08322532377924376
Ni 6.241172064131907 5.837928365283397 9.122318214532639 -0.12591386378670572 -0.6077236838133468 1.0390691765418492
Ni 9.03147030048007 2.46920671582698 10.012975419662464 -1.252311587642895 0.4345331464278645 0.7256923246110469
Ni 2.470371607687609 5.3058367057881295 7.076394067772285 0.01846489157340691 0.6106614262854322 -0.8093755618633157
Ni 0.7256739349376505 0.29975033760575426 9.026495848206478 -0.0751381758957351 -1.1473938664918821 0.0766849515575647
Ni 1.7535717825413595 1.4793580586928312 11.254142215153186 -0.38608045024311577 -2.012311170176244 1.380573382836487
Ni 4.485152188539694 6.774100989652002 1.489302412881185 -1.2243917213041753 1.7567908242425938 0.6548211515217819
Ni 5.8099800613459625 7.9587960119116685 8.074834712450338 0.09578876226655116 0.23926814574084596 -0.17154014626625294
Ni 5.3067103746836 3.05511091885271 4.7597845454006364 1.0736515425024091 -0.8950094950840521 -0.5675160012462097
Ni 0.7360796955114252 7.459485137431914 6.826434666562524 0.1487321472328019 -0.03853466574008848 0.0889776528819887
Ni 5.0980400194307744 4.746269979673808 6.724324614404265 0.6822427380678443 -0.12915782464530012 0.592733895272734
Ni 0.584609170902546 7.542574689678339 10.988105486123214 0.2625307158132124 0.00045122860480567453 1.6908700531800687
Ni 4.8576445624111315 0.35292128054110417 10.19317873007117 0.3350610217724552 -0.13957979130957252 0.6493755550261784
Ni 8.109321882027318 7.206321373533657 4.926748131755881 0.15255974850900822 0.39324997140836143 -0.615397655418837
Ni 7.340857282718643 6.032092176584328 6.94074514081734 -0.6931084771377547 1.8044081690102407 -1.6913315661975195
Ni 2.281759234159988 5.466591782554928 2.2323223156810137 1.5625164696036187 -0.4587971611815517 0.44618435751354774
Ni 2.6250656064920723 5.28973753624553 11.143614909230116 -0.6401756336944652 -0.13812480403060085 0.2162737417282017
Ni 1.3024401073598055 3.5553591672515656 3.4157477878269487 0.40463558753748374 -0.6066852152465035 0.3989778750310741
Ni 1.4049596918128164 0.6053269546581856 2.576758997146615 -0.6715850012436821 1.357305927668114 -0.07981167011200448
Ni 1.3343654249151684 3.5420357165956213 8.261405795006562 -2.114508149961984 0.1544651930618372 -0.5315490962332974
Ni 3.8105705926235838 2.792191185621686 6.8556579810442875 -0.2856667876100435 -0.015198047896677053 0.3129755027273255
Ni 4.113770102222919 7.124760741854306 6.036901905868253 0.0991417378991841 0.297308742724346 -0.4329076950092996
Ni 0.867842616025054 0.6501552697135466 0.2061831291160302 0.10326938691431246 -0.7613545538993468 -0.7203148623492175
P 0.1202441421698937 5.54980874484861 7.9586722421514775 1.4782627045598606 1.2794634654673385 0.4954356383401919
P 8.701050544356194 1.7769242240599061 7.926358323951983 -0.15934977484764815 0.8731754299280962 -0.6452106250152114
P 2.03350985779876 3.337815612279104 10.442659433531954 -0.1238623805743157 1.327395770372243 -0.7969841301774985
P 3.9403650279071027 6.206780452090369 3.718520473767976 -0.814734512182384 1.5193828716389381 -0.41105151836615655
P 7.24395284106257 4.206297098683972 10.313869717478227 -0.8639821934646024 -0.7013761164631857 0.2259143501417593
P 6.536908985249087 7.7464944703120375 10.285764881197021 -0.4181662750340669 0.21814396216772106 -0.6444356945223998
P 2.3444995817160517 8.687754395853233 5.800435228662934 0.6505927152627311 0.12575471250102213 0.2989496207618787
P 6.847916910601701 4.035312815266026 1.7175775341196904 -0.35315721715253373 0.4422675389576448 -1.669808347413763
Ni 5.371179858595285 2.683237393782232 0.5007961116020575 0.5193237578116991 0.5253807626390565 -0.5501266021251686
Ni 1.7175693434737953 1.557888151391014 6.882004558673357 -0.2960278191293934 -2.2904579952601587 0.33521245974865493
Ni 6.9460317477067095 0.8636963290586277 8.938251649476769 0.9029490616461029 -0.019993412402791372 0.4065777988655191
Ni 2.924379109650091 1.740084518967515 9.13505193868414 -0.12009802843587705 -0.7158614545635542 -1.4803362992594378
Ni 6.470473746322591 1.8952517550903585 2.586921768558837 0.6391039978968412 0.7295602922068855 -0.9515346838642904
Ni 4.017220588555631 7.1304031868042275 10.257593609676888 0.4506238813421401 -0.4073195621275501 -0.4803154948693018
Ni 8.502354575660004 7.742171629422985 0.14497261219880817 0.08096480987984121 -0.9393093454426921 -0.2381142346420609
Ni 7.570468389309807 4.1022849965345305 7.992318505416566 1.4178700624044163 -2.13844486328324 0.9505844041358791
Ni 3.0644664566083866 8.590367616161119 12.24259300205458 0.8123948083056138 1.0438971940581119 -0.7235413397063152
Ni 9.232132024191072 5.134542997969703 10.16105137658373 0.4741538461432802 -0.8330644208398233 0.24362539426827717
Ni -0.3019791033609733 2.3372827126107487 5.66530595268644 -0.237524680687178 0.9798222179550737 -0.7414945817506261
Ni 4.134092004760298 2.688060774142649 10.857411899934771 0.34868606875505753 -0.01164015534208963 1.6742517278970972
Ni 1.011835991003521 3.5420903209015884 12.417482403420932 1.3507717260940222 -0.25696813412377034 0.5420150287616279
Ni 3.581487327656767 8.626260846616749 8.152968923930262 -1.6265487653941793 -0.1918318066357535 -0.896974846340539
Ni 5.827189518443223 8.049976102158869 3.7336258449419755 -1.0125832144361786 0.3677006621843474 -0.45930546827653806
Ni 3.241429911529718 8.496557418509843 3.4429734947820867 0.7984044075637927 -0.3894298263313229 0.5539578029458009
Ni 3.4270663503821384 4.120477331139197 8.904233166859338 1.5315840416908202 1.5094021062771423 0.8750703329579639
Ni 7.423054964634275 6.093840545915325 11.523482504694162 0.2027991042805346 0.7485090653952463 -0.13236399028742363
Ni 8.058794697572537 8.619025776076123 2.6700113208052625 0.45252161258548523 1.6823031374466642 0.18791550230048285
Ni 4.731080881897325 0.36610640028859837 1.4324666109436843 0.9225064149527403 -1.5762531024634208 0.08490219726103443
Ni 6.211476422403528 5.808705960873399 0.3487931950100002 0.9918400683515561 -0.4335535561234146 0.3481114271985102
Ni 7.94050356941273 9.139304704047202 11.054664494809902 0.799898475610816 0.6433725433652081 0.6998236843744011
Ni 9.406228753049138 4.924498434350041 5.826249414308825 -0.7820146533518597 0.22406906940290441 -0.6865359661265595
Ni 7.331665557880868 6.39422793375736 2.5487606392620443 -0.04933047080401182 -1.8846849516841222 0.5487212371372099
P 8.606812612974842 1.646419932798816 3.358486072302906 0.052197765049477846 -1.1020213518943536 1.6404458350912456
P 2.199288530714521 3.412596209300888 1.2963817596127687 -0.5414529856105706 0.3706864842855487 -0.3241271484687708
P 5.00777000094969 1.2931391739100961 8.07415488884105 -0.8481074312158748 -0.7629509518521893 -0.4489616631483688
P 8.406023479216584 1.8882897060795683 12.454671576071513 1.6809386529989696 0.8612807353730392 -1.036926933387866
P 6.517597262372098 7.889594154816179 1.2748976954300593 -0.47111223110347894 0.07348032857733797 -0.2122463657363635
P 1.6823404654074299 3.316073997786584 5.746850203074001 1.9004370723120558 0.864615713283543 -0.2372534293036624
P 7.002601808688504 4.129532545212055 5.663121780447762 0.7163291382285921 0.02636692002930298 0.14971919373641956
P 2.5162301239822136 8.826786059562833 10.125953548851685 -0.3416756988754954 -0.6369851517816255 -0.3368929327748714
