# total energy = -340856.6593800973 ev
CRYSTAL
PRIMVEC
9.39746315077593 0.00000000000000 0.00000000000000
0.00000000000000 9.39746315077593 0.00000000000000
0.00000000000000 0.00000000000000 13.75413723128856
PRIMCOORD
 96 1
Ni 1.8189542025707215 6.689612446721787 7.562698811101234 0.5714749858939577 0.0619090787999708 0.0332019406732654
Ni 1.5200302922721438 6.920113426689831 10.382433988945147 -3.3699683105361897 -2.385523249097124 -2.771491085021775
Ni 5.290104621348297 0.1526035271324638 1.6249275969320138 -0.6816423854796841 0.3003027923556635 1.7035463630961565
Ni 3.252368075552036 8.294981103275152 0.6026734180047542 0.009209948634042201 -0.022069321095213604 -0.10058798342740741
Ni 2.6755799702234873 6.665902646800906 2.8679169119597874 1.1410370710359188 0.0812985390701761 -1.7678044017442782
Ni 1.2853568385962635 4.5407414998695055 11.893216237577917 -0.49814172441744536 -0.8941584599376665 -0.3514484619915431
Ni 6.133564542909444 3.8333192571251145 0.7061084773742206 3.031629132233095 -0.5664631345016631 -1.206526153877664
Ni 0.6653629559723351 2.384512339248674 8.304280832962709 -1.3510884860034924 -0.2062832061743931 0.3905991640490757
Ni 3.524762946937951 3.1116034726923925 12.744336031479735 0.36072603063872716 0.28302420778087384 -0.4015052694386182
Ni 1.933227356370926 8.810018477220384 2.806146445903527 1.7630347482697766 1.379465751594605 -1.6858085794967614
Ni 7.303435954939037 2.140074921197924 4.185356690282522 0.19788109815362695 -0.7129095710240818 0.4297678638287373
Ni 0.710858895075372 8.371795968337889 13.444710176744673 -0.06369753815896127 -0.1673687884973827 -0.035690511423074014
Ni 4.77415569346239 5.949881725131582 6.893999755655291 0.3795465057793399 -0.3175986033216337 0.9092433792952471
Ni 6.885089080948601 2.4826970358691125 8.61185040950275 -4.260351362591823 -0.34409973493595575 -1.9373827962984695
Ni 6.458369067152574 -0.13742568414704356 5.661629574163228 0.5115777953176931 1.036645654702021 0.5883198253654384
Ni 5.205264322622289 3.226478064144177 2.7174597654464 -0.27122130160867486 -0.1378530384264529 1.6062362790890723
Ni 5.077627976001041 0.7241036798587609 7.530417584899007 0.11681601525049559 0.7935074844828076 -0.40708739151208595
Ni 7.145088698233984 1.7235229626989224 1.6577172258990922 -0.38987771250201886 0.3738075464130336 0.310791093481497
Ni 3.455024371744586 5.841256446778246 4.747213166164267 0.9902691243200108 -1.7894566899067308 0.3350533084629713
Ni 7.4420297437750085 5.154743559889568 8.82710306551058 -1.671583694146631 1.2609700346488413 -0.21359362379287733
Ni 1.841977987670269 3.952948965009704 0.40875676268672634 0.8337290510070158 -0.700185181478878 1.2292467354036314
Ni 6.412669203095798 7.1592036881195025 5.492962023255594 -0.4884098418416621 -2.730139261547866 2.0116902487627932
Ni 6.8396147560111675 0.856589117545873 11.57951199699176 -3.33828152095587 0.907016032626625 0.9118018840510426
Ni 3.9291263955291513 1.1674280715700491 11.533353536725656 3.1245197470162447 -0.47689361367194644 -2.9268402233504625
P 4.759683599971246 1.782388672847317 9.466808127418712 -0.11803317548704834 -0.1886528946871396 -0.1867929586602654
P 8.443583190531948 3.2333100199675937 0.8247740055236203 0.7103567226952411 -0.3739366157917302 0.9054317188586406
P 1.2107879672636466 0.6316251229576876 6.571974061311726 -0.42951949526335703 0.004570907200134064 3.486362150647602
P 7.341833990007099 9.530437411716887 7.864299118949343 -0.394990608248552 -1.3976704475280897 0.7225203546409685
P 5.894915962255151 5.858087303559181 10.431482169177828 0.025226378666956557 0.6941004087373788 -0.33655688959169133
P 2.4794643084918704 3.496410800143936 10.111546470673504 -0.2982376822965186 0.8701428137493595 -0.08398662742530051
P 7.8394014796665905 6.552682008890966 1.6753506260463542 0.9083648333450357 -0.036128113181124875 -0.3466353568736159
P 2.3207223583279677 4.579844344685513 2.9058920611790824 -0.8421656118101432 -1.0014940465015527 -0.49234491523001017
Ni 3.4170586199885973 2.0235651711309064 1.3828545806490382 -0.6402111149180909 -0.3249560721279694 -0.5636439198853131
Ni 0.4647534272878183 4.747354128113855 4.631953278716939 0.9264880253083077 0.6312999284713903 -0.7345518318842059
Ni 7.539302886454772 4.5657481497266055 5.086514217303137 -2.819333401316035 1.1674389580682152 -1.9092572417068472
Ni 1.402787540067263 2.542220568448923 3.0158151292149675 -0.6026925491473427 0.04043599652785939 -0.9588767260516582
Ni 0.7241948352528286 2.2117211814423947 13.283415875546877 0.38920048392933615 1.1801327514858 1.305365787155397
Ni 1.4427361565808048 7.13773988192874 5.237245769745058 0.13347239286025397 0.6197021963314617 -0.0866564609479798
Ni 0.3846024627514743 4.897920285201591 8.728059440743976 1.8597092555753905 0.15514319296546827 0.39073851784041735
Ni 2.5892736672217542 2.0214789342769883 7.344612819906665 2.1379422126152083 0.35826291381021524 -0.5559262395260813
Ni 7.517557156364831 1.7604361985646462 6.582097948531214 0.25312793444207377 0.8517221451503266 -1.5862402955831199
Ni 0.2880735991655417 2.4549745191165964 5.348420579893294 0.7296034867399951 -0.8545966384846444 -0.09199509955207383
Ni 8.01423188701026 5.287623691035528 13.76060214678845 -0.09191925200881589 -1.059307615075911 -0.5969548753326172
Ni 6.637052434451677 7.116238485884755 13.408014962027647 1.2406655187635343 0.910225283592542 -0.4503737130045469
Ni 4.1550414134038975 4.511233465088861 0.88078288682701 -2.1203460968 1.0094832353546164 1.5928757986217663
Ni 0.6224992463412913 8.479481500360631 8.566475697676358 2.47300811948367 4.656260111779272 1.9037036588784697
Ni 1.318088203290845 0.34986379989474437 4.653121064813563 0.6436473942931497 0.9194460308598618 -1.5997465575996708
Ni 9.254076810815866 0.7380842860190047 2.2793490863772456 0.24802378044628898 0.4775780413334807 1.6513144023746333
Ni 5.288149948980662 8.151998699075309 11.486121886150011 -0.48750352797730884 -1.3471441566437639 0.7781343444608471
Ni 4.038315521680843 3.82821643454999 6.427115923436017 2.7133725836124882 -0.9546704012797946 0.748226244047505
Ni 7.578330551564331 7.699181929678692 10.332424448216269 -1.1225639519323956 -1.3164372144782102 -0.422453332445195
Ni 6.317266155613917 7.288165077066887 8.011578983118993 0.6357127128271052 1.0876321730522172 0.5878611405614651
Ni 3.2883509625504717 5.393580089809978 11.13643663805808 1.487635404024012 -0.16157506463374108 -0.19704343274368002
Ni 1.678518510926786 6.199995211019119 0.49676682578582626 0.03772965334028986 1.083161281765057 0.3024658614452533
Ni 8.735045514965611 8.689496010321731 4.83782538685278 -0.30544165624412556 -0.008639163732236735 -0.25181667182981793
Ni 2.632398626332703 7.862030571307289 11.843165348010492 2.619375108918405 0.6414665845917469 3.7038134576236725
P 8.40462130766553 3.3981133339638263 9.383966669137877 3.04885423786213 -0.005216511203932952 2.6924445752105695
P 2.0878814099967453 4.166017650545233 6.09817181660662 -2.3586181971761637 0.3683858611768301 0.5296058564639976
P 6.2553274749644805 4.098271337572727 6.917217128498941 0.14076224165344792 -0.08161992696533685 0.3178400299084784
P 9.208865614850998 0.9969674846636423 11.892432489138203 -0.2343588813646867 -1.1335811289785058 -0.90787375264123
P 5.659565891221244 9.03218390723606 13.42226433563844 0.15966576342617017 -0.2694575248400327 -1.3129382001860161
P 8.529259863492184 6.556290634800447 5.165559100408371 0.36605309927859536 -1.1321472247454565 -1.0987036003750303
P 7.220127442731898 0.08001094233308557 3.512723856696714 -0.7145874729471371 0.9838987020172926 -1.171677164519279
P 3.757632087659091 6.262723278586254 13.594767931067556 -0.2918299789979619 1.2996803067348457 -1.1309220940891038
Ni 7.962470659121154 2.523444436763659 12.73598732507874 -2.4668174172919257 1.3465754286244875 -1.1880442930233925
Ni 5.020989464656154 4.463682300760815 8.974643239413803 1.171317981407647 -0.265287195512427 -0.25526812071352817
Ni 5.05942508957744 1.4462414103939196 4.945010973827646 -0.40516780589187 1.379837790222043 0.2943748569070027
Ni 5.929226100785131 3.010355203034218 10.763492668283952 0.42901221660963534 0.6596368277428705 1.451524774344384
Ni 3.081888693719017 2.8106779027096502 4.595422519607766 -0.1523280921141764 0.26496709316884687 -0.32149485305224634
Ni 6.903912199950394 7.3196089892885565 3.395085471286653 0.13301602204912574 -0.23663996408937954 -1.1554830712579196
Ni 0.46111472949575916 7.184351299926193 3.0710928878731556 -2.7500030903513286 -1.3318417219587386 -0.5384599644205179
Ni 3.6974319377212534 7.399186708563237 9.506653371835888 1.04264943769394 -0.41761348785439045 0.2454755601031385
Ni 1.5457793417304135 1.5372934323651517 10.682604942624424 -0.3282617394624347 1.4796323312138775 -0.5380367608401702
Ni 7.817787314062934 3.9075216273888 2.8838164801271033 -1.48290431709693 -0.11939123217683954 -0.06023169109754788
Ni 2.3599661650935646 0.7760453390433406 12.821703467384859 -0.6994863556396406 -1.3036955985418257 1.2742073592747216
Ni 8.029023494253805 4.6504098966498 11.454294557425461 -0.3309410860668107 0.41169969347311675 -1.0694056227418614
Ni 8.221671492025532 1.207846561248888 9.905441305447676 1.9961453590496592 -0.8163522502914651 -0.7641125762604581
Ni 5.459024024272529 5.4585823434971505 12.464508706365153 -0.17338645544637235 -1.4104460020262033 0.06936759196054505
Ni 8.063512184586598 8.668426897589818 12.234057532952631 1.113596715436779 -2.099538416026029 2.0969899385725626
Ni 2.9172733289889035 4.881390147246448 8.405813845759054 -1.422228596483428 -0.883182420542137 0.24074601583795313
Ni 3.1155973945974162 8.803205316323579 7.703912612706902 -0.8408623196176873 0.5338067819192226 -0.43063818224883255
Ni 0.11461992019619355 4.7311904912276415 1.8099617699332693 2.285845693299128 2.0329005642918214 0.8595228721416681
Ni 4.5577884983064765 8.55728309907049 4.169209029083929 -0.4962625051168614 -0.46129910166779914 -0.2093011670651105
Ni 7.752860240082209 8.719210789295106 1.354631179102315 -0.8595575820343454 -1.0317836986240294 -0.6527305875413404
Ni 5.336753629198972 6.930582200812646 1.5103415076037219 -0.9863777596854044 0.4970284367486086 -0.5133408007553868
Ni 9.013539340037081 7.430602428394988 7.0417053249127 -2.384877902203641 -0.6467921105697183 -2.6289460404362917
Ni 5.921820899700052 9.219973416478616 9.643809348786052 -0.3699321226180274 1.0373136273033232 -1.7093130903766047
Ni 8.57461202140664 3.9049279275163613 6.730009322235022 1.2024121317092904 -0.21842909750830766 3.5554950008895223
P 2.225074976800132 9.048300556805744 10.18071649933686 0.9719289312499261 -1.0182172727935044 -1.277988680694025
P 5.26564302436294 1.9515806022074225 13.918774610676014 -0.31627139986977787 0.4377354554152461 -0.641478668776605
P 8.95151608221789 6.827144322204188 9.046673855907486 -0.023667518820268917 -1.7132101114381655 0.7272491275752055
P 1.47525137961935 0.6429424880170285 0.9823187188623463 0.7801565170971984 -0.22650467542759056 0.8274123647603686
P 3.7262539576805644 7.503742885305103 6.037200134931365 -0.6271008027883781 1.8638893550950093 -0.037145498702045705
P 5.1423671007156475 5.5813414066626175 3.0169700774552677 -0.4392716895541145 -1.6748240554607996 1.7644640245171352
P 0.20701296018118284 6.2337790916039655 12.602434335560073 -0.116736825273128 1.4380473086832395 -0.7833308010601219
P 3.6517132787378657 1.1395457979413315 3.340865866996714 -0.11646994476498652 -0.8979063570158731 0.1694542102715017
