# total energy = -340891.6975032824 ev
CRYSTAL
PRIMVEC
9.08573386862154 0.00000000000000 0.00000000000000
0.00000000000000 9.08573386862154 0.00000000000000
0.00000000000000 0.00000000000000 13.29788991678535
PRIMCOORD
 96 1
Ni 6.268956579723255 2.12975056599864 11.403645582957202 1.8042832133966025 -0.7061084889418485 0.0673706161351743
Ni 4.694816819812979 0.01590730310209815 5.713372122263518 -0.6014185675309255 0.8835619153687428 0.7689331375775531
Ni 2.694692420913742 1.625628614536499 4.742240717043794 0.49795583365888435 -0.3269340217899466 0.8117854568563889
Ni 3.5594544123756435 4.327625965593083 4.990392101431003 -0.9811396512149168 -0.11047876017855812 -0.027852503435893967
Ni 5.040846999527057 4.8407700509256735 2.536159991066267 -0.6325409999673429 -1.0015737506995523 0.5358328112103159
Ni 7.299097101608044 6.071868837610672 2.556944516184133 0.7700528530042932 -0.6092570897387378 0.08659501158242505
Ni 5.3230953265014 4.371292003237978 11.889630592191557 0.47222757565484486 2.3910341516130242 0.964310752583036
Ni 5.535583387758408 8.12721632781363 12.552889174812737 0.5417692312994088 -1.1499734542936002 -0.764153971021355
Ni 1.91355552526616 6.719454529067175 0.5110298350288103 0.5391667606795553 -0.2334345697782044 0.5250249219615345
Ni 2.840200451060019 1.5279933168810578 0.5854192822234804 -0.5568307536182217 -0.01938920315988919 -1.0670666901960397
Ni 0.41751128345262445 0.0068188433733862575 4.892373385800403 1.4745847414876412 0.40926460166906287 -0.28195617152767566
Ni 8.612103780379755 2.0446081526048987 1.1415679637651472 0.297368649428004 2.103061598687939 -0.002782704951459724
Ni 7.176721350247432 0.44593055085784084 4.599248526644473 -1.4129114328475603 0.19917719125723118 0.2210696204549483
Ni 0.6592217910012009 7.64343733479654 2.5882212469350256 0.33740509652459955 -0.40932425126240474 0.49283573882349957
Ni 7.740554745613496 3.7269590045565217 3.732412262108429 -0.29216370818829684 0.8830595218110276 -0.16458402666339397
Ni 7.836454668073312 3.8202694928239125 12.550336083556347 -1.358295545274893 0.2762498651715178 1.0040772338476966
Ni 7.909149625875395 8.868039821665453 6.98066120465121 0.5153650302742673 -0.3807875772752926 0.10020591749764034
Ni 6.599995298323293 0.9005943092446609 0.32155502944195563 1.5222825617842366 0.28575137690404984 -0.41754869605472605
Ni 1.8201632653926927 6.327377849397971 9.171142633909529 0.4449599981881433 0.787835630909011 0.49744546968136916
Ni 9.06548190740437 4.604186623078099 1.5424359996609842 0.014404605461104225 -0.2810195186460192 0.1384780736049615
Ni 6.460365738080522 1.7345938225005517 6.646577856584921 -0.3678988942380826 0.5994609295839224 1.1946805673929877
Ni 3.2586984452259675 4.385592948567372 0.24667676975762767 0.6071896656867478 0.7095769071064231 0.4439631814925128
Ni 5.93473785422024 5.315336109658133 4.763304174195721 0.15780197074455404 1.2787368717139591 0.13098176522791635
Ni 5.40976414320857 2.8868556951937143 8.905730172052953 -0.23140314117047245 -0.3547608141942277 0.5135855697763414
P 0.3336926615039233 5.645738826877574 12.916386678158174 -1.3420472017368306 0.022687928515818988 -1.3269741094537921
P 3.944317019242091 6.300275104850587 12.76973747982043 1.084154498916262 0.8088916802483617 -0.13786126595656903
P 2.433050538670699 8.63810715111211 1.5850953379777373 0.3077746752526764 -0.2819134912151983 0.09449344049389533
P 6.358523745579141 7.722056191172172 5.8791304363679595 0.23990629354547716 -0.13566914340125666 -0.44105449248615003
P 4.609501777473076 1.1395600165492668 12.491346046932698 0.05058799736019676 -0.35428695988160275 1.612150073470346
P 3.9153426134889546 6.064300421181582 8.17760399147802 -0.6220046192123933 2.7054515289931986 0.2837981098324209
P 4.67518254862059 1.0349014465052477 3.808077346357894 -0.361529500376629 -0.16530316421760563 -0.3405498128011683
P 0.19872135708731453 5.632646284171313 3.586440859527718 0.25658169731862907 -0.4790209444275944 -0.010717900638136381
Ni 1.5249223387861817 1.3244001892183808 2.689963296362313 -0.33117197113069413 0.0021291305278608496 -0.5134367029033029
Ni 1.8797747662225224 6.587466071125559 4.906628902459754 -0.20954207943132297 -0.7557590620894403 -1.1557041861297903
Ni 5.8267357340610895 5.604843938105274 9.29739254225137 0.05774774833342958 -0.22185432113977271 -0.4763760506055795
Ni 8.589680188846753 2.6916759572229165 10.468910719602167 0.21414538253128926 -0.8054813690152322 -0.47680645327477883
Ni 2.0470794722552133 5.263601940213681 6.992935122723305 0.6772869367244658 -1.1179598775014812 0.05246310289572254
Ni 0.5917338673593945 9.029057199764257 9.048363475958938 0.7302580896048584 -0.05467785115885422 0.6134338468242467
Ni 1.692127101744779 1.3220833270462107 11.64674439066228 -0.4201853623466248 -0.00982624206180243 -0.8400549932250435
Ni 4.210519939957406 6.930143614990498 1.8600023918732045 -1.0555679455278206 0.5009689094535953 -0.3187751401282381
Ni 5.5352472156000925 7.951134802728717 7.947630435121636 -0.3097598240035052 -0.2717784596637255 0.5408001825179203
Ni 5.436258143577383 2.922099257412722 4.7547535899203135 -0.003277128089375001 -0.04554220740617318 0.3073087913598514
Ni 0.7208376047533078 7.288085191989731 6.873613086562953 -2.142110227949969 -0.34501119100663163 1.4869985417709615
Ni 5.0698214052801935 4.572268439506205 7.170753840150644 0.7052998769976241 -0.28503043957762525 -1.079941746386495
Ni 8.373585091188367 7.073062210944348 9.343629842620672 -0.3718218834415726 0.09924175381215812 0.2797311388518989
Ni 4.658364854970839 0.6144154937382371 10.502035488650389 -0.2089656381025627 -1.7599393971739046 -2.0325688919840155
Ni 8.200483686858247 7.140323899809344 4.783383646354527 -0.14504158575509213 -0.31188869742104997 -0.1868495229298137
Ni 7.302149908234904 6.078501423436884 6.9331210100250855 -0.3367818611183038 0.2081680819019318 1.1797596844170972
Ni 2.2791654617685757 5.014916314666771 2.8019985738478406 0.4185329143448662 0.8983596425032077 -0.8233937305192787
Ni 2.742574239138586 5.23331010302931 11.337142552881916 -0.25635312624759077 0.17836231139440895 -0.33936350580255104
Ni 1.222839854471263 3.4549593855437775 4.167957818994544 -0.7404543134115699 -0.13828858330197474 -0.5391870723945295
Ni 3.795638067926844 2.6795192451195313 2.571758805485007 -0.6832884057235393 0.32212734442992264 0.8972635812255514
Ni 0.9243008064196635 3.3200634927194397 8.510090976079013 0.310779009296639 0.4398620148399457 -0.6065885417676392
Ni 3.8459003484619174 2.575814677146406 6.759729770780095 -0.02120800153618283 -0.5506212823734 0.5472675354098188
Ni 4.152334899366912 6.742895722809129 6.082268368756811 0.09473820951484975 0.4564625995111042 0.583582310680453
Ni 1.1582948000748128 7.41675735701824 11.415334379759148 -0.10490872228994837 0.07322681780563517 -0.24079846634244334
P 0.06376458984511939 5.474000282648731 8.177950157943744 0.68535711532711 -0.32786733223749337 -0.4714948112538783
P 8.479760978811807 1.557249380388458 8.162351769797935 0.06381169513932236 0.9492893394735392 -0.14586948097302618
P 1.9073772261403739 3.3862167220353965 10.534775022576653 -0.14980198325821298 -0.8078267293189572 -0.7976693291699811
P 3.929071157575812 6.242526179492502 4.005404043274902 -0.3698321067050534 -0.4804533059987468 -1.5657110652815165
P 6.699565857322548 3.964850778101322 10.336117265627395 1.4492447200609557 -0.1834068157968519 0.8524847343479641
P 6.371643545487428 7.468791355684973 10.098298177954666 0.06306093301622688 1.9452655414806561 1.4706332130390607
P 2.216410296971802 8.412281232330608 6.07012801097464 1.625567632427833 1.6364377423731173 -1.5317128539592009
P 6.649567063073721 3.9964782181849428 1.4116641215031085 1.8273652920270467 -0.5170367615497353 -0.1052913024403477
Ni 4.936633630449455 2.824245902141077 0.4598408096248686 1.3662983609747115 -0.006814708928988265 0.3799992770460423
Ni 1.4254244656589958 1.2557392973160755 7.032748809148593 -0.39779259647372134 -1.0852896409619697 0.4079736507717812
Ni 6.962234427508553 0.4519807411341072 9.359667071719093 -0.07975819116624973 0.1824817328794212 -0.08654513218109611
Ni 2.7852499317765544 1.7276250645160252 9.076155827717567 0.3151820234603411 0.27872943706026193 0.6751776036909468
Ni 6.194162817365206 2.0366127066774107 2.7256420652403284 1.374451586209465 0.03806338253062477 -1.675778963174901
Ni 4.12443261022678 7.128330730918112 10.404029493047402 -0.3002616547050829 0.28104034458162563 -0.22273003887650672
Ni 8.189826120866266 7.277327682923656 13.792571254415574 0.0501064297380879 0.10521005558045107 -0.08109233659664099
Ni 7.632816111740592 3.8037061997264003 8.250183560458195 -0.11237134921558066 -0.143885617773778 -0.11209444140511016
Ni 3.171348198468159 8.410663971677094 12.565176721485846 -0.42111121659500383 0.6528938525920821 -0.36162643096580943
Ni 0.17789140329940603 5.091999681994965 10.811024947958575 0.2438881610113606 0.20493697655914384 -0.949732597658545
Ni 8.585809666159127 2.3001171643921987 5.729900889571798 0.4139938888239322 0.499096889241863 0.6734940453409368
Ni 4.008553158682251 2.853956252348902 11.158911343130592 -2.6459652007021077 -0.8608385056292981 -0.64172472334914
Ni 1.1054339996133056 3.5363675622600215 12.55919194849444 0.09419236431370875 -0.1605599931056654 0.9616722865189243
Ni 3.0360616190814547 8.608405886638291 8.100170823390497 0.618390933719206 -0.846119968472201 -0.09187502903444178
Ni 5.892125761720331 7.57005186120981 3.6419328885580895 -1.3825477329540383 0.8453108423073442 1.092382543253009
Ni 3.085942298788171 8.475372569285698 3.76850261473703 0.3358827463428022 -0.26664165265779244 -0.2726222957212595
Ni 3.399200235933556 4.301131965224269 9.007671199055027 -0.7528832832035421 -1.8047334135601436 0.99916976924375
Ni 7.0941956282481415 6.170821566697347 11.783699110812943 0.8549576213684889 -0.3490863895172697 -1.6327618361834266
Ni 0.695645590067914 0.07024271819318655 0.290315550200498 0.08645900022519304 -0.5858117142316039 -0.1803916831196119
Ni 4.699941173793778 0.17221100239728598 1.3902408692844443 -1.548826373711036 0.6799745108589579 1.4116029984487817
Ni 5.987871226702002 5.888645925595072 0.46655516705715705 -0.7145368222148597 0.08516984910012429 0.15804391155203104
Ni 8.021776384644877 8.464542374347554 11.537076855459366 -0.1621409644395401 0.697550057848876 -0.09563938117288046
Ni -0.06178844269826861 4.853835336429909 5.777108546333211 0.14580623183525857 -0.1854809247170612 -0.12760333567398668
Ni 8.055666172496617 9.266994401979098 2.2748034008710905 -0.5236439824536079 -1.4876891400800831 0.19899284316056695
P 8.664782866161092 1.7855193616182465 3.5904567539594794 0.10243532104879133 -0.4089259873827215 0.21697333889838766
P 1.8846810625871175 3.289072054016414 1.4084995603479447 -1.060189503460232 -0.3692991170197188 1.3052603719257845
P 4.8604860937241385 1.0448412395105569 8.016500298906136 -0.4282483418604173 -1.0412067917101422 0.09409723349674118
P 8.462361798185512 1.4303398477575997 12.325654967259918 -0.1796784591026712 0.22615320562544278 -0.23885908322788543
P 6.364538501492774 7.946946279350795 1.5756934204257318 0.6060894906440336 -0.34403725712913646 -0.9901662801935591
P 1.7884267965009695 3.140483960041253 6.228159816878247 0.18380096591147702 1.391519083214713 -0.39979522872604695
P 6.933096478543263 4.012432767103885 6.127720661707779 0.43513761278108287 -1.3131168918557254 -0.6681160688584752
P 2.547648901720027 8.897123256226692 10.279694857434555 -0.7558799039380207 -0.9728095340826666 0.18566630125498992
