# total energy = -340886.6266021701 ev
CRYSTAL
PRIMVEC
9.14743828513512 0.00000000000000 0.00000000000000

0.00000000000000 9.14743828513512 0.00000000000000

0.00000000000000 0.00000000000000 13.38820056752797

PRIMCOORD
 96 1
Ni 5.06746121747605 3.1652788886558625 9.750814187499515 1.1087437582198516 0.36642796611951084 0.6476084358234266
Ni 4.656960781364278 0.5752586042859318 6.303178580072084 -0.005654627182616067 -0.5053274435326071 0.6980434525455268
Ni 3.4725962220102415 2.9467923275423566 3.161208278662331 -0.2109541292875012 0.26412839931763543 -0.02683666057686991
Ni 4.8673793019962215 4.9672235898151 3.2649941975962946 0.3645721438576947 -0.7545002499816748 0.47457576417204717
Ni 5.265457517049081 4.90373122135419 12.200425869407157 -1.3141090805656657 -1.5709813125415202 0.2921066296981163
Ni 5.928399804827146 6.256856867833328 5.281176474830844 -0.5154958994251768 -0.32539367388602025 0.7644905284251673
Ni 3.467217528355867 2.6665788535381694 7.636241150374113 1.9785250748647343 0.8634317202777709 -0.42138401064041625
Ni 5.5524583901885505 8.184450779938981 13.082467596657304 -0.8784305076794485 0.7489088719368264 -0.5581312175972001
Ni 2.2520809869383664 6.062611017917259 11.983497117017018 -1.0507270724957518 -0.8269109996439178 0.47089445866571805
Ni 8.105471798626272 7.763476527102277 9.324707307095688 -0.28851351303021927 -0.4368203998001444 1.0912414876700305
Ni 8.000742778815155 0.020990626409343172 7.489614119431818 0.3225757448212509 1.005313677357959 -0.8084869886107754
Ni 8.63986513755242 2.5802361844843538 2.260905520558053 -0.0650342546925138 -0.3905670252595596 -0.5780392693750367
Ni 1.3539580633542203 1.3444996122681259 3.322376077347813 0.7003708151271228 -0.5950188346521689 -0.7284655164808099
Ni 1.9287830790700544 6.362308535261274 1.0091344039425838 -0.9594171719361606 0.4603485648290717 -0.1989681605702186
Ni 7.145164590242059 4.1476771602634015 4.089653130351105 1.619257888159721 -1.0097768553356352 1.3613641568978876
Ni 7.602380993178477 4.243313626515932 13.0425710450016 -0.1334065726193251 -0.49055851275354867 0.5312631895617624
Ni 4.664425090925451 0.1798752245231726 10.84997127487883 -0.5297246414300489 0.105465880344999 0.1400554453944104
Ni 0.28490062133157135 0.11658044072711682 1.036034275421189 0.35105045522217604 1.137362450397809 0.5624483569153153
Ni 3.2229809287439513 4.5072812502987425 9.343370825230076 -0.27858391262133314 0.8094974321531607 1.05477501731288
Ni 9.222996027142695 4.843705731966422 1.6422368336085136 -0.6355111383392603 1.0685602440224307 0.6997514363755691
Ni 6.256225694598376 2.178782564740229 7.256792607934348 -0.09634283499780827 0.6721233902456554 0.6382815019955459
Ni 3.682694582305615 4.780057857056321 1.2428990163172065 -0.34103189464390943 -1.2845359948942392 -0.5728117024275102
Ni 0.7975294605776941 0.15410689114838733 5.496432160776451 -2.432199312997424 0.5105879206005981 -1.1938441875346213
Ni 6.767210739202167 1.2233509409100656 0.7977224715234548 0.6687907263279966 -1.0904400748146574 -0.1669191025544738
P -0.017865861524420684 6.147920026455864 13.062371589702721 1.0418225709172704 -1.3481414875600266 0.5835666269511692
P 3.9705644620729177 6.43929337504906 13.301819505423369 0.3617644992055705 0.2629004404478053 0.1482734624288285
P 2.3576424236245654 8.949368708633662 2.063791034026318 0.41112736590941457 -0.9782548734679539 0.12242127725241496
P 6.417677978611496 8.235676433790168 6.388808663691076 -0.4163983845003667 -0.4402327679158032 -0.8778388968420365
P 4.214462606471888 1.028821520410178 12.877748844760125 0.8120950176770078 1.1637005740717057 0.7917455074863784
P 4.353247538655857 6.3553656296768 8.644694070171713 -0.9977546340637783 -0.29609955290759327 0.7247811256506872
P 4.632976198436096 1.3261407038253874 4.100926433173642 0.2272076150318861 -0.8253868496899076 0.24506084116322308
P 9.13445797292383 5.8100959867454645 3.884184288522533 -0.23908765429892373 -0.5144615446233914 0.6902270418249016
Ni 2.7795863049091656 1.7618972167734333 5.369511455921944 -0.65054232164077 0.774969059358988 0.2517199983509536
Ni 1.7084670303190064 7.112178928137169 5.31475397618648 0.11649257047280583 -1.8163473436499882 0.4363408890605646
Ni 6.889521135210066 0.8183654952816649 9.67897295220468 -0.1310200746650195 1.2443087719430763 0.6401350102645168
Ni 8.588063195095405 2.659553621010006 11.014820917434868 -0.3866784888384308 0.2247229009368194 -0.753378734782722
Ni 3.3356407774638144 4.89093395532958 5.800946719070114 -0.31134182377864444 0.24879382584309412 -0.5013008388717173
Ni 1.7736333799682682 6.727712101107626 9.646505949845032 1.9775066609025493 0.7246150323864682 1.184254486963657
Ni 1.4257380108131978 1.3620261038357826 11.872602723867384 0.20179431716510407 0.2455822608843319 0.7728831233642367
Ni 3.916585429327228 6.981141876098191 2.307014097487035 -0.1206364174378503 1.5079481474394354 -0.5148276697135585
Ni 5.657141672808729 8.320848230755956 8.667346786099763 -0.9047981990396998 -1.0444150142347948 -1.1627430952544426
Ni 6.715857021216351 1.1892584387844622 5.009676850444272 0.06250634606433751 -0.9817371755895997 1.5183760276409786
Ni 8.41679570990687 7.443608908554357 5.261589980183316 -0.7962050859196288 -0.13822584838483937 -0.36730882606256743
Ni 4.9578566131108825 4.5472189654262944 7.5418139754499975 1.0753345866317867 0.6056788854691763 -0.05115466849694415
Ni 0.8260950805502817 7.701841088593473 7.560463772427106 -0.7350575678760308 0.03936538917149995 0.19096637331166466
Ni 6.178801777777579 2.2565723790885333 11.992440567333144 -0.7207244390828104 0.25337784566935073 -0.1521504288857315
Ni 0.9167013705433897 7.578936109103371 2.9321225809207228 0.16503628370946416 -0.2507239529862714 0.15954415024664134
Ni 7.633116385489191 6.248715647846264 7.172527322092963 -0.642056652767262 0.9825902676185143 1.8968136166268559
Ni 2.172361063132455 5.3844382455566535 3.405690029617677 -0.05640666092450286 -0.19369379954515675 -1.0177346767301312
Ni 1.626643195729921 1.4217222854487923 7.772559933222675 -2.4525182270604344 -0.2656746607588327 -0.11699804935431463
Ni 1.040109459133815 3.5263648636776135 4.3514198805059525 -0.6070798795817609 -0.3204188463792482 0.5380537301210346
Ni 0.650430421824913 8.108792318688412 12.36543559213148 -0.3358475222294926 -0.5665929752113081 -1.129272474300823
Ni 1.8178978333586073 5.455001583736665 7.652213492193678 0.07504510196129657 0.9015809776539828 -1.3532986062809338
Ni 6.394983184467782 2.1806669370068974 2.967226789709887 -1.1560826525151315 -0.008180221817947201 -0.5183817056134039
Ni 4.151025122640104 7.33656558688175 6.7758889138108485 -0.6743669348641934 -0.16860497489732898 -0.907771679845727
Ni 7.813183706214305 7.704256012275028 0.3815716628431326 -0.025564221622349524 -0.31963903079043016 -0.269342082308091
P 9.164909794650725 5.981647042517819 8.949342181062917 -1.6414197689687409 -1.7249122303664421 -2.36359276757262
P 8.49312193414514 1.8427422754764335 8.751638599511892 1.0248959703652607 0.8116005945390926 -0.20992954467772879
P 1.8496211489935932 3.6586551147483077 10.981859038669265 -0.05881629880725999 -0.35260365864190885 -0.2883954993951162
P 3.760027024744534 6.4863569445248395 4.418936207025637 0.5431529990208129 0.896945021543868 0.574382903569372
P 6.732752339549054 4.205690213249872 10.886869296296606 1.3346236555792497 -1.0063724576397766 -0.7277283812044694
P 6.384902707584923 7.909808095791109 10.780915434512155 -0.889772415054829 1.600063060398825 -0.5496735737481502
P 2.352217992779252 8.91502922567699 6.638083672256784 3.6008400046832243 -0.6532689765433136 0.629653908227535
P 6.660002763642179 4.181211668659555 1.9844662795501151 -0.21067285060165655 -0.22538675977306347 -1.5674329330686294
Ni 2.391945316828486 1.6191514438541845 0.9001271272910741 0.36915950611806103 0.2716308783422676 -0.24548635873641594
Ni 0.9394144595634791 3.6088839035689655 8.82421620358084 -0.8758900006457818 -0.728951712088609 0.8763525421044972
Ni 0.7368096806314793 0.17625924220756994 9.865711499600094 -0.6374749469338504 0.3982430537475786 -0.5948429711959369
Ni 2.942685127796074 1.7605433959216519 9.826711396886783 -0.3262670776299091 0.9512670320252004 1.086168444022497
Ni 4.8468615981411824 2.6477808680624206 1.135389175297025 0.2997926854884643 0.434348027000252 -1.0390689194315332
Ni 4.228540513842777 6.608831994420117 10.979583156048163 0.817520045347321 1.3306248188325018 -1.6614260368873388
Ni 7.261584036057073 6.326962834103954 11.665138825770072 0.3149963898120962 -0.3478000666056784 1.7326659061699323
Ni 7.526530435725968 4.001418771080071 8.54031997096228 0.5973551960948293 -0.27014426649441214 0.16573382399712103
Ni 2.830674747187538 8.396415217624646 -0.17835492029637479 1.185114006750475 0.5827546725728351 0.3173229810627438
Ni 9.25428026574467 5.304901270514496 10.97797595115858 0.2952536599675302 -1.5357158044710066 -0.110014676057946
Ni 8.511608906722506 2.477162850985213 6.5504448112117695 0.8765991108976644 0.6629581788066196 0.48418911889209504
Ni 3.4001576590017484 3.1305735081716826 12.50619911519545 0.06900326664259084 -0.09166059903079053 -0.4497301658832771
Ni 0.8186463216340276 3.7530658242836847 12.968238962288249 0.9963999198080968 -0.4766676137040694 0.3646536478279075
Ni 3.026795821932088 8.728997775253488 8.777625556659364 0.9234127288170936 -0.7381557471853804 -0.35747949867697143
Ni 5.548360337880455 8.107712920982262 3.9431596520063508 0.7682754493888961 0.9940982682581139 0.0169458838257192
Ni 3.239848804762093 8.671442094176403 4.416379498052172 -0.004828788847211039 0.5233858436962148 -0.9546611453084138
Ni 4.908240908380732 3.2378638106753588 5.183630023484719 1.002446383112493 -0.37449043141267113 0.44901488498380737
Ni 6.295212076154405 5.852713901262016 9.463503216205483 -0.25120346372585123 0.5173589207758446 0.11398625911118433
Ni 8.309212689381187 -0.1127385166882777 3.334893431763878 -0.7777306812645252 0.7992796110798945 0.10334986244326073
Ni 4.717242399021301 0.3346965305940202 2.009461654398039 -0.6745381703347351 0.0384809296840176 -0.2646837576004732
Ni 6.036970748677102 6.010781633145682 0.6802693651932302 0.1844311432963082 -0.25681078261029966 1.506422454823528
Ni 7.76594633541296 0.24612737508531565 11.864649941106988 0.2733746005062518 0.006225926305053794 0.22680318050461581
Ni 8.9790429981146 4.870818738754801 5.9486046662961645 0.7664671925355638 -0.052087978944490944 -0.27897831984627436
Ni 7.001723612020545 6.167815704514137 3.0648802660828087 1.0874473107349207 2.267691133877288 -1.1255569731224486
P 8.747868940234737 1.710827069371436 4.595272287713985 -0.24544547819615148 0.7591338920989442 -1.7941936903710842
P 1.660168556687886 3.3414036635220734 2.0952262053583905 -0.2690574611881366 0.5837298920019109 -0.4188571304535044
P 4.883634299655786 1.3369072385723249 8.726094378372707 -0.4738070043268227 -1.5304584127268093 -0.0013161477082622496
P 8.606266597088952 1.8779965022518765 13.204367272690577 0.35147237325094305 0.21544456095868703 -0.34095039067369665
P 6.696244913741896 8.385355964855703 2.024122253581485 -1.002504747154254 -0.13068840235721363 0.308045926636192
P 1.8036461246621516 3.539985399139117 6.636584407137818 -1.5071140815739141 -0.5400206240394184 -1.0947811253921726
P 6.735075788848734 4.468935189415854 6.174517117730455 0.16182163342690842 -1.4431560906647147 1.636253394276453
P 2.3806756729812246 8.406550579136631 10.943514807274013 0.4563728680107753 0.39945892843255076 0.4721612411932836
