# total energy = -340859.66063342174 ev
CRYSTAL
PRIMVEC
9.31528025591307 0.00000000000000 0.00000000000000

0.00000000000000 9.31528025591307 0.00000000000000

0.00000000000000 0.00000000000000 13.63385425748782

PRIMCOORD
 96 1
Ni 4.686992431567464 8.163669167352355 1.9191153486064139 -1.1137936619389335 0.5024287818285733 -1.2158266053429836
Ni 8.982603375246983 9.320030761555802 12.753584271781257 1.7556541395349892 -0.08553160331491722 0.4290962916830094
Ni 0.5612036993586371 1.153436596293253 9.066035680287287 -0.3731452302386864 1.3068117755733042 -0.6458186909128555
Ni 8.42270847272396 7.777774379366017 3.075047508403301 -0.728463716708597 1.1341038342511953 -0.33910459571420953
Ni 5.713871634204984 8.241190927252473 9.822210052448309 -0.4653694150824308 1.7112887260457366 -1.599763012659903
Ni 2.749786809261695 4.506108325133854 6.849334397798492 0.32733074300773307 -0.34495205563392206 -1.6859039674240448
Ni 6.420854807434914 1.2679307023894264 11.654450168537961 -0.5951918698949233 1.2129009470557564 -0.6004880852968562
Ni 1.1144800954638494 2.1899571136984517 12.818331056732204 -0.05791538425954541 0.41389567268317107 0.6672904876333863
Ni 6.406593113802725 5.954131335159545 5.745878936177684 1.2552444450189737 0.3281948907802412 0.6802840716795768
Ni 7.505712312598069 0.8929813683663954 8.886096143242511 0.07282752548468749 -0.6204030790532282 0.06425135377990225
Ni 6.824038755043292 1.505405134633324 5.296575037443917 0.6406826552378708 0.11840032901847997 -0.20485547258893108
Ni 3.579387012720568 0.3281195585640216 10.84888059281453 0.45195622700031846 1.7338126181798654 1.0224961026745165
Ni 2.3710182104514677 0.17430006655168157 13.030242497685798 0.5489675488200609 0.7598154915470011 -0.285479868410218
Ni 8.06337154792859 0.2558031771104529 1.486716819959974 0.8833390007246593 -0.23859657359511813 0.12866160173517197
Ni 1.9450025116396306 1.6779520654948827 7.162858775707442 1.5818352245368885 0.28563593437210805 -1.5579530186026525
Ni 8.307776548469253 3.7393955767441596 11.840497734658262 0.7953008289378045 2.009509696171707 -0.17825972437827362
Ni 6.313673196114227 1.5554095575056905 0.8653270967231027 1.241538151176475 -0.39043204234359213 -2.0707677716512403
Ni 4.342289811603035 8.12305454668851 12.713227684372548 0.2948057737968342 -1.85586134258421 -0.6504618461118217
Ni 6.8921241363350445 6.745380530986983 7.990951766867367 -0.5087071586381174 0.38500444357011754 1.0297098468141364
Ni 2.255806827797699 5.997493963414177 4.8852411513908605 -1.7553972863291767 0.3978967261517535 0.2986709131791953
Ni 3.1095708674955658 1.2929049679857032 1.6130757981523718 1.1340020185660082 -1.7828450981274842 0.30730133516068364
Ni 5.254777376224038 4.088634738053381 3.248811014828781 -1.8825013137692417 1.315139321602393 0.7431660559157781
Ni 1.7662795501587762 4.537696439507959 12.988168172650845 -2.2544640936640525 -2.8744236574219593 2.343484683968835
Ni 4.616876319242519 7.5987440136461935 7.300329019846591 -2.7309257620049032 -4.143752862668773 -1.153512320684794
P 8.654882510665624 8.11212772328514 8.424985127148327 -1.023754914782282 0.16415259555293019 1.3177034827851435
P 9.011797462669113 5.359853734271783 13.357986650467076 -0.47174266559862627 0.5027141742794762 0.32469047717140853
P 4.589200622455298 3.586559778296522 5.813570281126757 0.3966592542002265 0.6605310574223656 1.1611271569175743
P 5.534151937767471 3.363952532882784 1.3384986057928565 -2.129590241106087 1.7906877341003546 0.22405749943867864
P 5.501492566196958 8.630942241145883 5.442143985987916 -1.2992799859726334 0.6709494245422122 -0.63253122977533
P 1.822841930129158 3.066590165719653 1.1818407479740316 0.1171137489965725 -0.584903857705354 -0.3023982414321114
P 8.42472988847718 2.104796824223941 7.073501952606999 0.9793499063043456 -0.10277316400418429 -0.03459650702794687
P 6.572069747167986 7.377962563106334 1.1688151919936982 0.4233681309499805 0.9421558137525516 -0.2940946066624225
Ni 2.0210617725846514 5.729362944793051 8.64717597954746 -0.6911567527280226 -0.23903057580874318 1.8170970773318191
Ni 4.8924595618386615 2.0504142197662514 4.332334571900408 -1.1615051090822834 0.45447847920153983 -0.45156953308486103
Ni 6.025644739479805 6.706060734238798 3.255736925485563 -1.2705093415978441 1.5675609740060616 0.6055667853713441
Ni 4.289052986581504 1.0970698372022152 6.642168160460989 0.3334818502107934 0.39356030355992866 -0.0246368247120737
Ni 8.537416830259414 5.627882284813253 9.540384640745094 2.5661386181917676 0.3171944259046795 -1.0883150580518546
Ni 7.428386173577295 7.936013040195542 5.094017069106966 -1.6836797060792164 -2.0229635076837678 -3.1547420362358958
Ni 7.701929369860277 4.099496354496968 6.300981127156775 2.379865022370082 -0.6950738283942417 -1.2120100598103707
Ni 8.260715754067018 9.305079737205924 6.2719277004621725 2.547411988316542 2.3609890114011858 4.035414802982301
Ni 6.458758681627847 5.464287338001682 10.078894455043809 -2.0064045748838217 -1.2248977144063162 0.22965787634459162
Ni 3.8484588746185393 4.860685141865181 10.578575387848694 0.9737155908367036 0.5309826822068662 -0.34658522036197087
Ni 8.73569256439472 1.6847149587522108 11.028942160026897 0.3646261370240817 0.2664210520065541 0.741821883183058
Ni 1.1758677904580552 8.314371766687144 10.24132871797127 0.14097152945077657 -0.05691908178454714 -0.3037298157593414
Ni 4.016161859896337 3.3918424811092867 8.505738357669612 -0.02886603230207287 -1.4539508672873733 0.15364398271212248
Ni 1.6746824022258437 5.861872802348829 11.108686545727565 -0.9424167807234222 -0.07633990951332013 -2.4339720886271308
Ni 8.715888279181112 5.804024913742756 4.52528103436558 2.5067818735000054 0.948636793491205 0.759795436942343
Ni 7.656582586972296 5.714933576121424 1.8955011138855775 1.7484319107549373 -0.43372556292490466 -1.6134088855781117
Ni 8.712842182631324 6.892589900333483 6.61896379805878 1.3574182848762624 -1.0840891928959653 1.2232560650378352
Ni 4.657798344145333 5.710751015415446 1.1829213204504092 3.43081680928213 -1.8310188296192336 -0.6882881729309759
Ni 3.0027711826535977 3.16915139817583 3.0903171153281117 -0.7608220784346446 0.09046760716395387 0.8750669905238542
Ni 3.816945282484184 2.647616818564207 13.543857226267969 0.8215319947201917 0.7569628525895543 -0.8283721575704766
Ni 3.4983347617122846 7.573145624292008 10.09738249119783 -0.40562957601963684 -4.2039328745927795 1.5126571228793304
Ni 8.412657285637653 3.6511705601599225 1.1024726995841028 1.5499296340775435 -1.1738960265474687 -0.585231930468734
Ni 2.8492739993281773 8.636931966165802 3.5463839073192065 -0.22812267064698777 0.5824201720515518 -0.018987082625464075
Ni 8.085756165693548 3.1619786325998755 9.419315810046962 -0.4714691002222654 1.2879522196646398 -0.7165337980402304
P 3.117144190110177 5.888374773859985 12.626639362478823 3.8798445497817444 2.9114524280404823 0.04604254408135941
P 5.8144114509079365 3.445600961809068 11.404091772569256 -0.39325639916626465 0.8833055763835627 -1.032816253653602
P 8.307292153910877 0.7768403207717433 3.657704297530019 -2.3913550252875524 -0.9559562099707535 -2.2795380059135453
P 0.9796414179158788 4.297781403912243 5.406518629275345 -1.0253088895329632 -0.4556676144136346 -0.16945086783739205
P 4.726973613193432 0.5320384893044098 0.17163217036862535 -2.1630294946011395 -0.7153104671560907 -0.3702735651178462
P 1.557878106697415 1.1747872179816778 10.85770123141696 1.3605275199292053 -0.592525893026986 1.5733984066234452
P 2.190236572097515 7.0505025263641015 7.035763890397511 0.42812595734994013 0.8996590780409216 -1.6832665298011977
P 4.966543983430303 1.1206374955232077 9.179946649857415 0.8397076371879539 0.847135811331225 -0.7005675045189611
Ni 8.805855253119509 6.7673552764333165 11.56833878897864 -1.2881409386366782 0.3207685164091831 0.576308145616543
Ni 3.449858044754797 9.04603111655435 8.589859993427604 -1.2450124828783202 1.653768777452397 -1.977830619900871
Ni 9.19255115518316 7.351004142876709 0.7708794731197263 -0.6106727391393418 0.20458550675699602 0.8290306170900819
Ni 0.9330370722321139 8.080716599230442 5.311735655593093 0.5203198031763814 -0.0771498070091252 -0.8974931807378544
Ni 1.1395381985798454 6.871947239922685 2.9996794412319625 0.8328271080180367 1.7530053890582327 0.3573655988069265
Ni 8.857406012466692 3.503672417134391 3.683690202530905 1.9183116385996317 0.5162173509722335 0.8495091966594079
Ni 6.079803777218244 9.032486699479756 7.479750627325102 2.5155539632656807 2.458255386654528 0.4318599704710756
Ni 5.961713973054125 0.421127039884226 3.0263611976465152 0.5718822486347055 -1.128211122915844 0.9251924464253356
Ni 1.3285638597061613 7.501781264451249 12.720235569493054 1.7486265432642465 -0.3031487464448908 -0.17380477393071359
Ni 1.2279215749235515 4.929478484434561 2.047382096136416 -0.48268579487369134 -1.5687627076236466 -0.8440206627410108
Ni 0.9679134804351952 1.304260294267636 2.4502213783859497 -1.3507971800153187 0.5283187622214579 0.8167947371455223
Ni 0.7251684627849665 3.40402686730844 7.937357235095035 -0.6190509359007081 1.1847064868994113 -0.8047236649136011
Ni 2.7382265468204494 6.64097487309699 1.0584347135317345 -2.832640402837586 2.1127569715988326 -0.8408597485145262
Ni 7.006795232750625 2.5967833357746195 2.7877959461182744 -0.10576567097360494 -0.5505937715695743 1.1638782373001504
Ni 1.1322815954841723 8.96503475722588 7.624841702006703 0.4812133240932228 -2.771426550332427 -1.2919186605115556
Ni 6.832683334854313 8.740350204379107 12.924252310673113 -1.210211058928419 -1.6170251421744604 1.1297833524989704
Ni 8.164721793988825 8.968611824733888 10.55234355945663 -0.8610048560038333 -3.760526336934685 0.23623630089305764
Ni 4.440696429193139 5.7750730235998144 4.904424107430552 -0.3883936717573247 -0.9216394389667546 0.44001370992646155
Ni 6.147395448671651 4.440808212552764 7.7924561921247975 -1.6382660538311076 2.6664800328260077 0.8821745481029131
Ni 6.563797778555716 4.035183661592568 13.316389267766528 -0.11621771954486436 0.4906022215072906 0.6257062364336966
Ni 5.288303068831648 5.655269207921441 12.20944337074142 -0.3788098847236315 0.8473998636258889 0.7349788921192955
Ni 0.33747582576465596 1.3293742890634446 4.945980502899239 2.9987280106297005 1.472404960227503 2.3085230802919856
Ni 6.416253059130341 2.349136617804823 7.634113200159622 -2.379893304504856 -1.1031462095274165 -0.9649324453274349
Ni 2.6029407358339776 3.1247081974448196 11.130242103575302 -0.7872195945915669 -1.032200474446474 -0.24307543530207812
P 0.8673336080283762 3.999776282431267 9.997773270963759 -0.47426697468237666 0.5891672609673984 0.2389128192839563
P 6.558189980014516 7.251302701370945 11.325492234776751 1.0730293355373777 -0.735299765793824 1.8929009118360105
P 7.062761434803004 4.992962117421739 3.753386195729258 -0.10206765329672744 -2.841541819092274 1.456905064819691
P 8.292834839399344 1.986194679661539 13.223215974462876 -1.1585514257705984 -0.4092946835760499 0.6871139501172165
P 2.922780873561755 1.449904696579382 4.921385369197692 -1.8536424805560205 -1.050086096477643 -0.504055518798719
P 3.560225481824804 6.21739977763697 2.982801085456545 -0.17082332270488645 0.22097628941019365 0.7532383525501156
P 4.274716770709564 5.569736307248179 8.594318286420659 0.7105582971830859 0.7410870618995624 -0.39404701338836007
P 1.6383341797876965 8.840890021082059 1.344196762549754 -0.4324438679990036 -1.0958836144277322 0.4390356622839084
