# total energy = -381167.85546344327 ev
CRYSTAL
PRIMVEC
9.22255061745337 0.00000000000000 0.00000000000000
0.00000000000000 9.22255061745337 0.00000000000000
0.00000000000000 0.00000000000000 13.49813505834400
PRIMCOORD
 96 1
Ni 3.955413639393926 7.390749202024379 3.5281697575641506 0.864139287867757 0.6123879220582356 0.4183313398570215
Ni 0.7385317119686214 1.5916185701830663 11.49912898890388 0.46642819536424834 0.1071124148094865 -0.32421585152783516
Ni 0.0939925472964714 6.051090715845747 1.204763004454339 1.6254835573544588 0.5773460999627541 0.7203202616658563
Ni 4.618505809226827 -0.07250031524069046 12.077658669489159 0.000403920306638014 -0.991501454065215 0.22245055996287497
Ni 0.7044599208139368 8.421083339099468 0.21566658039599226 0.017282698339847656 -1.6135623804368406 0.7817907102665117
Ni 1.8560198750265195 2.2071039335141047 1.8260954649031962 0.6414771261147082 1.1370096950440804 -1.0302076123861612
Ni 5.8939476751667 1.6247090819476309 5.939840931756117 0.2964993594491732 -0.019475335115792265 0.13951602795117263
Ni 7.351525694071564 5.253773543721464 5.198685404125004 1.6110079894461031 0.05374094116688164 -0.6025467675980978
Ni 4.917150444667223 6.446009557615656 12.811458290714636 -1.3273834290770687 -0.7962745057049835 0.86193019603158
Ni 0.10488161285957667 1.3987934810042695 0.23247006769672723 0.15386664024588984 2.0837760109854497 0.11525201319748538
Ni 1.2498308427597735 1.4760600104255417 4.074438955944176 -0.7778188701029571 -1.1572054532656653 2.31643385049863
Ni 6.021477105679633 4.427313111514677 0.7028238403270267 -1.2843362201786075 0.9055109088360084 -0.7428415826968239
Ni 7.492372487736123 3.2466052859442605 6.680847976321619 2.282049202371173 -1.8390576407633101 0.5139969462821471
Ni 5.427784629555859 1.3146930415446634 2.4180292006162944 0.8149000912259707 -1.3798732714456687 -1.3754342618377087
Ni 2.8637772080883277 7.777459973707758 8.481363774716957 -0.6661237210187948 0.11928427428533003 -0.17794707823386127
Ni 9.194292763801073 8.694661081848647 10.772996996296312 0.6636618897418635 -0.9687266222625444 0.5141116174831405
Ni 4.908259905831927 6.669149170810652 8.648647009845597 2.0508275810838876 -1.0799345472976434 0.08406787428519716
Ni 3.5661666662793143 7.692962964569815 6.046624234561584 -0.5121241547394664 2.2722946940875706 -0.23326050609418536
Ni 1.6668284708073768 9.292549818522275 7.1541059301544445 0.6282346592825052 -0.880338780445755 -2.8776591336401216
Ni 0.316170248457732 1.825401006838572 6.285366558961511 0.36007888397303145 2.9396967675981567 1.6235094643472232
Ni 6.019835491662327 4.727968262998739 7.0569057797387655 -2.985821586980677 2.435086404737232 1.171289699272873
Ni 7.40410345537864 7.977441762197955 9.124685562702116 -1.015637170771154 -0.11292722171905067 1.3676224791027736
Ni 8.077202092676577 1.7950680377210542 9.925475947404585 -0.566254875145599 -0.5020634280693547 0.41410187515670616
Ni 5.349291500896937 6.27293917194848 5.4032360442116785 -0.8589978528761335 0.2277215785538272 -1.1000040643540088
P 6.1285416962802 1.7413097899296248 8.189223804256368 -0.8899711613291962 0.645373632955637 0.30968140535708605
Ni 1.7496930884786743 3.5397071684385852 13.01371436019735 -0.741234129000388 -0.3738589684762594 0.3079582520183922
P 2.4679268887018577 2.103719140626487 6.176652054048045 -0.9296232285031797 0.26087543959797654 -0.8612892200134715
Ni 5.688570694540976 2.8650130298766365 11.96804035461111 0.36115900441108767 0.18000936007952867 0.21228801760757632
P 1.486186371049146 7.12912388492929 10.119700097518358 0.5622287847053414 1.7030444837590732 0.021365867270285784
P 8.014617863904466 5.191991676856687 7.808698597299992 1.277395012974084 0.5061849064368961 -0.03729359424413577
P 3.8253203397977855 5.897489134619764 6.978954014803528 -0.9492068070620621 -2.3212559544776217 0.5010367865770533
Ni 6.775789524080904 2.1887879479052903 0.5770273270829237 -0.10436133442691059 -1.5831881390203573 -0.17316431213323727
Ni 4.233842443789749 3.2764955726301452 6.555032095721133 0.7467933682557203 0.6865719615708175 -1.158337252877263
Ni 2.3229760599940357 3.4603102298150796 4.148719223462058 -0.7501010924727145 0.4006825164270067 -0.490149193130272
Ni 9.011658593100494 6.404434299244793 12.368219739276924 0.6848017570442723 0.503675766861797 -0.6207638048267567
Ni 4.313045708849415 8.017098730031742 1.1347924348594176 -4.651205065853866 -0.469878615806694 1.5256329663137078
Ni 0.8960676333057428 4.191796835335275 5.972223151630069 -1.1115472891069178 0.03943609450843531 -0.4273237731636189
Ni 1.5031097515084482 4.949420149423134 9.442782401992517 0.7909842038403216 -0.04332154560577055 1.5407597946528175
Ni 3.1847588612248705 1.8662015709540778 12.063297313602932 -0.6668464581174322 -0.3236931462551458 -0.9218348428070123
Ni 2.9611212302942875 0.5625746679451731 3.0667627813281673 1.6930729743686583 -1.8433256720110447 -0.5831673346302215
Ni 2.870850904443796 0.30444193078465587 10.112641157243942 0.46066763873138733 0.28270384832697765 -0.13361868863013115
Ni 1.9975860276424813 7.232942137697882 2.3780743443962207 0.11813884782697719 -0.7244288845175911 -3.6392741402897064
Ni 0.22637857298644434 6.665238809331227 5.535639592747904 -1.434683534417329 0.26699055135677885 0.5167387706933424
Ni 8.550199048325752 4.18874417106714 0.20399636479206795 -0.10120221997263862 -0.6572778405923906 -0.03182408648913229
Ni 6.90366018896822 7.1967436263612266 7.006287810446732 1.3709453728284196 -1.9679676110638622 -0.06903617676305529
Ni 4.401038064687128 1.8071495790843708 0.4513248838555428 -0.818327628850281 -0.7927839760532218 -0.26332004448372714
Ni 0.3096167039594322 3.9950060493731 2.7009226417861494 -0.8822298268208807 0.0926396751146082 -0.022991832909482982
Ni 8.840903067648732 9.223749590605983 5.647322836718509 0.10377203758234387 -3.884860772049412 -1.0204772724722748
Ni 7.103890986326211 4.956152611404219 11.738112944131075 0.27656611086035593 -1.886228899132474 0.26531882008131086
Ni 4.4562903656853186 3.354573686509412 9.195577465107874 -0.07715314944323487 0.6062327010901173 -0.5736061733043476
Ni 5.023209777245956 9.519424564734173 4.261226041206513 -0.5345788841985568 -2.4401458215380103 1.557282474898189
Ni 7.754007027381871 0.4653237935008698 7.633587261171976 0.8999331576379146 1.1171340391660758 0.10460996010260692
Ni 0.8349461010681517 0.6849486926397135 8.971198341104305 -1.1129984197311475 1.0962710796741377 1.230147907061662
Ni 7.453176647435286 0.6365256904045273 4.031245139932654 -0.49005791896804635 0.096126348111628 -1.2323066052758778
Ni 3.031111167245592 5.49489713070155 4.812287276908964 -0.11315733545198575 0.8158827668542141 1.1035326463325577
Ni 8.980135914947962 7.693073635177723 2.8435844334204026 -0.749773791040283 -0.09838686201103056 1.2921220347716136
P 4.147805268691748 5.834987908803583 1.3679007030617492 -0.24900208519915823 -0.2844995067748197 -1.2692862678240204
Ni 3.7113572813042714 1.1371773864598402 7.611571188238763 0.4302286055152397 0.3547384455967245 1.0829609928287929
P 7.922207906301082 2.5675027681673 12.40292327515175 0.8847037422826699 -0.08360199039237215 -2.3460465311587404
Ni 8.210265053584923 3.011439466689902 4.520970880222226 0.7122763083154572 -0.8882999442743605 -1.0289372303141697
P 5.194620103794508 8.314424540727899 10.006977472088481 -0.03012458729952231 0.6933020812057995 0.6411745072726248
P 7.905136965031237 8.318842142493569 13.03321913258611 0.02314378510631498 0.4201712212792376 -1.3988521265410165
P 2.441310607499925 0.2836884250366625 0.9454820597367737 0.9710280167022116 -0.008464585827585424 -0.5924230489005345
Ni 2.186048850359561 2.7098343924879607 9.882241552170164 -0.059921616056296804 -0.5432992947906901 1.0314340285940948
Ni 6.599961595766682 3.233776717977564 2.5437371773740707 1.3512980309111373 0.8867683381211825 1.2246935688153102
Ni 8.871189924012954 6.253350474348721 9.917295544970036 -2.174004248445088 -0.7060262136406873 -0.4582140349845722
Ni 4.8926922403195015 5.282409563517723 3.2218694828217025 1.5512748352515282 -0.3589396281622657 1.006795661220124
Ni 1.834909456568022 7.869805373456529 4.341567369017501 -0.7165834203312432 2.054753912721487 3.0422390465384574
Ni 3.668970438475414 4.218911134272795 11.881085535722537 1.1585102881200178 0.3861634968752253 -0.7244119152367267
Ni 7.982338936597895 9.38542090365861 1.5976261396823521 -0.7514347236824737 -0.3422817078906105 1.110505735216281
Ni 4.110287932610854 3.472364103526419 2.0644993216939374 -0.4042494078426586 -0.1484992052863894 -1.3946545435199014
Ni 4.282804965238488 2.4872757999844826 4.031946976037806 0.7472512817287453 -0.18767536126521872 1.6884223629705242
Ni 7.441759129719419 5.616616354299301 2.6788530780591135 0.315777748062811 -0.6060205850793111 -0.19345365850989263
Ni 1.8450450397422853 5.590682541846135 11.696188151090233 -2.026146790507756 -1.4844428652286432 0.06967586722958322
Ni 6.571058122001312 7.075974325481356 11.494796234604275 0.5523374937335584 1.438660002566574 -1.6284367264455115
Ni 2.266211260687766 8.372545054981044 12.05938234084818 0.30893449988873245 0.3924796689012402 -0.7757442469621156
Ni 3.462459084118631 6.49426194266365 10.546916311696155 2.4789810492376536 0.5530108656514992 0.18524206923337774
Ni 1.504290237992803 5.906167554789902 7.464833029213223 1.0801762309948042 0.7167034908488753 -1.0616126090600038
Ni 7.239895940894783 6.372957733845556 0.22919790672290685 -1.4513339984898166 0.26253714357111557 1.5579471050653815
Ni 2.39570509449107 3.688171788947494 7.828972530413717 0.10308272482480312 -0.48719396715668994 -0.9566894885923523
Ni 6.246083104429414 7.628368219754036 2.9261797526124567 0.5727209424859169 0.6896326027740123 0.40987086779449416
Ni 2.2077771797122128 4.731325271438622 1.6313437848917303 0.07643812565408126 0.6935262814014637 -0.3288731477941884
Ni -0.11544051110908903 3.8675319541641215 10.995905123469768 0.48709909345003854 0.03526036586419089 0.48018231172554726
Ni 6.066086583217314 8.709269602092535 0.5580012050733649 2.9837708750992356 1.9651170289889448 -1.689377270684626
Ni 0.0779222527731285 3.2889644611211413 8.612674451000089 0.15304568700649127 0.2080647235548481 -1.1117545200217176
Ni 5.491955137041323 8.85446943966815 7.53077149966002 -0.8210509413187149 0.3822824166532642 0.36083375986118504
Ni -0.08029152603743082 7.602701861269983 7.5543526394400695 0.5758746576235502 0.6409441364293736 1.5586207340936384
Ni 2.475590828299504 6.601879886303758 13.495556664183589 0.31635187539872617 -0.24895400557004219 1.7547113160057457
P 6.479681090071739 8.128636257701935 5.223332670761235 -0.05486039948330552 1.4473410752803397 -1.5758008454173507
Ni 6.900192509920429 3.654094464262414 8.997303692999727 -0.33744057774822533 0.3362514425361306 1.7747191265862403
P 9.099936848008635 1.7343375416314055 2.596096364230527 -2.0907673547016183 0.6241265506514025 -0.6785148955942959
Ni 5.048581014108922 1.4118433901867833 10.301047722402002 0.25927492788007606 -0.761748961124288 -1.5489109630050422
P 5.425543549745718 4.930532365673462 10.473513108745946 -1.1538329372490064 -0.07041660205034969 -0.17521116735993697
P 1.010302757043698 5.725294891265196 3.9406049898007365 0.4286594612559069 -1.2159052810997186 -1.9791493387122947
P 6.1032719074744834 3.5541773504225884 4.587584441377264 -0.2942319035712352 0.1808989617733336 1.3804551120910677
Ni 6.993736841254871 0.06833172234281329 11.080213992574267 -0.6272974921802165 1.0442764317744015 1.5265642198787257
