# total energy = -340869.93444922625 ev
CRYSTAL
PRIMVEC
9.25077455345746 0.00000000000000 0.00000000000000
0.00000000000000 9.25077455345746 0.00000000000000
0.00000000000000 0.00000000000000 13.53944364160917
PRIMCOORD
 96 1
Ni 7.918579565597309 0.9579084306237282 5.733385706457989 -0.15762533595737369 -1.387855261209881 1.0015295277251786
Ni 7.674248114114109 2.3584479111705283 12.824249464055343 -0.8554803266411782 0.5816082176732177 0.6052849924648672
Ni 2.563759596549074 6.188953039197738 1.7206736270074212 -0.6605601108880882 -0.7237560268202826 0.8611652928410976
Ni 8.328795902284082 1.6519200220659764 8.397013887392085 0.7871656014251798 0.7765178919033465 0.1469675991332114
Ni 6.326660065806058 3.8925963252994826 11.428603643126696 -0.33432414360643065 -0.2622725770558193 -0.787757726483224
Ni 0.9572793779695992 8.069755719623451 1.9549605877280718 -0.7620310111410812 -0.4696482449634428 1.16710857131199
Ni 7.097009046981737 7.694988350151719 12.248173219255678 0.8442988561030621 -1.245759902567306 -1.2667509029966766
Ni 3.5418069628792583 6.983548299880364 11.332162470629244 -0.23936764743318775 -1.2749722624652042 -0.3168462985366414
Ni 2.430206167612872 7.847718634264531 3.972350951068726 -0.5025843335698311 -0.7800269334978696 -0.6189555479734243
Ni 2.104079369544239 3.473471492937323 6.042517907013379 1.0880543481913003 1.0589895696148601 -0.6079553402081788
Ni 8.756440697799961 8.403273886378102 8.055332837372676 0.19160426400597969 -0.8370959105967196 -0.1935012239183764
Ni 9.119949874917648 8.735237923046078 3.9962475513061713 -0.5856399645404301 0.11395849119704246 0.06897292762528767
Ni 3.9453812436003735 4.342322719130157 11.741391749695495 -0.7884123293480874 0.4561566382349112 0.18307411504778148
Ni 1.2176146690357896 0.060095805250276926 9.731908023170783 -0.4357446502374625 0.1565416159748917 1.2171026438419297
Ni 1.4300401998705894 3.79340027220792 1.739737622737263 0.7578971914783657 0.2885520795776385 -0.5433602299356125
Ni 3.9978331340255497 1.5451290832532372 6.755843265092255 1.9214229305351036 0.18722130444693563 -3.0597089211884465
Ni 8.637253721391149 6.987535383614623 5.533570831183613 0.15414894737299906 0.13287409715462278 2.262407773991162
Ni 8.933648530777855 4.368234138015681 10.793562962776752 1.5826404940470034 0.003941501146251277 1.5497229173833762
Ni 6.269222008019477 6.008007893392371 1.506493224283088 0.6608411324636168 0.19518581070965094 -0.5615178746812458
Ni 0.49299504058299853 1.9271675613447565 4.906775365989923 1.247577158281703 -1.75252407854644 -0.07099201493784549
Ni 6.763833158877127 1.458745352602392 2.3631880079348773 1.8310561106150722 -2.9847304107990276 -1.8564840637698738
Ni 1.6022156116154525 6.37491210468749 5.81961864948733 1.545745163682551 -0.20581886494346488 -0.3118383037990887
Ni 9.268720827619179 1.1740620235116754 11.729449925118798 -0.605126355399816 -1.5156629995851898 -0.2555380865454632
Ni 0.8136046768439467 6.900652111150205 9.497242705780222 1.2371212530557016 -0.6216289810405294 -0.5236180143116789
P 0.4390047463875039 3.3410004045971964 12.852628064453459 0.6397364892745177 -0.155480521700229 0.1494227455419233
P 3.642862421610232 2.702188183554776 10.044046725381937 0.07430128181673655 -2.002317806408958 1.8006039647728018
P 7.669465463787862 3.6691901253404 4.329209746523864 -0.8849693372392308 0.6431174899316086 1.004398107522225
P 1.065837214678495 2.3505847529939143 7.354720818449236 -1.749837275742896 -1.0013570067030562 1.8351734752175555
P 9.115120970719774 2.5432598806439257 2.212073834096716 -0.009336961130209728 -1.9750263176828569 0.17909070492000126
P 6.125603736617209 1.272804788661292 0.30391753906814617 1.9360864460845495 1.7970224180691308 -1.4005369704426074
P 2.8653718426553234 2.6093936662964095 4.187424978592896 0.22661574708415808 0.1961342906658493 -0.7423769843555795
P 3.982365839353434 4.468669794866851 1.7766593132249104 0.2899996106574425 1.248336662155547 -0.1934814264240345
Ni 6.30302433740459 8.446586011769755 0.7081828526313709 0.48375588800941843 -0.5923258612010379 1.7467743205468562
Ni 6.137120950652367 2.025105509128061 4.296389849372111 0.44408608022362234 1.3644371393962567 2.8186394605728036
Ni 2.758987937912903 0.6177306314322025 4.866536347829177 -1.4458158968850647 0.41383293776603564 1.8699458457017344
Ni 2.7438814234394795 1.5116505309695139 8.4086578370355 -2.893154143951927 0.8877067907750519 1.3963041633081825
Ni 1.6545379912000724 7.501952442303015 13.528489636669217 0.9070571702772054 0.7390713170211143 -2.5116769968087773
Ni 0.9422191173678026 2.548514320460769 10.043897787915297 0.4913720097937796 -0.017918017931001395 -1.8712738204845385
Ni 7.748337565686461 4.9587573170793675 12.893260240523036 0.16913153682476034 0.9462937471803251 0.9558117139730893
Ni 1.8072405229899098 5.105668864141487 13.029399260883196 -0.11254361312738682 -0.7476233203561834 1.4467119263367731
Ni 4.158787356513669 7.739225552975914 6.105030014517458 -1.5231909325311188 1.2823415583460818 0.5902378683237577
Ni 0.4524609227212713 4.414904294487464 8.37616264206257 1.1941244377792015 0.24125715114641674 0.32831110464313135
Ni 5.916388224473333 6.819624578833783 7.915144753090278 1.244545827654547 -0.49977951713118446 -0.7176445146059061
Ni 3.717710436677269 4.999007436169304 6.939600646292554 -0.09185857397420955 1.9969547423248317 -0.042950535419597
Ni 4.705600626889709 2.0372147727200463 11.858792401582066 0.6224962141368311 -0.38100226438925994 0.7026115315321835
Ni 6.5368376584797785 5.253449983990197 6.105828356341742 0.47479816459549845 -1.863417300554597 0.10420681112691732
Ni 3.6394766382071255 6.925481189439654 8.721649460639458 -1.6390566680532028 -0.7457042489565996 -0.2819433160118693
Ni 4.590067706339441 0.3578347521464698 3.6607672953170978 1.1331689811417518 -1.1735882654990628 -0.7630041736876279
Ni 5.394681555616504 5.539890960202745 9.911617265526274 -0.00537720515151332 -0.23816874202908014 0.1451184617396146
Ni 4.291156686336216 0.6147703836480657 0.6837487824056183 -0.39455712025555917 1.0997153294689963 -1.1714485934482406
Ni 2.0477514046767085 0.8235085558367498 0.4702658880654223 -1.4441410802858032 -0.8311754313472267 -0.20631508785359304
Ni 7.9118450018883975 6.138776839256618 10.02054235797589 -2.3236231691582176 2.1790168711683315 -1.2100256823904905
Ni 7.413293021168115 4.0810623506314245 8.85086982688163 -1.9178994907628777 -0.18686803487257495 -0.871009789735345
Ni 6.469047984223043 2.5084584676316664 6.895503130160671 -0.10806886518548484 0.198045134535317 -0.1873776275191418
Ni 8.644709845497443 0.5115400678731837 0.8342921834679009 0.06283776126182726 0.25470402067994197 0.1779643046250419
Ni 3.5869969954589735 0.4334182037723781 10.202566144067603 0.7167263736670108 -0.49383461240165916 0.9819382358568121
P 2.611197567289868 8.853268552664213 11.856883041761298 -1.3626059997247888 0.8125606444595167 1.7231229996765036
P 5.14139535458629 3.882679495222624 7.890340651891508 1.6064527659752528 -0.4487968554357303 1.115678537666472
P 6.537290946421725 8.287935232088667 3.154054281486922 -0.06996434500427952 -0.2500109860796469 -0.220383135910885
P 5.49611629609482 5.850837237603351 12.294816548481917 1.134531408706917 0.09756488033036746 -0.11460486653178972
P 8.464282743054298 7.502905272058534 0.5942688175880524 -0.24850714784061068 0.1685548383856839 -1.2093309703163106
P 7.784887375046226 2.5968958701827565 10.439276807661516 0.25632330145091986 -1.7530048748376004 -0.14520922168120798
P 1.8460567720594052 5.581648955507726 11.033874952815554 -0.1449629099983568 -0.15729700608367747 -1.1867929371147947
P 0.7139229581002989 6.298648721148663 3.7094013911781696 0.264267495998661 0.21577417638396387 -0.9385953500948028
Ni 6.411720935728367 7.457789245673423 5.602133870173954 -0.14952558966837473 2.01612617304696 -1.2621648262878908
Ni 5.2793336505527435 1.5706519696170926 8.84833788994876 -0.04027684524217579 1.1192107191894467 1.012072079127715
Ni 7.340193402448583 3.674962608519467 2.1411407467242003 0.17247011427969008 1.3947249917465205 0.004737257574669261
Ni 5.64551630145048 4.874704781558529 3.5075013913708415 -0.9148000474474179 -1.117877345090004 0.15834627328379824
Ni 3.134486118556345 4.54183416900666 9.411293761522673 -1.0676667856738837 1.941643628457353 -0.9649175329290993
Ni 1.3560525068158173 0.9684635641290414 2.8311106748636687 0.14644000876451554 1.1952289836972898 -0.4060841470585523
Ni 9.358823369548844 6.775859165500183 11.78508315683449 -0.37793905208290396 0.2611957990518728 0.9842419442893243
Ni 4.765721409230665 2.5445272367265095 2.4360165789666732 -1.6033766981530904 0.3227968596931215 0.2908740428425958
Ni 0.5692547238120955 4.056853074221779 4.280468341680616 -0.2929196125177149 1.8583090327937546 -1.692872171211762
Ni 2.152118640616185 1.948823624040583 11.949263124329885 1.5321998208979482 0.44039320475306737 -0.24886761650382297
Ni 7.738707509613691 5.932697339609062 3.7350991171767753 0.05625316606577409 -0.1604286097341237 -0.9398027401393428
Ni 4.998729912939541 8.665385326114773 12.084210644956928 -0.9925923731365486 0.752745214963781 0.7360680114184162
Ni 5.721622421825775 3.662881097250458 0.37866934608219843 -0.2855086647656244 0.35305591568797906 -0.6422078336331456
Ni 6.629983705162512 0.5656681986061272 10.880012373925307 1.4637727384738017 0.5753192993407125 -0.7017885214102558
Ni 4.2288527212544595 6.820336888456841 0.23224623990446136 0.48566030412098293 0.4935911289322854 0.08883984175254377
Ni 8.954064989714075 5.6288556568903845 1.4524168978863667 0.5533975595669566 -0.027083743590669486 0.5948913079353689
Ni 5.259703507434186 7.9793108990437425 9.763739012547147 2.1134910215513796 1.6486548532645993 1.1635190541885188
Ni 1.9483795868729625 8.44139632737319 7.64958277453022 1.1804569675944379 -0.8452249674617572 -0.0538700105455782
Ni 2.79254049639123 4.846360409025419 3.730455228465411 0.8330927029745974 0.06632006338347288 0.6743849325863225
Ni 3.33437685018019 2.977195202701095 0.35534444369806467 -0.09984030662810547 -0.02442213759810633 -0.42448630371482376
Ni 8.746755137081237 3.477800855321623 6.389818802435484 -1.5270352459778735 0.3298301123908191 -0.10447857673106523
Ni 6.678319001012872 9.288054945959322 7.843007214900592 -1.323085058812031 -0.7535751670642442 -0.45697219215767104
Ni 4.687422855340243 3.5933522774205424 5.426500518986246 -0.5847025403278252 -0.37681959376648 -0.5836316758611497
Ni 4.5029716660655374 7.052956859644049 3.07838202242749 1.054856521283093 0.15250421268072445 -0.2564518566089842
P 4.468484779380343 5.951818690139722 5.049969026850653 0.7064658722812671 -0.7478117822179056 -0.4501173740193667
P 8.241681360461527 5.978118641546914 7.6603330993738 -1.1405333919266227 0.4437659778800422 -0.22215745420248836
P 2.0067057189947852 5.834074834525676 7.840718573332481 -1.072050516563876 0.714963368229317 0.4596227424066407
P 5.744064800339263 0.5158361274699125 5.888548019140957 0.07520142503350274 -0.6452232234207016 -0.9228167471043074
P 4.097667490545567 8.96704382609265 8.06275195838167 0.8029483181807332 -0.24259643878313059 0.49289795952000265
P 3.2905004275546856 8.617540321303661 1.8844197331869543 -2.0098845630126223 -2.226313856482082 1.8076549580823127
P 0.7504496405242508 8.783628723542392 6.017768385383129 -1.1779087472512875 0.4901088268106399 -1.6254339350634457
P 8.533034497840879 8.54679039926279 10.423570843011804 -0.4426817436769279 -0.5606521842468408 0.3163739868859132
