# total energy = -381169.0009786209 ev
CRYSTAL
PRIMVEC
9.25394080333913 0.00000000000000 0.00000000000000
0.00000000000000 9.25394080333913 0.00000000000000
0.00000000000000 0.00000000000000 13.54407776835417
PRIMCOORD
 96 1
Ni 8.180844678604842 6.594237999673078 0.820202694937494 -0.7786876458611558 -0.8244401695059221 -1.0961870046007638
Ni 4.844401056820932 -0.14825183514428777 2.107188050884113 -0.0069391503219945 0.21581094315917027 0.08553057487365269
Ni 8.234961725115777 8.713751374470993 12.400862908153115 0.7147239985250013 -2.5692655938565236 -0.1424206031924773
Ni 2.2178179892106495 9.323530557574893 2.0163337843075544 0.8069633528773973 -0.09539949724793248 1.1404295193589071
Ni -0.0575881997507189 6.033282608872822 12.35693907756759 1.6307813154182882 0.150267867151038 -0.8608634453299625
Ni 0.5045498446993495 4.96561842895615 1.9538826386024073 1.1978736204089886 -3.0159523449277863 -1.64375355930824
Ni 7.190339858094494 6.373725841446491 8.070997623680293 -0.5746901503971458 -0.5714675296947901 0.39107893189897164
Ni 8.017679192270913 8.002928410441497 6.590791832073784 1.1572147092370457 -0.21328020631751657 -1.1905904564840142
Ni 1.847623336573257 6.879796108639299 10.439870466740459 -0.8932182075115843 0.7334020345504788 0.6176316869556782
Ni 2.9453813323677616 3.973410883316182 0.2738083801777565 -0.049220941809341036 -0.031140430158546364 -1.0788891367522644
Ni 8.09857714380966 3.8711548361298207 12.205490005834806 -2.0013161046173207 0.26235690923950944 -1.2971184595449403
Ni 4.842281904349831 4.1734625781645756 4.638833087789028 -1.2876930524659824 -0.07415909981191744 -1.254387496335317
Ni 6.526073470842785 2.2619963031715264 11.123317497340867 1.7431153836380304 -1.802292665329135 1.16461280147333
Ni 7.355837337540727 1.3819002517996826 6.077403548399983 0.7103490093857572 -0.1020257443151985 -0.3232905115000884
Ni 8.317849273952723 3.288165811994656 8.013502888732885 -0.3992121025290673 -0.7711435149653106 0.6542100003003443
Ni 0.4529202575082051 0.8126838679384969 4.685235123753423 1.3630299746360848 1.4157838692993487 1.7737428787159
Ni 7.611320138510958 5.351951954561236 2.8356693849806716 -0.9406059527669284 -1.1131727405254828 1.0197643055656502
Ni 0.6681585948034352 9.009174184459898 10.251106729028528 -0.511535629225848 0.6504047676216412 1.1074558926463638
Ni 4.904477641285535 5.952412419156839 3.2880418091863035 1.1234473829786138 0.5872078232481823 0.5998463379477992
Ni 4.419228741166873 5.2869522735262136 6.74133494299032 0.8857733211977649 -0.9433050968656465 0.09418362256296037
Ni 0.13182701540210925 4.6093231955833645 4.3633469681221415 1.2303469104463456 0.44587659646514183 0.16183603160461163
Ni 3.758765723634042 7.144597628117825 13.096730578258825 -0.3887705954807692 -0.3868756924509015 -0.19368351513251159
Ni 8.633103279337137 2.861142708156228 1.294667977699933 -0.12647873515124025 0.07691377973891915 1.2768136865493172
Ni 3.2551384968446 -0.3337942760213248 11.20387768003597 -0.5023220810473801 -0.499660475054817 -0.22646842287301644
P 9.345925094605752 0.8975276998863189 2.6305983525762704 -0.5596736223836555 0.6774877398813622 -1.4666462033668546
Ni 4.914407119894673 0.2563452682641472 9.822165283237 0.3735699764809308 0.882612664081596 -1.6236699011844875
P 1.1308223267082482 1.6143314859336042 11.84011110405314 -0.4421284422766192 -1.4672768949723183 -1.322129379766981
Ni 3.8736348922968746 3.0263070457292756 7.851163779323276 -2.362636831417254 1.0587388870566348 1.5274396805051438
P 1.2964863770910753 6.50986982028864 0.6670212854641406 0.8425399644304264 0.7285513913263968 -1.1350600275168774
P 3.9654895098870844 6.891548613610039 10.324854160416967 0.24599646560361504 0.14850511882366035 0.1147583613905185
P 0.7850812129568246 8.941361305384635 6.884075130921558 0.8575747472763617 -0.061955358656873946 0.42117960793909404
Ni 6.423891455183799 6.442029179390611 5.625342982003417 0.7502964963129723 -0.19867993990583846 -0.12549477397141615
Ni 1.4793997733522168 8.448052222723048 12.63903528723495 -0.057844421812293934 -0.20422426676283537 0.5798043316952595
Ni 2.4327315131795233 5.368618302161474 12.118956404274655 -0.5925186939381344 -0.013543028791757323 -0.25178530437125024
Ni 6.913869119113523 6.415525892590454 12.067502641961024 0.827283552491988 1.1705070554705777 0.7370301182213693
Ni 3.1586013851479375 2.3597456811289503 12.15069001848384 1.0735373855220478 -0.7421468706226444 -0.18464583041027555
Ni 5.78096465569786 8.770820428135998 6.51288660502916 0.9627079268722903 -0.6635970979421991 0.545098552782958
Ni 4.060795847441142 0.4239147050827815 5.495090061952113 -0.9939776835198494 -0.13369607883528586 -1.9785381874908572
Ni 0.45214200107667807 7.22918790208439 8.391395894823159 -0.36867433895152635 0.4496448052583224 0.6912459700077191
Ni 0.8296352369191282 3.500701073146616 12.777984135570508 1.5399941201313867 0.7573310345622506 0.9075505649738563
Ni 2.6743334027669907 5.24047898221672 9.049462141657232 -0.09083373225412099 0.48440329178543023 -0.7203017497230949
Ni 2.3611060104444612 6.789005694255101 6.943737138832862 -0.7249029959405322 0.9327707729932259 -0.29172070711360726
Ni 5.901099316745221 3.389052275924585 2.366949874136605 -0.31337093839353125 0.11114004791164085 0.3844210602628218
Ni 5.012508147607126 5.30170305535563 0.987138236802982 -0.2549464757080513 1.4556089717160867 -0.6928873622658841
Ni 5.411371509220387 3.5192829865176765 12.872047668858762 -0.7476426036298931 -2.8581609157061934 1.3679212412901152
Ni 5.347139905281877 2.749003452065339 6.247409547863339 0.1188484722994921 -1.0669409632514528 1.3901682256137737
Ni 7.956473627013846 8.849340116857832 4.0102119555741655 -0.13194387203086955 -0.7776640896926478 -0.5886065033679218
Ni 6.027249039391781 8.984549447666875 11.587039880087142 -2.044006958617628 -0.6765680562805703 5.241221305085122
Ni 4.479656975386505 7.344862163607422 7.85545668251692 -0.12082385085830803 0.7508819365027972 1.0946168319001663
Ni 5.767666742593172 8.351237492798731 4.182641562164952 -0.6565229647042371 0.4070765928788086 -0.42833061716157844
Ni 1.7943854144498963 3.421098673336926 10.469477525325802 1.4339607973186916 -1.689583216047845 0.06420918768805715
Ni 4.013101035929965 0.692450189723272 7.763356835492281 -0.001219988450030157 0.7185670264201753 -0.888968688206611
Ni 4.24218234345018 7.11860330806837 5.447875529974779 -1.671833862484224 0.7865487937767873 -1.0567557951883348
Ni 1.2530113626402584 1.423709556884568 0.5246484789874994 -0.22777171506547222 -0.42804985269636603 -2.325607032357466
Ni 6.904217258732041 1.1977375735140923 2.247057666341396 0.6625619718094654 -0.4897784400544145 -0.24331300523418095
Ni 9.038342606245546 5.30667242163066 7.235260338117302 1.2109014001272242 -0.1603882434144915 -1.4671817641553506
P 5.7902833742061555 7.4984313132054 0.15866066789317634 0.0815384229951241 0.017449305824698984 0.15102685680424957
Ni 1.0113817112300254 7.7818425078777524 4.877507030468824 1.0086555972469984 0.8834765547437882 1.3082541644467858
P 8.374844296090352 6.9016076473920815 10.229774544415495 -0.4065410320903127 0.17125038293997602 0.017324607321376615
Ni 6.986151651654036 4.7927177967724415 10.304334471816873 0.3813473064335045 -0.09215939304407998 -0.6054788536432282
P 8.546967597236623 6.621500109628827 4.697438295647057 -2.0851124704086863 -0.7370357746483243 0.41903633634384607
P 6.2348889657960855 0.870177677491813 8.074518748201054 0.20841747890857654 -0.23168390563568486 0.28135221939508964
P 6.0240934455374315 1.585718300603267 0.2314021959034126 -0.3071771508779935 -0.2436001974572966 0.03868533238533982
Ni 7.03754803953395 4.430129883572803 0.5234112270862491 1.7447326075264789 0.8733628633485538 1.018998116823587
Ni 5.759005053890328 1.7542140569081777 4.3712017131766014 1.4776780357009842 -0.8086435687932976 -1.6284120438551635
Ni 3.7574331561412966 1.795227523073784 3.441929294351994 -1.4889152991777002 0.3343364849016049 0.8563161922789123
Ni 1.6421395784037414 1.5231709139125322 8.647379333997263 -0.6839288675210156 1.2306125054029065 -0.9625796288245423
Ni 6.57957975725288 7.302488368126305 2.2265648141699756 -0.784746707571042 1.3027990548694852 -0.4630070854978413
Ni 6.076202386868328 7.397766943857596 9.837050247209785 -0.11430738989602895 -0.3829609307775275 0.493578273416479
Ni 7.1640679198173824 4.203389823105815 5.335567852159114 0.3981463802687143 0.13849298600329696 0.3766429589792997
Ni 1.7109333752167195 2.69296158584266 2.2337838134831047 -0.28333248304991204 1.16456163652042 2.2993712385893885
Ni 5.022909577203277 5.3048864110327445 11.812684273948983 -2.2234193085431064 1.719375359708613 -1.690206965674773
Ni 0.290665358960985 6.9210224154461075 2.743298397487023 0.04936415225542466 2.055107439406164 1.3916710354115451
Ni 0.251573010930753 4.866036770696201 10.051426117211099 -1.3984142676726496 1.7890532838207251 -0.7141300736947443
Ni 8.395304759468544 0.6658525127257119 8.065538723930498 1.2632668011028179 0.33456634152422376 0.8493739566331242
Ni 2.489578472262403 2.0855236497919876 5.892039708582737 -0.07413647410409814 0.41719491225973304 0.09835189500803707
Ni 2.270213802710123 5.937337749395157 4.12505243702014 0.9080573294069457 0.11288094186214753 0.46230697410702315
Ni 2.313947927506751 4.509630490032353 6.493843845400192 -0.9801796012944926 -0.32351985390207505 -1.1456647996159173
Ni 9.332506880269081 8.502215538938593 1.050648033349588 -0.003777721874877365 1.7610735107783477 0.1845761535146047
Ni 3.1571392624822865 4.767482299878576 2.2081448447650476 -0.5102943006195793 -0.6149731662869086 2.4980002706526334
Ni 7.56090466836876 0.10786208459681339 10.278452124452572 1.213016389587698 0.3365463480687301 -2.5534641080478924
Ni 4.125499402366666 0.22315878533023517 13.389634465528804 0.5513543038846828 0.026496246518315655 -0.002778848296717795
Ni 3.786046341471634 2.110240925994229 1.224689676448959 1.1494939435540201 -0.10466472459994233 -1.0154880467877994
Ni 8.287468585906314 1.5570773534501636 12.931086886546025 -0.6582669439785372 0.9836824722414284 -0.29048477782397714
Ni 4.96125056884104 5.278716266105772 8.996924742861655 0.931575467133544 -0.9694110499240789 1.0216388968805439
Ni 2.467748425627776 8.692615373405506 8.810016420304555 0.49755551289667216 -1.658671614070653 -0.34633659468627453
Ni 0.13960957971737892 2.877438898119593 5.957511340604775 0.7072068642123498 0.12259611226738241 0.8395446292475284
Ni 8.802311589093028 2.159434875934745 10.124753419681687 0.5697672591742315 0.18532768696864857 0.6271941338331327
P 4.782880857572523 3.233734131492378 10.762205587718263 -1.9208567736189888 1.2467304940106918 -0.7009961074159475
Ni 3.3357218143920058 7.16822293929129 2.144014108782586 -1.005734052724829 -0.15331976660348434 -0.9468051395991048
P 3.061620084287027 8.421021461290346 3.9148750800150665 0.21131536928166186 0.033498388867761665 0.28024973035953027
Ni 8.121850805228096 2.641796546485792 4.048094813525913 -0.25177707684113415 -1.6411019806180058 -2.152995250293589
P 6.373790619032943 4.306349169802236 7.3338879150682095 0.5599998953748226 1.5299069110987136 0.7448352160880849
P 1.3723686926501846 3.795577900621132 8.239837626587496 -1.430434015112356 -1.453668303049948 0.3542136834415061
P 2.5043200001508974 3.7814934025380875 4.353188917172235 -0.12052586000191502 -0.974078116382445 -0.7695170351054811
Ni 6.019521998722041 2.82951273808537 8.889872378095504 0.1799617946710449 0.20654623002779268 0.3212968781088273
