# total energy = -340893.23694963683 ev
CRYSTAL
PRIMVEC
9.06227533558110 0.00000000000000 0.00000000000000
0.00000000000000 9.06227533558110 0.00000000000000
0.00000000000000 0.00000000000000 13.26355598245675
PRIMCOORD
 96 1
Ni 6.394332215605658 1.7661014738375604 11.747425339637912 0.7771550112667132 0.039336592816093544 -1.027623910819385
Ni 4.620355624746445 0.2553776296953824 5.896724504862781 -0.52875096466287 -0.5575321505606204 0.6646633344231844
Ni 2.6014801128364264 1.3636005273281047 4.656715284716843 0.026266647006012826 1.271495102549881 0.6571012058052103
Ni 3.515401489725587 4.455594401995383 4.857909571866238 -1.017372408294706 0.09316289460792987 0.6219274861175548
Ni 5.0952550866597965 4.717349154646044 3.04356145187036 0.44200425799392906 -0.8154284529256149 -1.9792532112800107
Ni 7.238637195532404 5.965505360065245 2.698297834599984 0.3499929604919392 0.7109383062303241 -0.60371481976427
Ni 5.252431185190924 4.78037727764443 11.583208759617577 -0.3153933681401987 -0.4639349966287494 -0.39630624173618195
Ni 5.40402492228898 7.862982635356089 12.530491995889376 1.420047272561393 1.003253966615453 -0.10308143927322247
Ni 1.9801252237804583 6.528861688777624 0.22656050125216687 0.2769831437931165 -0.3656401801108929 0.701920933223062
Ni 2.7618008208111817 1.5776967754714322 0.43774413419323965 0.006031036685428323 0.23237861770986432 -0.028802526053989107
Ni 0.4312927005825207 9.037362859563235 4.535340610012808 0.8400369955029144 0.9663074712980906 0.6562424573493408
Ni 8.399088702982034 2.6595058600051766 1.3696341900588487 0.3772343127063955 0.6701870924548909 0.02379067466169451
Ni 6.908045401573946 0.6708031928864047 5.072726270876334 0.12490110625147521 0.264867334366189 -0.49618254380854543
Ni 0.7612465103771998 7.62658412830564 2.2770343538193774 -0.2202836342185432 -1.0657826812772937 0.37016917832949797
Ni 7.64089346061541 3.7329323401142616 3.704139679813691 -0.1970496033912671 1.0388832857832881 0.10517303169492853
Ni 7.572618280360942 3.9180111835356866 12.563982539577779 0.05498278399378272 -0.08535496852773687 -0.35106742450304057
Ni 7.945304341943771 8.587176221721284 7.282249394228267 -0.030247486030631775 0.11484423623610546 -0.1716404192895431
Ni 7.164761529294759 0.5296972267079789 0.6553918879301065 -0.5398907833297735 0.46763789940163336 0.07701688097568672
Ni 1.6121515452255457 6.489912030596882 9.170436025134073 2.09798829793009 0.6587665093227751 0.39558273330659616
Ni 9.556803403365452 5.0546470321442305 1.3938667135524045 -1.2432199097542718 -0.1357593891222178 0.8752351406706023
Ni 6.456472235648782 2.1505141193398587 7.1576113942774 -0.2887816790899414 -1.0433567481736095 -0.736567576762654
Ni 3.3609712605357274 3.998801365639296 0.0748589230809717 -0.9873727766088222 1.2908614228916349 0.6220709536739545
Ni 5.968894650935324 5.651425031254602 4.895551543756733 0.6486013958643151 0.8691246568974903 1.3469397539424417
Ni 5.362773446244602 2.6967064991005567 9.348260517375023 0.207302648577843 -0.010021903012376288 0.13254191062618464
P 0.28751789440078457 5.548296341143658 12.521539374363842 -0.6568363821795978 0.2296033689575723 -0.7759460785602766
P 4.109243311718565 6.065126949730414 12.875305218089586 -0.7085888321615409 0.24579334845387346 -0.5336368320002616
P 2.4211136524429175 8.546486606730234 1.241947640779921 0.8081812844448986 -0.05749218067919776 0.9922761274477105
P 6.374630829638945 7.746260532664616 6.059482058599473 -0.8437398982757985 -0.1614259406503865 -1.53725769503683
P 4.526524828840582 0.9623048634007895 12.580455943170369 0.6161106223254615 0.6915812418599508 0.9903326305680944
P 3.881762083320943 6.109668031619279 8.252570746141549 0.09842645699971436 -0.2751219222146617 0.6254223866446906
P 4.842281678536157 0.9406641505725878 3.8505162651633404 -0.3203573970136934 0.8209041313282056 -0.7659653131984808
P 0.20728232353046105 5.778586874807922 3.563545732175798 0.060432237144128174 -0.30095996632368816 -0.2679197480392676
Ni 1.0731999232327427 1.0494023889417639 2.2499100583561904 0.5751118113155966 0.344254258235949 0.395984339620389
Ni 1.7806645498488334 6.500569266060017 4.951523779398318 0.5936810896773517 -0.13285172855711957 -1.4234177316955228
Ni 6.027654442383422 5.684774203452166 9.332954334809347 0.15934720374448685 -0.4002431148967429 -0.0035895171234712375
Ni 8.576437425782666 2.3812668290318606 10.283221778256326 -0.07960006832183066 -0.3239533418950679 0.7546113216382424
Ni 2.2091923503124744 5.136542811804389 7.0529484609998665 -0.36168659477978354 -0.3747326293304643 -0.2958804949182517
Ni 0.4449432054958877 0.13446784970160086 9.415479942585737 0.7254573257821054 -0.10626755031068796 -0.2645824561359185
Ni 1.6537926990972318 1.308211902199977 11.528311309797358 -0.1592019364158742 0.9254109901940449 -1.3266666055157021
Ni 4.165284420650559 7.032624496736965 1.5837612499373588 0.22703895066450577 -0.23060712763173832 0.21375071819603184
Ni 5.592112441028228 7.778069118103053 8.000881462393016 -0.9225588654572305 0.7788239143287039 1.1686954561831355
Ni 5.214976802394039 2.861186791324954 4.810665213328858 0.7029979683373248 -0.3470827288236797 0.5517325131597078
Ni 0.8840938047774594 7.413901595070689 7.0008231611185705 -0.3898502016981931 -0.39037033586772124 0.44777509903943524
Ni 5.308263861796681 4.358229318818583 7.238890939233908 -0.7656033018733718 0.6557935427373803 0.07294168246504856
Ni 8.218994110840137 7.1294458434105445 9.369123687003619 0.11607553754004525 -0.17453136768409297 -0.9363014118543035
Ni 4.592942242709046 0.5848783257373772 10.49850246574917 0.027233381794656324 -1.1703792716434618 -1.2290991540821736
Ni 8.120840609733666 7.167190219009146 4.97981529588842 0.20820870533188016 -0.313234412815667 0.08154896451808537
Ni 7.2258412631566005 6.050301067742584 7.231462592372402 0.4739540714276482 -0.314302191958549 -0.5726507513696137
Ni 2.6990264415143006 5.063038698843943 2.509278713985216 -0.37647763704602905 0.5956179016887484 0.05100168785884765
Ni 2.6901363496866346 5.305409245154771 11.290880609618297 -0.714881350038472 0.12249223969966644 -0.0607202006981922
Ni 1.148652425329731 3.2885093092064555 3.6177009816691195 -0.3656754042242025 0.3393755899874091 -0.00966426256264142
Ni 3.769018319378038 2.747863041778613 2.768223255141729 -0.8891232115066041 -0.4646703321328772 -0.487337948933722
Ni 1.0708346694437307 3.0825237972361768 8.289948099600474 -1.308137179252947 1.5760127043178405 -0.9521818305299861
Ni 3.6094044688574702 2.690852269415876 6.7829162263151686 -0.8351588414750067 0.08012765869052653 -0.11559628391078156
Ni 4.06376881549917 6.707914119288349 6.169184523034361 0.09947263887604159 0.6314302834016674 -0.5082474453928796
Ni 0.7414581265699716 7.308344215245356 11.274234116572181 1.2189710645092362 -0.1693642216608567 0.5230873386191894
P 0.1944456109169151 5.424342542959343 8.074149956202065 -0.5725648765240269 0.049582953134450096 -0.6539626601762285
P 8.519752895321862 1.4925838881672149 7.8207759955210525 -0.1809987205759915 1.2233406543318415 0.8334732262424678
P 1.869656090876028 3.4078322848383364 10.478753049724673 -0.30764046366765724 -0.9686993685690348 -0.2893506642195339
P 3.947463577460166 6.415229821879458 3.860211993243279 -0.16483959431762582 -0.6929305567989937 0.11831085462846723
P 6.837758396257559 3.9350391983615625 10.414398209658428 1.1936505834665765 -0.3986467169439005 -0.10544608285065711
P 6.348449917008847 7.908547754326022 10.214874099801428 -0.538950273793375 -0.5107259888403591 0.5520287042438881
P 2.217719951137993 8.498701230372149 5.676416973397657 1.066917051992053 0.320136539252139 0.38812267748412516
P 6.725920859820023 4.116701564087748 1.5016334760358256 0.046453149256216776 0.09650018651127897 0.5489711483644868
Ni 5.328753665693065 2.936874912573338 0.26401216536653427 0.26204760552920675 -0.5749997112177646 0.27048750876644384
Ni 1.4385364797470328 0.9190415622944934 7.114810269198841 -0.2792580558702223 0.4866360377706909 -1.0407275380808785
Ni 6.964222444631744 0.7238383451830901 9.265773877381363 -0.5382198233852538 0.08105505560080234 0.013068403148183945
Ni 2.6318749833664885 1.7412255288151928 9.094872963281428 1.3889050426306337 -2.035506891566417 1.164387572836401
Ni 6.173294264771208 2.158769851913767 2.4552303993375286 0.44117276323156923 -0.5211507837181089 0.5308878085002147
Ni 4.287770130276176 7.000036555643911 10.302837978837534 -0.7110892299858914 0.7659871675753518 -0.08510891395520181
Ni 8.132938746930336 7.288987195730683 0.26595964827557134 1.1941820304900144 0.22257860090030698 0.9874311406505832
Ni 7.7093408240959 3.8527537408740957 8.302813811494193 0.011083254397355104 -0.03015466920650936 0.230036599840249
Ni 3.0835206474920818 8.172504639814727 12.30649702470491 -0.10842547719395519 0.7955173158239848 -0.27487278231833306
Ni 9.242704950004702 4.745668764188813 10.242767782416673 -0.6772483701770465 0.4335152466863115 0.8698736192483728
Ni 8.667495165522102 2.472388004696672 5.620219087107236 0.2700877022248639 -0.7707447368649951 0.48565233370118294
Ni 3.7799746099179448 2.8558762981434946 11.276847676697663 0.3406207752484198 -0.8124027787254137 0.16590351680576587
Ni 0.8918239253982534 3.3645327346318257 12.749486403699223 0.5265125622506546 0.3010268150058816 -0.8685677559527557
Ni 3.0950478613603702 8.358145344289483 8.077174037387481 0.15814032792057928 -0.16039055740733668 0.2302001220013068
Ni 5.681393974857142 7.913595441530924 3.643524840662103 -1.5284789204029354 -0.38498747428925306 0.9223734889193019
Ni 3.171098473610902 8.458165674057012 3.5161155969998172 -0.4993059199288755 -0.7939998507381939 -0.06428117857657316
Ni 3.4533339678828927 4.046867672524046 8.970633703432924 -0.16957762322324343 1.122888939371982 0.3588640377293239
Ni 7.44198558546206 6.336469589387875 11.558936362113785 -0.5502520719594395 -0.9786662499737596 -1.415288417720169
Ni 0.8076199842819209 -0.005868729324766935 -0.06446449359439406 -1.0117632896380446 -1.015626886358509 0.38635067318536687
Ni 4.523362094846846 0.39291215327515056 1.67439125029426 0.7530185232298257 0.1245079845781146 -0.5228186583388351
Ni 6.215361345570416 5.814083806193209 0.2717585980824249 -0.5136444480387348 0.09211182763559621 1.5486271132160363
Ni 8.00920244334731 -0.30104062123589453 11.406936635093324 -0.5635073943074489 1.3036272071977357 0.38659801330948257
Ni -0.1131370666802352 4.98730526622029 5.6907417115750185 0.5018171163865035 -0.670479169774013 0.2534305532841571
Ni 7.7788303492075626 8.565453948417598 3.089917707452479 0.8490595107164991 1.3125031695311267 -1.4604740131178717
P 8.376306143497068 1.744188892757748 3.310914878049188 -0.4356744591211594 -1.8780237376138624 1.8419079657279118
P 1.8172036428652947 3.30516577075513 1.5068723772443615 0.6616898536171573 -1.129057015855907 0.20941378138357483
P 4.481358449973012 1.1144513992771206 7.965335594722439 0.8235598237834978 -0.17680216599614065 0.6085119840425972
P 8.487300888354612 1.6135108864835985 12.662106135176572 0.37117859343061876 0.7081172918417611 -1.676012419341946
P 6.456408799723406 7.855995621289698 1.5808169167724162 -1.1692690692984187 -1.625872308152445 -0.8459371630374335
P 1.6639061980571452 3.2861984290677655 5.807726620243048 0.8792008101865696 -0.11279918078161864 0.2304729160467192
P 6.943134530581817 3.9531274993687195 5.909895615425808 0.24258126927447898 -0.09412705829341209 0.018709660594361327
P 2.4814774665755186 8.732091062104773 10.290583064282435 -0.7555592873738084 -0.581702834269553 -1.009882527675564
