# total energy = -340869.219880735 ev
CRYSTAL
PRIMVEC
9.24501568539659 0.00000000000000 0.00000000000000

0.00000000000000 9.24501568539659 0.00000000000000

0.00000000000000 0.00000000000000 13.53101495608350

PRIMCOORD
 96 1
Ni 4.041181314821626 3.800542798067663 9.970869746047347 0.4312117953641154 -0.033546982717509964 -0.32430095504247375
Ni 8.16441214503729 5.7753336471109185 7.346840265098891 -0.004560365677172791 -0.13055290522061389 0.2302733984414034
Ni 4.225342029937033 6.473119706085095 0.8607701408544752 1.7480889255932215 -2.659417212441955 -0.49396265333909123
Ni 1.2553899430841493 2.796164279486447 7.814283056935195 1.292828831030651 0.08015594082530066 0.22489207952483206
Ni 7.296841370546324 0.24833406792173687 3.1454465241395164 1.8670888358689133 -0.5149423409145519 1.2879216235370206
Ni 2.9726701215036835 5.054240903256927 2.1880594964649314 -1.7234212476432125 -0.25027709525683994 -0.542411235758782
Ni 1.1990508166828797 5.001655253278191 6.006702186503124 -0.37374378305463374 -0.14167909704076245 0.6419874900922234
Ni 6.545831755501896 8.425676292083546 8.58871676856034 0.3946337391297655 0.8470851605989477 1.8176146403981857
Ni 4.158972061372098 0.36711403116484687 11.764311289285768 0.4045538264569549 -0.2983739507640668 0.09072394614913408
Ni 5.178105625200512 2.5405303470739904 11.948860295065575 -0.6717240979247076 -0.018336850635974875 -0.6432645570324341
Ni 5.0203486752643025 6.147297613574438 3.173239815196316 1.331506964327139 -1.1602041308826727 -0.3380391305641727
Ni 4.2665470654425235 8.04010366233439 8.578853261183 -2.616883452844803 1.2725711092228795 0.31513934314786374
Ni 3.662579427000032 8.493090947436032 0.5448374417654519 -0.6633695553124253 3.2641897840467777 -0.2004236620698226
Ni 1.484111634447361 0.4489962117725602 8.952579327661628 -1.2952454108919436 -0.43244849598469387 0.544982596030384
Ni 7.279442250774878 8.564342284353424 6.506835354275576 -0.4989673056425342 -0.2809344151313807 -0.3046492422498173
Ni 1.3062282850730862 6.9820948069868844 1.3175423354324354 0.8938630401844349 -0.30733835904620616 0.36974803163167935
Ni 4.500556905854229 0.6848541308464937 2.405760204470258 -0.16564100717299862 0.4657581658804172 0.8058945452932508
Ni 9.092768898538486 4.47088040507509 13.082448079235366 -1.0651864424541913 0.3557447753740518 -0.8023682773075472
Ni 0.521856181442466 5.317196888198068 10.933181593648737 -0.1598107736444667 -0.7297621238050463 -1.2191759814311907
Ni 0.5186490854548388 3.5783295978410603 1.505027558236372 1.0406185233068401 0.6087420977755322 0.8972139589345387
Ni 2.750771251814928 4.956521086049604 8.02363459115434 -0.4461475907383413 -0.355057262388724 0.05032137396237141
Ni 1.837225013655844 1.8829046368177524 5.140784420840603 -1.2859447023163078 0.604298717292198 0.25657809777420326
Ni 3.9071563204929083 4.952712139532157 5.838578800329017 0.790578997982103 0.007319673589864813 0.25908235225329573
Ni 7.31607100344994 7.382080416397932 12.167197060159252 2.2261145959870823 -0.04013363479609217 -1.442571164695522
P 5.431409813626569 3.184168348396011 5.335360570777748 1.997687249615482 2.5845394892964584 0.9435550080929234
P 1.8562789912588986 5.003448786347086 0.11820769676391102 -0.34582854470160446 -0.10783026681211752 2.5258142075411083
P 3.3915895233121396 6.73865505043975 6.933914407045923 -0.876421961889852 1.1407830460435837 -0.5332539947395462
P 8.824857585118336 8.43338663527663 8.260346749689953 0.0060690890122153535 -1.3895820140930004 1.254799129951439
P 5.4943036562435426 5.6186860990729945 9.535685587908443 0.07146638347110272 0.007381122955419547 -0.36099831046350733
P 7.514395082800127 5.22341544772966 11.590247980447923 0.6650250886379773 -0.6826332886380437 -0.5205008088389358
P 0.5881947169536164 4.946554958996673 8.440606992631304 0.1397775091426754 -0.3314761326346743 0.5422898796895693
P 3.3727112010096465 7.446804772147078 2.636586061433884 -1.0631385587862272 0.7380624161406256 0.4934486898171502
Ni 2.3798057470598666 6.109069473162681 4.3433472608545065 0.7886182747113064 1.2535104930470025 -0.7153148380314648
Ni 7.437975782039888 2.82405649221251 11.483176829739634 0.542953481415497 -0.4068806748179187 0.23681351355276634
Ni 6.3539976772566815 4.30826982183388 13.224172322738188 -0.5112072993521518 -1.1113446861778087 -1.5968134431132757
Ni 0.7032609573422155 8.152208724156148 3.4320743720853257 -1.7341841425866713 -1.6624418797463627 0.20977373582615488
Ni 3.341407577446355 6.1907214528765 10.015765391867799 -0.5280554812577422 0.5825510412024613 0.4739162762111773
Ni 1.8212403813047122 9.179579597079334 12.530843285890374 -0.3921022309571634 1.5994382823306326 0.4215642449720224
Ni -0.07649233638520922 3.064852174235396 6.057672732218273 -1.7029910048133188 0.2640710637171388 -1.1826074382785374
Ni 3.7808971394521893 2.9280721651926025 7.20729507182462 0.28884569955865735 -0.07933035960021176 0.28619257820652644
Ni 0.9816635147138193 7.508237902264642 10.925428723382884 -1.5732649663693743 0.1914872788121412 0.19984362119663648
Ni 2.5129524648857746 2.532912454039096 2.2922489757424223 0.18807002560047612 -0.42840903580799766 1.0069087897592208
Ni 0.28557206713927447 5.541027966193004 3.248755877911034 -1.1204116814760834 0.637375702351825 -0.19541181067752797
Ni 5.544328436840403 6.6725162072702915 7.356908087325833 0.3246804498690795 -0.3406467433903488 0.3340305236254118
Ni 8.33748808618566 8.91811205968506 10.556641344354789 -0.014218714702543253 3.007666964990543 -0.19725709141638287
Ni 9.00189039303726 2.05358611886899 13.461709136684858 -0.6732438770033438 -0.909299429344163 -1.1147061464508736
Ni 9.05936665638427 0.732188611840012 6.85466335794031 1.7390391566861274 1.5968787491335725 1.1333065351608804
Ni 4.698834760125321 5.833660451913284 11.889960299282428 0.8993652009495867 -1.3852589612376143 0.8729450590848451
Ni 5.952542110330404 2.192649646819088 8.90580324562358 0.5078779778686028 0.1271222822725101 1.6362971030301947
Ni 2.4164252547191096 0.2618798650998039 3.2845997287430597 1.6001355655079732 0.5552790928603856 -0.5733148673161739
Ni 2.1182365144915822 2.9259180765067647 12.703241567379209 -1.370926346665026 -2.2576111239334664 0.34014023606757554
Ni 7.6545310325852345 4.062398626126337 4.319465535990746 0.2516557207719215 -0.5129798178715423 0.2503051202812979
Ni 8.007542716619708 6.86937032910525 9.80995932121526 -0.2489689179683777 -2.5037286884959786 -0.515828085953615
Ni 0.9318883495440726 0.6339261122041121 1.6082555558686817 -0.5164371802925235 0.10974728132917227 -1.1110605792784864
Ni 8.679137645778525 1.8907074301690279 9.195298897476459 -0.8355848732688319 -0.3036071741385481 -0.7234091850038251
Ni 7.418838599294461 3.9539268555214644 1.8953835591703017 1.180069502348032 0.4416165356372072 0.01333759764917058
P 0.3310335079278539 7.618577166064962 12.99756866449912 2.1745428945573777 -0.26117008802025987 -2.6732330352791256
P 7.383624334039713 6.982741958094217 2.4811551574777457 -0.11119712640182139 -0.05054608837866778 0.398909483686984
P 2.671347320913499 8.544733605801227 10.443914092968411 2.4374232804005245 0.5109260206663072 -0.2426486321773047
P 8.394834919311206 6.053728808469868 5.117727351387901 1.05090782104799 -0.5059974730164383 0.12079762560606294
P 1.467452115941439 3.8138463758312713 3.703533922576826 0.7513290513425447 0.5365596620740114 1.146414019077116
P 3.2915029820551416 1.5516002499264008 0.6584411206514778 0.783740634904031 -1.5636318141549843 -1.9388508962035642
P 6.068557813843619 0.533172080804979 10.351876262483474 -0.1490131688083305 0.37496300017371553 0.7901835623158971
P 5.454587068284919 0.1350632096051967 4.804010682590704 1.6181595128892194 0.31279989638140965 -0.24908796004474523
Ni 7.288021625454953 1.5386387377480975 5.367239234324985 -0.8745098324688035 0.4453973428358781 -0.1155461473991365
Ni 7.000122587834025 7.6819794845519835 4.47906409307811 -0.3117040922140696 -1.6757028585213267 -0.4586639780377972
Ni 8.348073629298469 8.08199282901049 0.878681434502296 -0.49567706492703667 2.2933204044096183 2.4546319309693274
Ni 6.409532487281694 5.558140490474059 5.659401148740075 -0.9117890285352361 -0.4103552636300804 -1.5985350537900727
Ni 3.7243823577503576 1.3799665312458016 9.326469030920254 0.05440120045869986 -0.46248797976957773 0.3675731354675476
Ni 6.0296917673403465 4.261739657216619 7.619545119221217 -0.6766439038238282 -0.2928566204902634 -0.239378188956149
Ni 5.309884080685202 7.644749805848683 10.672466600542133 0.8930981369939522 0.9359833663932525 -0.09872547629737191
Ni 5.606676823524054 2.321488187273321 0.8093928144432879 -0.11216488963172941 -1.0129843065293394 -0.12825588165632104
Ni 4.578446164129697 7.501322630431995 4.9462757595189375 -1.2219304042478762 -0.4548723722058489 1.399724758953957
Ni 1.4381084357317853 3.1826336757700493 10.173970725071234 0.5331223542576883 -0.09226506538400883 -0.29626564617181234
Ni 9.246957272368546 2.2201813039282086 3.3821448151514013 -0.7290807814673056 -0.8974134765398544 1.0118198539075929
Ni 0.4994897146714467 7.44124851763983 6.331770810224529 -0.6966000352307811 0.04082526154647807 -0.16092483264425186
Ni 7.3463761653047746 6.026187906344929 0.5447791981657919 0.2007638190180607 0.37947528622177223 1.1115370046942727
Ni 3.9577912721338255 4.124146086781749 13.465782490654732 0.039150444947216444 -0.32444159438539605 0.6814927472756973
Ni 4.092759258076087 3.8041483542370913 3.7570625641691056 0.28089096348795495 -0.3400067958135048 -0.4508838198717461
Ni 2.559519609566312 6.770559600031279 12.631960646411196 -0.10966166359390145 -0.12371402792190953 -0.5121848327740728
Ni 6.886150032816819 0.6704809047526221 12.568351239569827 -0.5567356228012541 -0.16421095959469137 -0.39426889959117906
Ni 6.276764815104365 2.2823170552480208 3.2311792538358626 -1.8547169445671219 1.0905997403209735 0.8303927875449312
Ni 4.086685282682972 1.6975328246300503 5.057122574687724 -0.6233652470053459 -1.6833431486754042 -0.5558347082535395
Ni 5.193812907077072 0.8578690548904584 7.237280356132116 -0.3152198186768119 -1.1643554340468851 -1.518467044692888
Ni 7.558817383810645 4.0562322005750335 9.494699659277863 0.5105287852278885 1.897041930587578 -0.29027009071000975
Ni 2.2010626112144203 8.719085359132624 5.341760895229274 0.9091775590543181 -0.2697935680232128 2.112637929522465
Ni 1.6184047342348309 7.172911933492005 8.649024780252725 -0.5170910118264385 -0.27477739439104937 -1.073103383308423
Ni 6.262065239952082 9.002140008464373 1.2451455410550638 -0.9044374732661715 -0.0651844071171329 -1.5151171543840487
P 7.7334649776482545 1.7761247041077652 1.721631807365559 0.9592505644513092 -0.25499147001337374 -1.4320928908720174
P 2.708734164885723 0.9809608935115718 7.34054903183403 0.8488250261081898 0.6077493948449598 -1.8785934940744036
P 2.6077231220468207 4.569996219671088 11.511781833185346 1.327141745379908 1.0747764001354716 -2.0579081420797527
P 0.15901427208760058 1.7716038913722512 11.179405948960568 0.08085810909864784 -0.7586618375585321 1.8407486553124877
P 7.471775559874322 2.526394717886668 7.354512703727118 0.24327392446612942 0.22370577252621474 0.5721421871643115
P 5.611613661971424 7.654355377284673 13.164676023434714 -2.389015064300466 0.6111327094948958 0.2829488744582482
P 9.134205059439452 0.29684174142269215 4.823265277037033 0.4483751945172794 0.19754659763234367 -1.2769535545612911
P 5.36506758010909 4.313104965107241 1.7373279952231362 -1.7192005246936455 0.9936493536461533 0.7178275771509895
