# total energy = -340860.26870512817 ev
CRYSTAL
PRIMVEC
9.30833653523008 0.00000000000000 0.00000000000000

0.00000000000000 9.30833653523008 0.00000000000000

0.00000000000000 0.00000000000000 13.62369142038368

PRIMCOORD
 96 1
Ni 2.92388816198395 6.6878443969058035 7.747643202773242 0.43601667295192653 -0.8252744924817593 0.16650309806297775
Ni 9.239650418594051 4.62604783233727 0.6592992446599016 1.8145411436791845 2.496653783927068 -0.8146468375645841
Ni 5.765807111563428 5.75618229148323 0.3780180665675998 -0.34328186702035074 0.9232641190543711 -0.4500207005405024
Ni 8.2541675107501 1.6978406021548558 5.960160526325996 -0.6124606842777001 0.5537377165151948 -0.721019601725726
Ni 3.038054910807576 1.9192580056825836 9.855745949598024 -0.00789045849167028 -1.6752886538020437 1.0935367114621104
Ni 0.05464086687888826 8.43870528453146 6.016944172298174 0.017480673283266673 0.8541073575530516 1.5202359636678529
Ni 9.184731232449789 5.842852213888186 6.322468913155346 -1.931668262412196 2.2310097192958547 -0.16257033866747486
Ni 3.191595923595648 8.772855953041082 1.9027524631620738 1.7084150040423673 -0.339139562717203 2.499779988260875
Ni 7.40532167636575 8.702996886598253 12.537433984850129 3.565650344155969 0.8333408144296615 -0.14807265927193208
Ni 2.937273550064535 6.579104408340163 1.3193105770723519 1.1705862454479454 0.5690897734912328 -0.19063804343796845
Ni 2.4220012673184597 3.9723885088442854 11.012043350522912 -1.1357763368576117 1.39042482170927 -0.09914585166424215
Ni 6.521895371383782 2.953702764224641 4.176342542011801 -0.04106154592700025 0.10527099072537353 0.14791916441320332
Ni 1.4954308220350239 7.744740863410567 2.8102538500158247 -0.8068021447091848 0.12314504279231694 1.4010689316866773
Ni 5.284510257533719 1.3557685391691716 10.624340890520655 1.859133842687895 -1.36787907519827 -0.2441380722386376
Ni 0.19554302018447206 0.24338600881909664 3.9941532615633557 1.456817133091575 3.8877460640170076 -0.5746968352653652
Ni 0.49123350338716715 7.348801456320332 0.8613646163242527 -1.0874606804713594 -1.3038928021542964 -0.266856853992392
Ni 1.6197064244438477 2.5412596762812227 0.42310951089303045 0.06327562013019425 -0.6715657179699724 -0.35892394443298187
Ni 5.857941027572907 8.386457591001333 1.6374313590634928 -0.8761923623775489 -0.29801785297622874 -1.1990128762197543
Ni 0.32408835660759655 0.9296878072223702 8.077282120516063 -0.6689606762469575 -0.6876844779087059 -0.3851476540162012
Ni 6.056636781375525 5.4160277458442785 10.47487506751122 1.0702587147707763 -0.2525427513625651 -0.2756410279429253
Ni 5.430855926103229 0.8624788242194168 3.078532212663225 -0.779825873230657 0.23748277170564902 0.89005857883668
Ni 1.7091688478391895 9.087086781152616 11.06370461884506 -0.4120686467767613 1.0074304665906455 -1.6007832263943012
Ni 7.505349061841386 0.37782538399926313 9.87995600235101 1.1835674881989617 -2.0527646502056 1.6301740208515927
Ni 0.035694678492780844 7.498256109325805 10.9056285844486 -0.26641076759390886 0.9368814527274898 -1.030012979876852
P 8.152771799789175 1.8390294522287858 3.299767172792914 -0.057121941823972594 0.3263971754498701 -0.3502999502093967
P 1.7142139662951539 4.466596025786214 8.76612323315326 0.49648747664347403 -0.11878728004425348 0.9157238448132681
P 1.7047008462545714 1.081703183636028 2.109219747220937 -1.3434337976717121 -0.5413097751644871 -1.0931770141298462
P 1.6870894733418687 5.459302202858631 12.84418463364208 -0.6035245581303348 -2.981465109784194 -0.07321499073109326
P 7.326805856852722 4.125761971572934 13.710611123428238 -1.3101444394909632 -0.4759392201784771 -3.153444657580711
P 1.4989959149660836 7.822614407695806 8.964171126726109 -0.773565494143242 1.9149398939139217 0.23279359376009584
P 8.88930324434019 0.8849621805266802 11.566745747253243 -0.5164808890462653 -0.6557364642471998 0.19399153329123367
P 2.414796614763263 3.6737026029125692 4.728211481070552 0.08079974505688665 -1.2749882033048041 0.2202075295649691
Ni 2.707022535070552 1.264072114981521 3.98875814964993 -0.4324598088386036 1.101342580659774 -0.05362369886272701
Ni 6.930773366396141 1.9219294982967197 12.483401883187145 1.0956789546160937 1.0125775580092238 -1.9350790878659578
Ni 0.6911421334532765 0.14599753677937527 13.433654598536382 -0.1758439158479294 0.9344275918703584 -0.47388028076691935
Ni 1.723373369543621 4.757658404014175 6.7104990266071445 2.112027292521659 -0.5811875851960313 -1.2279768675522722
Ni 6.525655939384169 7.655501840094456 3.585850521755017 -1.2763881689761243 0.9343990526252682 2.025806119338885
Ni 5.838961329174915 7.3416433454483085 11.867134147955431 -1.5992112539214909 0.016894975983125744 0.9331803497268186
Ni 4.269119664082731 4.9698605542736285 4.792419456342504 0.41793436152891894 -0.24552415395288682 0.5967694987946884
Ni 3.791043494528601 3.8303060584534316 12.993841277552525 -0.21054918053959867 -0.7844949965715522 2.453427626248581
Ni 8.071752037721435 6.7257665603552494 8.373420334710882 -0.14248333810961267 0.5952396924137233 -0.07472834205182614
Ni 6.592136079628632 1.7604670910325853 1.0479427774959214 -1.9612130659488483 -0.3788211975775412 1.7315461907431922
Ni 8.852414306257186 7.584572314938645 3.991973249123528 -1.546595427497988 -3.496260897818553 -0.6494544878932299
Ni 5.486678020901051 6.989667212283387 8.317863527507148 0.23477154342207307 -0.42788504498372765 0.2234206371856281
Ni 7.408467894148252 5.618195509211611 3.8411456164644475 0.362099513947486 -1.6940330242890824 1.531235657212466
Ni 1.866721753716783 6.179395124912905 10.246350748962959 3.792098455314011 1.019100446729406 0.9984647727569256
Ni 7.688174101681976 9.18165017302373 7.3818879388880925 -1.8076760411282353 1.197382539705183 2.588508758356852
Ni 3.9081237527188626 8.597002857339824 9.088337821596308 -1.6533018651183073 -0.46284767710184155 -1.0470236555022356
Ni 3.7372040754339535 7.338860152794556 3.7408752834026475 0.5067806310393659 -1.0189472089809934 -1.6460734656906684
Ni 5.43255004337073 0.14106784169768005 13.156030665907823 -1.3300967142431739 0.3987158796189391 0.19849842002265167
Ni 8.62414596696638 2.513185732991206 0.7477535751977139 1.0825323899318067 -1.5428038216660398 0.14198274432411032
Ni 2.224841389060554 4.570216429202814 1.2176197918401086 -1.14375858373214 -0.45899230791149337 -1.020441534138333
Ni 9.309081301551691 4.113847300680619 4.840348081674167 -0.31453693367717445 -0.08775612177006177 -0.9149201179650501
Ni 6.327388369066743 0.5040101262518478 5.304643258840741 -0.5413331722032548 -0.5952939426904265 -0.09852184492699807
Ni 4.0034969698771885 8.83185219063131 11.243483040105138 -0.28593238256660436 -0.4107650974739893 2.510057973148116
Ni 3.6865294907950767 3.3398684178485247 8.201339907847636 -0.11859933240316349 2.2534037707203387 -0.4162166075068639
P 3.606505720747241 1.9965544330964757 11.89468123939193 -1.1012564487038712 -1.5353579069109557 2.1000559790923963
P 7.685148892275724 7.720166854695168 0.8632476928254363 -0.10368179186138272 -0.6881210512254923 -1.1265149661603437
P 3.897558790638568 7.76432560368981 -0.19120161197808486 1.7393155502759656 1.5354643505818328 0.5200943174291365
P 7.0325041774759125 3.5352876371557564 10.430052634114528 0.7232819153973414 -1.4920062793981983 -0.6608331620438167
P 5.3068874988033485 5.763787202513716 2.9714221138423054 -0.022318460991542208 0.5280238566888584 -0.5627648597144694
P 1.5227694067309054 7.143841191962614 5.276782476459657 0.5579113882769101 -0.8258100532702551 0.027422872097643092
P -0.11727573325958898 5.231387580359939 2.631797212557863 0.6399961706938074 0.3393776468699381 1.9082367708621328
P 7.387105261571797 3.9651745479524543 5.933485626032164 0.414279538385151 -0.7020119502749715 -0.11243279858113538
Ni 8.443061586076464 9.588238317223972 1.6707552042154357 0.2325267132519544 -0.5292075925843144 0.7785369792159044
Ni 3.428856116075501 3.7006874708163355 2.7708544535424653 2.1225341055902542 -1.1743356851880487 0.8215767319151979
Ni 4.426160611445421 2.3823942949381474 5.299888560487776 -0.7203099772532111 -0.06011830544813518 -0.8862793142999059
Ni 0.9071337075566837 3.0307757915593023 2.987252801956805 0.2818013911173663 -0.4570848064761353 -0.8029981975820623
Ni 8.93618002763214 3.9530737103274465 11.941220130064043 -0.5136765868282508 -0.6067759751880969 -0.14665958097448933
Ni 2.1335359150115574 8.83678560904766 7.0354921535356265 -0.36328402117389047 0.4786771879349304 0.07551818494297316
Ni 1.9368507619220172 7.4459711824491395 12.618140055973281 0.09418542233517328 1.0999816957565054 -0.11198208419696197
Ni 6.9523687073884615 4.42200909330638 8.065279951259383 -0.7912647111952179 -0.14622249343707078 1.5963858686575538
Ni 3.2663977167914613 0.7587541674325089 0.3408228842093181 -0.2089314424305176 2.775030979854234 -4.119894310883621
Ni 4.320548223989012 0.15592394696653503 6.794624980609857 1.5530699794787384 0.9134175652775947 2.1222579691107324
Ni 0.2925396112518759 2.7885356389799276 9.550847659796363 0.1315263248774767 0.2152715257159325 0.18981966130173117
Ni 8.069331870196434 6.174722339922326 12.267030528949045 -1.09350817221702 -0.4713531434696914 1.3723823623852622
Ni 1.2335128458100604 2.103553762711443 11.532877364408174 0.6940456442400434 -0.4385306976230318 1.6622390197069374
Ni 7.452561484786451 2.112722474296545 8.493077140481608 -0.2407475584998499 0.8792334631967181 0.1783674536007315
Ni 6.355769487465702 5.801439424200758 6.337904927796537 1.2607607468515125 1.2234830934469767 -1.6373502268850575
Ni 2.100249303206153 5.6006027529721765 3.6685197210744125 -1.310440630575143 -0.3664544484820721 -0.012695078969165233
Ni 4.02517608589922 5.933924979521317 12.199429664973774 -1.4456012097710975 -0.8110408653808806 1.1624451043980497
Ni 9.374611991459421 5.188922948632797 9.810134169254718 -3.906291431119363 -0.7469692317119522 0.1740713973285389
Ni 4.673529657510471 3.452880932929457 10.828778026359506 1.6206187730629895 2.4685860791565744 -0.9762488987815187
Ni 5.372567122097233 2.2200569040303586 7.312502666779964 1.920467765710686 -0.5271625371298276 0.680360433443467
Ni 1.1830058112306074 2.302575308296273 5.999179211831001 1.9121325063721135 -0.817529815539334 0.04507529507208366
Ni 4.488377533511226 7.191993217373508 5.890516482459426 0.17261589582893497 0.18899433718695838 1.2705844178101537
Ni 6.681282019578396 4.3615421385278825 1.9885138919114902 0.015904329935082288 -1.4675232066551693 1.8489779852008155
Ni 9.02718763490883 3.571636691713951 7.361111731519618 0.39324842874646465 0.26915490599794933 0.45320321203354214
P 5.7238823633610965 0.2769006748720493 8.74619222275121 -0.06160183197219714 0.773397858217126 -1.7995595826686879
P 3.8540330085350805 9.08339137150867 4.899039005822778 0.9058438666953949 0.5244855045182967 -1.5765757759101622
P 4.497527628423059 5.187182289682124 7.111117734523604 -0.7054186619636754 -0.623973570013306 0.2412242410259523
P 4.323703750108148 6.540539969662928 10.315123532520529 -1.3396817868284474 2.1479805706878166 -3.1345185101001696
P 7.249016087597195 7.208943698385152 10.355409082641504 1.8040379301550156 0.7986648603140309 -0.9664504246338581
P 2.1476473533496425 1.8776497409258281 8.042760292439244 -0.6027311156947619 -1.0779568547459821 -2.3830254223759346
P 4.504592655928737 2.1343271236255 1.5435232740914564 -0.11652239526947673 0.24074087363163055 0.06530370630381656
P 7.30450308227617 7.796392823396078 6.005568454097004 -0.9556782737190185 -1.980937283850653 -2.372844625188191
