# total energy = -340860.0388668955 ev
CRYSTAL
PRIMVEC
9.34452149871842 0.00000000000000 0.00000000000000
0.00000000000000 9.34452149871842 0.00000000000000
0.00000000000000 0.00000000000000 13.67665177208666
PRIMCOORD
 96 1
Ni 0.6864251692040677 3.35223486165373 9.272276880317424 0.689366236486503 1.1912831116756644 -0.19917359171280535
Ni 7.896129794814777 4.900332351452167 8.5817840410163 0.4084873571834062 0.017804118060956435 0.6659152045524145
Ni 2.548615379281193 8.971450576847355 3.951225214491754 -0.3730518991939317 -1.46372568728595 2.667769183951077
Ni 7.101228750761913 6.024627769319051 3.310816205696474 -0.47595593234902545 -0.6521888561052575 0.13093651381227772
Ni 3.222953410257504 6.352302751224368 13.509741600619003 2.1388804081587613 -1.9670960070921866 -0.8163190830606845
Ni 6.7273731448739325 9.094947769594194 7.350188289072984 -1.1761174596788195 0.4950414882255669 1.7192810002225938
Ni 1.1487593744809292 1.5759908857086458 3.7166571733469516 -0.7718773078075416 0.8664262841297207 0.24870460856339752
Ni 7.689344884229516 -0.0986388973363414 5.34502690397871 -1.3205239829530742 1.179385074686498 -2.0642888487951154
Ni 0.5095744979684756 8.703131993877262 5.292645255699224 0.7510374882440549 0.299044237358214 -0.43310052774639607
Ni 6.313793979182168 6.611117956090379 8.237953316334046 3.4642272664217755 2.111672223175086 -0.04785080093469178
Ni 8.663156131999918 2.0109222824405535 5.4291789900321055 1.3189628091135412 0.07878837105381269 -0.2235131968994344
Ni 3.039333567833518 5.207468075665478 9.670869302839744 -1.024568668932829 0.400213290100072 1.4229963278873878
Ni 7.7095290501142895 3.3985836870187667 12.000591140909062 -0.9235600530282352 1.9177207990931684 -2.3295220511411556
Ni 5.374379914107068 8.567010352931195 0.5343739228951432 0.7784757869606658 -0.4635192492475695 0.03102627317818528
Ni 8.286786849897583 7.839053459062832 8.714803300909708 -0.6847917297419432 -0.9526171182951916 0.8637834471902349
Ni 8.119557297733733 2.7991233047622215 2.600915730225865 -0.2788266247597585 -1.9235980838095519 0.6562571126373601
Ni 2.6786817704618273 3.984017942889642 0.22041950153085077 -0.5568940027559892 0.30110626209356534 1.5181600549754306
Ni 0.8140292790371841 7.587545669808808 7.388236376217908 0.39728968869537384 0.5605405983696411 -0.008542747363688513
Ni 8.348171009942527 2.6915772097770994 7.7584223886137815 0.08930572564536877 -1.8536877319716594 0.38363584535736506
Ni 5.017858395124761 0.5713473900971271 9.973916799009265 -0.7103821766165379 0.5610237086536467 0.5907212357180794
Ni 4.7273932968088745 8.899236116681829 5.985107920078363 -0.21460663843842392 -0.6682387104792685 -1.5785424127182297
Ni 7.247573297947767 0.8212815619738383 9.820533023971096 2.2693430676584145 -1.3304980634466503 -0.1169805658528179
Ni 2.326636277154894 9.129877590000344 8.730271286923164 1.2942269969297582 1.6872406839575973 -0.6865431652154111
Ni 9.22083715977923 6.794681731386908 10.739836744879241 -0.18342789884277444 1.3140358041255693 -0.09998943061146005
P 0.13025141270124438 5.6841414487896476 2.436222281127352 0.6333267290934318 0.0024466617682796575 0.9150463591302692
P 8.349750234032587 0.6064865277791197 3.178932305134086 1.8855922939897396 2.854436415666755 2.1027774917886175
P 2.4055881371365864 2.5360469982094243 2.048748904432019 0.17235287197553542 -0.3745647362940323 -0.253414355334241
P 5.700129924636337 4.287985874401593 4.684307578261876 0.2377933609675324 0.08910183716467882 -0.6667292158132776
P 2.3759192821902166 7.378153637796763 5.695668850194952 -0.4681238378991164 1.153506150037207 1.837789058463532
P 6.574365954041854 2.380675643502879 1.0170763811252648 0.8057441357583155 -0.38680395867270156 -0.29842897237171834
P 1.718569590833591 3.433952699923336 6.583351645669075 -0.4606887217773098 -1.1292269657748681 -1.3196942879629274
P 6.342743305992829 7.622475490214959 4.666938916627603 0.4277294932424698 0.4242685312770628 -0.05505708887514389
Ni 8.291655345465161 7.927994612253239 3.10886708485444 0.6597401860899541 -0.8169631444025865 0.23386985754341014
Ni 9.546736682648387 1.8170608447342937 11.024570848316825 -1.4550914086497198 0.4320923981968558 1.6651896176948289
Ni 5.566110800969935 2.7392716462011206 12.41369467046956 0.013629674968292654 -0.5404561689149402 -0.5859670088625456
Ni 7.74062761681083 7.169359655144268 6.232928361249918 0.4405191888079704 -1.0215481369389505 1.9419421335343778
Ni 4.199287678763502 2.590282599503511 5.784389472684025 -0.3932034344411422 0.23153478165233027 1.4878572902268312
Ni 1.2641455227888874 7.626101164457224 2.2680947204720545 0.2073211605206042 -0.018402156656271536 -0.8339943888532605
Ni 4.4889865263374675 7.8709836881499955 11.962980377358308 0.48801929127146276 -0.3173540914109954 -1.0119934033709796
Ni 5.9646265984180635 6.108709771463123 12.54138007763749 -0.2958979784197485 1.3504261698291453 1.7156526594413872
Ni 4.374609586323747 2.3583328932109833 0.7273410899184527 -0.33947252057658955 -0.8001910671505703 0.1941823091458011
Ni 5.509352178940251 6.186801935490465 6.241530927506179 -0.8431135775457091 -1.0235363710135728 -0.7132160465209072
Ni 8.018010385386585 4.207286588947468 4.464401090947264 -0.029095888924691827 -0.4494905390686452 1.010598579905982
Ni 4.538419043712678 6.5794306845555335 4.137145678045754 1.4333427041187186 -0.21408778982047644 0.33785683935003746
Ni 8.001517305392778 1.5266050909396498 13.03774702928118 0.32377644999757144 -1.845792131273666 1.6297590448013612
Ni 0.9748671786708555 6.290675633627106 0.18438048645316193 -0.8627632334558367 -0.6884671217110013 0.4229356713982522
Ni 0.9772967541940227 0.6389148198485323 1.6029311404520732 -0.5709224558245973 -0.4282835659737269 -1.0136905885677445
Ni 5.504474338851431 1.6137240624876816 2.9336143267513926 0.639971230993143 0.01613752899181092 -0.9233060280359002
Ni 0.47979911547993687 9.149454362004327 9.989740811282077 -1.0827244513379546 -0.5983692391816404 0.6087526392984935
Ni 3.0068052893868056 2.0037550346472104 8.214223839089696 -0.4922914362842554 -1.2114714136980813 -0.5255802802443723
Ni 5.769802675023779 4.989208092993874 10.449412762456824 0.27577652507952505 -1.8799307248285881 0.32515944638802713
Ni 7.901699129475576 4.663729073580649 1.2472394149561405 0.23685722230650819 -1.2323603413319486 0.18660115436443347
Ni 1.6832099224502648 5.405067321868918 7.5770564447135955 -2.4252915301339977 -0.9686227496948286 -0.22901792876774751
Ni 0.4847591873556952 3.8839287758563943 12.523695571185206 1.1426427249601419 -0.5003821837121898 -0.07365002138598284
Ni 6.291778287133775 2.1340083162527033 5.126050196527771 0.9201816234743057 -0.49172862180224985 -0.23527805074484642
Ni 1.903067818254414 1.7129628780878203 13.125536937454454 0.3110877987863094 0.5368576529304044 0.1260989832143183
P 8.83194621921134 0.32539211536566426 7.786268127465651 0.3975347148266444 0.8573744583400976 -0.7396572714315712
P 1.9870096525798422 5.295923313751252 12.07964205281593 0.39201738455284096 0.46895121889641816 -0.6002520580266502
P 3.831683557587056 7.607860658990983 2.545648493786556 -1.3149318335772773 0.30786209276016013 -2.9058319965299115
P 4.798710682935075 0.5868770499507872 12.495946080902138 -0.22891354197939928 0.3766270181396998 0.3324143281782275
P 4.845807069999548 5.414991203428932 8.604856598417271 -1.8739446824484822 -2.1174422928896433 -0.47875020726471096
P 7.649602635383245 9.071745323347947 11.719030436885582 0.2962347929338769 -0.21662135487560757 -0.5386173159339885
P 8.782560424442345 5.149597455607883 6.535921659196229 -0.05068029996368691 0.11879345069184057 0.07608074231466251
P 6.962098173975616 6.481649614269295 0.9513713144575797 -0.26757239200217786 2.4800812242803674 -0.4315684073725857
Ni 4.674727575083603 7.516433863149951 9.446463428546652 -0.5980499081690087 0.6548316930447432 2.2396959342159426
Ni 3.5189598096704606 4.017648874843022 7.528353734447459 2.3433481583909703 1.6346909348853396 0.011996510240243856
Ni 3.49144019460997 0.3902449616959923 2.1383441741094327 0.8490952490504409 1.6037240541901798 -1.1162809471371613
Ni 1.8879670719258053 7.443425118678776 11.626001990103509 0.7126786859601985 0.3119838282380175 0.4659067756431396
Ni 3.17718394520953 8.416890619163189 0.2657553807931515 -2.6377749515818314 2.195232818806561 -0.22094826438573562
Ni 8.369130771090466 7.8325122941927665 13.452955879477715 0.023988906715429654 1.6268331294038174 0.25091087218609687
Ni 3.586801033894284 4.595551446592079 4.9281351055063185 -0.8022435788042248 0.19372079612835025 0.6747615991994509
Ni 5.312668695818619 5.502885770240129 1.971530453140894 -0.09686862559429124 0.9828597192298172 -1.64538466715376
Ni 6.764611062027091 3.953470702946435 6.612647654217851 -0.23155946424267865 1.4105015378544867 -0.5477961542197791
Ni 4.470680609222526 3.081290468214368 9.626543566323807 0.24557994689148677 0.3339359070290765 1.1179575635086358
Ni 0.5737377186310739 3.22515871727084 1.1473109736882718 -0.0356840836651708 0.08447333725373193 0.28876933779476716
Ni 5.812918296038755 2.2517960065200997 7.834382132893481 -0.7969861870600274 -1.765882759241533 -1.0082647895664831
Ni 8.1803807865041 5.652771890977062 12.791320790679071 0.3100814690089821 -0.43553356266792087 -0.9143449621878705
Ni 2.1099087959671325 1.320782666042413 5.933437389865466 -0.1974383541892535 0.04683752917882901 -0.015920527884998387
Ni 3.312361789510058 3.5682521592270264 11.842448201201856 0.2565557291767001 -0.5862899394196031 -2.490264849681589
Ni 1.2592583381788238 4.184158898871165 4.163486948977509 -0.3917469045002737 -0.4579553820065468 -0.45388763969507634
Ni 2.979696833261005 0.2806982047127543 11.334114655654446 -0.8298104326789 0.3184085008174387 -0.0065997647047047634
Ni 7.215624379818118 0.01104242075279511 1.6038609203157468 -0.1775477859129136 1.129050588098004 -1.7982074395161676
Ni 9.19256063849806 6.336678711706154 4.70940415896407 1.436628831069158 -0.7073665297186656 -1.0097783979975319
Ni 6.833564284278827 6.94060577511683 10.738810716446766 1.1009857115409878 2.769115128590431 -1.0889429214438406
Ni 4.241936073716331 3.720315553413567 2.69364421787604 -0.3261943154104447 -1.6037147982187994 1.3655411710937129
Ni 2.9273394807367508 5.47344118380359 1.9759756418961658 -0.7559174420441755 0.9273891969663384 0.6663070406741943
Ni 2.2870341961272675 6.376458338637397 3.980411892141987 -1.4904744161347039 -0.49545492161390153 -0.6490353980779402
Ni 3.373306757056584 6.923150209434997 7.650759487113122 0.26459325476919593 1.0736710828864346 -1.724611668406888
P 4.814549646441877 4.6643084338977125 13.24368999850245 -1.8686703214234204 -2.176941219586225 0.9850292160773099
P 1.9814216288765576 7.26183303736451 9.39153726713271 -1.276687445384098 -2.3029404439978856 0.7076200404903685
P 4.080275856213279 1.0561084463570707 4.475588351779324 -0.09053754116994084 -0.8267389928424278 -0.9530261808081522
P 6.726251802324778 2.7987495239125035 9.610870000843006 -0.27667923939945255 2.395834915435777 1.2011504913880475
P 8.763161198341978 4.826407843899181 10.577194418193557 -0.23419818741710635 -2.0385176533682827 0.670507194798471
P 2.0674846695241356 1.8688481814627278 10.158510340546766 1.3174651415220924 0.07571821676892121 -0.5693826221413032
P 4.376207499456292 9.215753740223063 8.024774884314358 0.41609396588607045 0.5218629792937851 0.4581240463739272
P 0.8852653678285719 9.240955914015302 12.98506448741767 0.046487602038578005 -1.0278956764235327 0.09671024563955602
