# total energy = -340872.04225798673 ev
CRYSTAL
PRIMVEC
9.18936097222935 0.00000000000000 0.00000000000000
0.00000000000000 9.18936097222935 0.00000000000000
0.00000000000000 0.00000000000000 13.44955865769720
PRIMCOORD
 96 1
Ni 4.626365247827428 4.956180591437442 11.122918853206222 0.5469183796005161 0.567774397113919 -0.17692866427167592
Ni 3.6513005664373486 5.079621273243837 8.731896830847688 0.7363261501758093 0.5923587713215025 -0.7845970693670552
Ni 3.7898485571762013 4.37645139519535 5.480815894751517 -1.0166789817721071 -0.2856441619022242 1.6094275323328604
Ni 3.20529494658524 8.472994864549651 0.5953235412897698 -0.9559125012170119 -0.07535543411286377 1.8762833578839881
Ni 0.6363365768715552 6.600230729204021 3.4957283661314196 -0.27523607919502274 -0.4932008354724021 -1.1194642299611492
Ni 3.9788093805205693 2.7705095361045013 7.774113661123292 0.40155849127405685 0.23525979591240126 0.12977746050717004
Ni 8.160703631726863 7.551311179259724 10.230608040344343 -0.31937369294418544 -0.610020964487956 1.6198464136733393
Ni 3.0220590949348636 2.9955386000570807 11.491262429274338 -1.4796415871852582 0.6716279386664756 1.733311253063415
Ni 6.425412331922339 6.458108077166673 11.823183974348657 0.22777402905831742 -0.41617007053964455 0.2924994942611608
Ni 8.200070852813633 1.5669146443486637 3.0856108754184977 2.074638567460556 0.8148718090911966 1.0101098131950217
Ni 5.202951682722256 3.065598285763323 12.385065594308132 1.2435760075421098 -0.35233369280997384 -0.045370457714999285
Ni 0.3146703582988309 1.917396860093166 7.514563844898406 0.6007449385026686 0.14758106434749424 1.0382019434455474
Ni 3.565370854863493 1.1607816604198746 2.2480530302039825 -0.39194462233337657 -1.8162121036237042 -0.7831577658173674
Ni 5.69861660760539 8.8427563589683 1.4779855254539116 0.37186430664373377 0.4917005967777918 0.950546351809092
Ni 2.7060277923216183 0.49283092605419754 8.192125731583097 -0.3723373896254104 0.36006448579532824 -0.6238612128051578
Ni 8.024940017269357 0.6408641748709604 1.030081383688515 -0.0387812345332558 -2.4031358199725648 -0.08297798365512807
Ni 4.087868712887003 3.1444889470681616 3.2385999464416324 -0.0012652398656687886 2.0165871718437787 -0.13196958306248238
Ni 2.4335724379794903 5.4474254338409445 10.7513351085678 1.44440693235268 -0.9275799728209057 1.1772415459809338
Ni 6.694201131359326 3.528245837778863 3.448036503218667 -1.5893883542937983 0.6690565783948735 -1.1919919648172308
Ni 3.2491281969549637 6.198637289443502 4.04794002186363 0.23136123218894344 0.19919313209683115 0.6989237982679511
Ni 1.0418713334210845 5.431877035596589 5.509624540434763 1.455285784048713 -0.24573241330895096 1.087861515454204
Ni 6.5218271040144025 2.323695252513916 7.663128238761577 1.357573579507204 0.417928447991648 0.2816013592914182
Ni 5.587894000958681 8.349067146628038 10.565703590592184 -0.9604142457421072 -0.44002810810416476 0.45673256534303924
Ni 5.282880741782186 2.593219200804064 5.613872323557256 0.8812479225235856 -0.04652102637967472 0.1526260829705694
P 1.723721894727903 6.607370862440348 0.1441268515982786 -0.34102572399632236 0.7994734722582554 -1.2566636939640035
P 5.892034270872046 6.274835468073639 9.68666772814626 -0.30718537840810967 0.37591893632908163 -0.9725292838380862
P 6.9227313417250835 1.769438964033852 13.00634172798662 -0.7983365304403348 0.9583259957545107 -1.2270664399228608
P 4.3386739335035385 6.5752724256392066 6.276908587839553 -2.2043964875837 -0.48661521183508455 -0.3931892933737551
P 2.099539177824466 3.6969624995793104 7.243407866154239 0.4923654840553004 -0.3403508094164848 -2.400471128656208
P 9.10527801443209 9.225842426350493 11.234779102703198 1.3605092650967603 0.8502067369470647 -1.5511105417595221
P 0.9415051362432802 3.612944175023674 11.328939724624258 -1.4280179494716956 0.14130654419269215 0.5671614461202684
P 3.4581861520726207 2.718727488759974 0.3746520721643026 0.565391241593723 -0.7824435133591622 -0.22267964525454553
Ni 2.0291394857736362 7.457910517465621 6.910598628839728 1.2790459183139455 -2.0024188507631964 1.3840333163606293
Ni 1.7335085638356087 8.174202802543032 4.772374080489798 0.618652929131341 1.065897609588603 -1.1355680775015475
Ni 1.8213037156243599 1.153972344167471 10.286168752794117 -0.7032216543123566 -0.010859311312007104 0.4912349699952831
Ni 4.96487372662607 0.7448408718538514 8.621610718832544 -0.5464249849038654 0.058710883577647276 1.4638982083080725
Ni 0.720925560724458 8.673865099315227 13.190614139519953 -0.6089778679354222 -1.114432581074513 1.4026267630921003
Ni 5.616592374313953 5.7753477691540684 4.862633818808772 1.8838796821740074 -0.38179930636925863 -0.801938131748664
Ni 6.055356777962425 3.9825586396716903 9.52114436917673 -0.6871116361243715 0.46406509444871047 0.19983822187999775
Ni 0.7172158158241944 3.5360200369010406 2.349637736605901 0.5947408984004339 0.2563911785743778 1.476391969899709
Ni 0.34854234170822357 5.5346324665471665 10.255974351522662 -2.926187163147496 -1.0027186629372733 -0.9267546487061328
Ni 5.2104134435818406 8.020042088035172 3.7953713629355734 -1.2972914947876948 -0.3240947525689386 -0.9243619801042402
Ni 7.874804242732554 6.223310722827718 8.417002252148643 -1.3107175383856136 -2.2459108047774032 0.4508311122569397
Ni 2.395105774237842 0.8957136331159486 12.57521552092249 0.38466582928377624 0.9991088340988278 0.12679266684723325
Ni 2.4968687542366514 1.7939469889261066 6.120006687045469 -0.12511862157892 -0.4429923329388113 0.1249144759879139
Ni 1.7729860572503537 3.5912756625767535 9.311896194293318 0.7420183154645802 -1.6501522637457322 1.0570833537310826
Ni 7.39308876733815 8.865527594694962 12.418165671421708 -1.2511383932704 -0.6487525767301989 -0.24458184464427554
Ni 4.35739266117715 8.952321106171281 6.107283098269385 -0.10476834005734213 0.22701735339795098 -0.16042809551349144
Ni 8.04382415343493 4.450627914479293 6.465726976093621 -0.33667901699185243 -0.29081207925640884 0.03102833006071431
Ni 7.956736582417346 7.297096705836654 1.0676190030669817 0.5349619785695883 1.5277016759172788 -2.224956314012923
Ni 6.5710085622908725 4.718433452325177 0.188066698551711 -0.22086290376078088 0.1273606235355613 0.34651040125997745
Ni 2.359542948466179 5.374636508017341 1.7309585162512062 0.35617569226388335 -0.31313953910901554 1.1446229886149644
Ni 4.758811503085044 0.7922763516040643 12.997693620665247 0.3466731520900868 -0.7610815027436183 -1.0137078149589251
Ni 3.477575703074742 7.025551098200313 12.279998120214366 1.2761040620768023 -0.5094152404487355 -0.7690550078673981
Ni 0.6005008270881562 8.700532623963642 8.808922970873699 0.18742904958236753 0.09092114976160472 0.7342916362442837
Ni 8.272427878686004 7.972376874268345 7.1700666597547 0.2528587399410871 1.0430944956511585 -1.3721195956421788
P 8.452723134923737 5.040447028731021 1.2549652557425948 0.16569602878065015 0.18649599624513688 0.305822436622312
P 7.335352014283019 8.611680695698471 3.001121136660772 0.7859412420997755 -0.41749238889549395 -0.15165343464465494
P 1.0458135691461603 0.045237384679261534 6.64295206693334 -1.0321392821912352 1.4371931882130604 -0.2829182783306289
P 5.40764469152427 7.764614619004385 13.18565096582505 -0.25678918534374484 -0.06890145095740392 -0.954903343226207
P 3.1396277752766344 7.980077558505207 3.028961223729979 -0.7474477140102675 1.6639194927331538 -1.8786282039670807
P 8.29304880401717 6.442596436364976 5.1569102289848505 -0.5246575113197868 -0.1785525730283441 0.22041810291387845
P 7.433935475491908 2.333059211031054 5.095230321268577 -0.48441254775681086 0.39775274437472147 0.36639736999189154
P 1.1838653344091297 1.5304053144285559 1.3162849405208197 -0.5199984152812206 -0.361043561879146 -0.07049656335866568
Ni 0.7214723276839965 5.1279297422571775 7.840204461958532 -0.5280500819411036 0.9492793121712103 0.6244757064607052
Ni 8.828816098840235 2.084055105104762 9.783867271639073 0.2847275636252257 -1.2658409895878975 0.3482106717805358
Ni 5.616004255231424 2.130700299837827 1.3536305022613977 0.4291083758678674 1.8370529516284557 -0.27763131890007664
Ni 5.855286017574661 4.6869047558852355 7.294435466988212 -1.127281412012723 0.7140403421944154 -0.865245119337426
Ni 4.490675148255238 6.724121689682978 1.5181320043250333 0.13908202573754755 -0.343032470013706 0.9518226474183543
Ni 6.220122014677132 1.4939786887544289 10.758396213302412 -0.2338911976996488 1.54469255404832 0.861366095997994
Ni 8.072697124642827 2.8291652252260837 1.1181421080004708 -0.9690675505417311 2.6978816870657405 -0.21228647494567954
Ni 7.8055072739614655 3.6365884000134643 11.174027320414039 -0.2452829844763582 0.6482825790723157 2.0233347749802575
Ni 6.026640025885824 1.2094301357778032 3.4761054053684197 -2.2143548843479928 -0.7911122447777537 1.3689468543411523
Ni 4.104381994001131 4.812385475759152 0.04564723016489879 -0.7675377998919233 0.3043232263689662 -0.09300862841825272
Ni 7.311147238292693 0.21085355619150234 9.248749664614989 0.6333922922240447 0.38396597500327423 -1.6951457977372872
Ni 0.30363209826861864 2.450793299864787 5.3353593426650825 -0.32387852279307444 1.8834443944088015 -0.3618840555025703
Ni 0.564189987358402 8.794199777217017 2.367068115914348 0.6108100360481545 0.08047604316888075 0.41971947845379975
Ni 1.4423712392625272 7.453545571149977 11.192170794110055 -0.6775257922081493 1.7534897848938187 -0.16622953268661694
Ni 8.795118713283468 0.2008169364737219 4.936229570498719 0.6708712630061091 0.3147804171465482 -0.04342927482822843
Ni 7.335756346152257 6.166364254789735 2.7514967488896254 -1.4984795458273676 -1.3379156960669605 2.902631487314743
Ni 8.612213678617014 5.770284431427922 12.538108882559188 0.6584528347370983 0.7259450640518014 0.17572024578587156
Ni 1.6190275086771135 1.7321209703752671 3.656074439302562 0.9870421327422807 -0.6386334860183259 -0.6893726642444062
Ni 0.8845706143741608 4.099456496684953 0.12568564261673515 1.1817057523998746 0.34344847450520205 -1.2342179633659776
Ni 0.08723184398001665 1.9699967605368347 12.692576521713242 0.14713266395616595 -0.8355041406295676 -1.0564297793074837
Ni 3.954448385398947 7.68218605384371 8.5647864692914 -2.1615138292875615 -0.5214402899340698 1.946998207901047
Ni 8.582541233031304 4.519456225856491 4.132430679557422 0.12937174042831914 -0.6541590924577508 -0.3433831684849054
Ni 6.892231853679568 8.12860519492572 5.236975290582614 -0.3897051914798966 -0.6057511334680084 0.7344433313307995
Ni 5.785060923376458 7.350753382756741 7.500388337137329 3.133186164441991 -0.9769441250763304 0.41200642608025817
P 6.372086471986174 0.2004208750290814 7.214087373081981 1.5747968296328685 -0.1918965984354179 -1.6439134819248722
P 8.024342708826163 3.9441011652907063 9.023819845757586 2.3181282074819176 0.48758117529277967 -2.063993171931568
P 1.8458760660412659 6.735966775579534 9.012279846635092 0.10761917924257597 -0.19308341965466747 0.18234623574282144
P 4.257531878835894 2.9767371681374883 9.914005159497764 0.6910191987088938 -0.7679777156428194 -0.9467426617922857
P 5.128297316683759 4.722394066771582 2.047870159616112 1.0143320788064853 -0.3080652099099017 0.22261408212393274
P 3.4761881096144007 8.993719175964909 10.443676232455992 0.1915099045199605 -0.3389161338524873 0.14962457714008426
P 3.858796330242038 1.4485648683504087 4.511735325026168 0.1453200362274594 -1.6110321578158189 -0.5319586729668903
P 2.191010073879022 4.332305706563031 3.953241822343697 -1.1475445331371332 -0.6963316120607428 -1.232176764566233
