# total energy = -340869.0649479589 ev
CRYSTAL
PRIMVEC
9.23369813767684 0.00000000000000 0.00000000000000

0.00000000000000 9.23369813767684 0.00000000000000

0.00000000000000 0.00000000000000 13.51445058099765

PRIMCOORD
 96 1
Ni 3.5382608539111966 3.9788837033795765 1.1175480423974384 -1.655696333492413 1.4943071596172328 -1.0016591113245072
Ni 0.3690155191046402 9.209930766651608 6.766942581344234 -0.4875037850876249 -1.2794135860660096 -0.5590917817382565
Ni 6.358795572188209 2.8869342427961153 12.684893695304716 0.9650193486142864 -0.1641744499298011 0.6427233398169834
Ni 5.160575477799941 0.8070039944462919 11.306257293083558 -0.9970455238118958 1.3750768784982899 0.2104260246981731
Ni 1.712869503176583 6.24912693740676 7.29087093356034 0.7159401303202896 -0.9425476498743316 3.2618102280710084
Ni 7.8260579341210645 7.705872116968977 5.849554340497772 -0.14173643264125912 0.969787459426891 -1.1999063345683012
Ni 3.456034770495452 2.606082075118037 6.943981202336756 1.0825848404362968 0.8507086162841477 1.4478493823753258
Ni 6.838246123033703 7.170271446724141 1.5675680266319274 0.62336961788072 -0.5398586445402573 0.36956034110090547
Ni 5.22951426935322 9.002080217781488 1.78224504865974 -1.4281403339821728 -0.35326494637499156 -0.7616085788916819
Ni 1.156336038871837 7.19725231317454 5.477825960830802 0.24708764178526477 0.7011228628017989 -1.4321430273836626
Ni 6.590681437749083 6.071544451584008 6.901762886941644 -0.7982092608338511 -1.550336125487343 -0.14466954712765406
Ni 1.9356417085093462 0.859370144279798 5.5568451808248405 2.5174864044017027 1.1015991767552704 0.44815793630015077
Ni 3.825308833152663 4.685141585717596 9.677684991852775 -1.9255991733999804 -1.8509813887840896 -1.0961345540962737
Ni 8.964425196089246 3.0686441917616896 4.635348867601998 -0.6269043705068559 -0.3981270969950047 -0.5881933270899032
Ni 1.7383637441997017 3.404455331757625 10.450211280193951 2.117750568158682 -1.1823636976988476 0.229230816109502
Ni 5.2587573918886115 4.155034965964884 4.784413076206386 1.170455633407352 0.43443518739741954 0.5248901961558831
Ni 8.038414527764555 0.15671894450013776 8.288885981275932 -1.2061983382246 1.0596801679239816 0.27954910474807987
Ni 5.723138547098564 3.5207814630177654 8.489521318289672 -0.4581618415903981 -0.8372244657547838 -0.4755507264908068
Ni 7.510801006554488 0.9715512683703341 5.52581533766722 2.685197920950485 -1.31928831077376 0.2999793475779737
Ni 7.45447544688733 4.194989178535342 2.714471842684092 0.13784018291064648 1.0239662594621397 1.3547800759224669
Ni 8.886520483480753 2.773645998278679 9.821289314648771 -0.2046577547558282 -0.6430922931206279 -2.018260188670827
Ni 8.959189689149692 1.8118824501128021 0.10827803981655121 -0.1579240981447151 -0.1918482616959857 -0.4200226115165154
Ni 0.7740646224789718 4.213502743639055 2.48221293571165 -0.06590354467134457 -1.4092568668141083 0.11521267531911772
Ni 1.9037392808618 3.49979326676802 5.54039811740203 -0.20155751856394966 -0.2724921979012984 -0.034292088413650626
P 7.564605766584084 4.943084947898262 4.780615256093091 0.6278441087123058 -1.445904085723497 1.806541927523792
P 9.035930955771619 8.54080158520238 11.924232709286867 0.2657502511917746 1.477859555584171 2.0166254812808817
P 0.22290794069786277 2.0825498485592617 6.672219610641025 -0.6206087673061312 1.0844913134303904 -0.811953349892821
P 8.559739900428175 2.358905205162274 2.219343395484685 0.6461976715188291 0.32998592124239295 0.7184212448709305
P 1.2922653116358096 8.517625002454093 8.466479547536652 1.0909586663222888 -0.8221701425248227 1.0029143238878468
P 6.250668965023877 8.090547988400749 7.709764120804994 -0.2869402550058284 -0.17621312626189006 -0.06271511964103393
P 1.8428799753263512 5.398832595192019 11.150922479959503 1.562712901885141 -0.7643773998860707 1.2444344988876632
P 3.467493790093312 2.089752133238013 2.43485791394886 1.1480006468379453 0.4429511952882307 -1.228802191667045
Ni 6.001266773776346 7.871718572244687 12.163965371668258 -0.11567650232941368 0.8231800718465759 0.5367882331450498
Ni 2.0928454221705537 6.1106953324018365 2.0396824041732318 -0.33604524006259545 0.0583702124087769 -0.7423193916447667
Ni 7.1189874863321085 0.8813629669052466 1.4902792017004498 0.9499454850002995 1.069892846790925 1.631286794299797
Ni 5.316745017250867 0.9922162851793668 8.410813273928548 1.4854029151490677 1.1565423657603695 0.1715828265787303
Ni 1.8407008225261134 1.0844516975589147 1.1728588186207571 0.3156576775451789 -0.54240737910404 0.33803655946101135
Ni 3.1820432406587993 8.936890307740482 12.732679930778401 0.5678355893691576 1.2407213117021343 0.0735716027395636
Ni 4.386311407437557 6.1776211777243875 11.313230582044318 -0.18276455422716265 -1.692176173586002 0.8575104696973297
Ni 4.7870908487151524 7.255516949485978 5.519801429960463 2.1038038761706024 3.202121039740492 0.9151908551279334
Ni 3.354371752145385 9.182719057743556 8.982419827348158 -0.7098826112723 0.12089841284998533 0.6809846972910272
Ni 5.461797183941257 -0.018119286186043325 4.16850508505381 0.38616169710301235 0.13971220312237875 0.2881743845232457
Ni 1.8464441828725024 8.403016339078885 2.6861456263904953 0.6933715009911542 0.11056206392098378 1.658681641372982
Ni 3.818161950663748 2.292108631616008 4.534057967293666 0.9275180092347187 -1.367377452971503 0.48059317401072066
Ni 1.5702919676322242 1.7862589373133981 8.512779157583056 0.031055069533591675 -0.5836491593626464 -0.42076694588170765
Ni 5.5518349761239545 5.9497058024351315 9.132593003119107 1.8137854964600826 1.3105391038262204 0.5990750069994135
Ni 4.159051624728034 0.44156838017492345 6.532763988493956 -0.05968713144798753 -1.5245299630575162 -1.6834987004166617
Ni 8.1239739762688 4.291195081186508 0.5085016124561194 -0.2555943937046953 -0.24751624468225114 -0.008324460705295342
Ni 1.6659992505748626 1.6897021541265993 3.4857414246858096 -1.3375035482302062 0.8758234090739045 -0.6459441607471262
Ni 3.9778218280743762 7.02200595302323 7.683019637031232 0.4226636486837882 0.642518680005345 0.11554357629597521
Ni 6.747303428417007 4.05357508897755 10.596937516387237 -0.02478826268827344 0.46826756256583224 0.4145443620107635
Ni 2.608510537772539 6.925689245992388 9.659386571919594 -0.1971565612827766 0.17861479372484723 -0.5964074874695793
Ni 6.518815563832773 8.78375865503226 9.921728867973282 0.4054022905001792 -1.9168497093421248 -0.008359941928921087
Ni 9.12891429771396 7.849936277940617 10.012383471202828 -0.15986168148706018 -0.5271558522616082 0.14543547875940116
Ni 4.374649246476964 2.0986349510084734 0.2640440666515003 -0.6063478865117429 -3.024057233423108 -0.5826536282185965
Ni 9.228508967643464 5.022485519632343 6.333736238355306 -0.7449421739795944 -0.04977578587154653 0.12975406346840235
P -0.09605169988945547 6.193069154990479 1.1846622551654336 -0.14719899841772713 0.2549037953955739 1.3575388696145265
P 5.238794136150841 5.355683523007653 2.4678739256121207 0.2644338463731962 -0.43405800656365884 -0.36283304967940094
P 1.6079562230227713 5.315609272359217 4.504622783833508 -0.5780161294465852 -0.5971430800840232 -1.2671735923563918
P 4.279809931175098 4.847294561670869 7.4030806821156245 0.3949494705979714 0.1301045048292856 -0.011309768585864393
P 3.1378599942641516 8.346035186831994 4.67070192830653 -0.6435026411851691 0.7246790528551842 0.7358173288601908
P 3.2253031172228384 8.082459268684612 1.214066967421182 0.7223578609211753 -0.5764523845038911 -1.1199681661807617
P 7.417845365707065 6.297373011056088 10.398748186054783 9.7701920128864e-06 -0.08815901363543525 -0.22082073766893584
P 7.0644901989295565 1.872750989346557 9.41295024456798 -0.6692252427622539 -0.022504608860419308 0.31840053039763877
Ni 0.15138925383786178 6.059448306803029 12.625510858128411 -0.37895643760382475 -0.8513678471347016 -0.42438191692647553
Ni 3.396301976153346 5.750128647247269 5.569535052406901 -1.4800606770005476 -2.763302635673712 0.10288140744727443
Ni 6.303661159602536 6.394373011761579 4.123434480251947 0.38976047019786425 0.9024860059667554 -1.4527648173990724
Ni 8.930242044960096 8.699778168938359 2.090077159418388 -0.746322856377205 0.0336120316274905 -0.6186822397073797
Ni 3.3757200626290684 4.340059812622345 3.333312456418682 -0.6889736290337747 0.539820077992838 0.989411918526038
Ni 7.779778638210933 1.1998636926867523 11.435131096971846 0.06024403239272206 -0.4232794278909162 0.37091659801848376
Ni 4.684375188758191 6.427309613619407 0.4372220783822462 0.7339370811183424 0.9427140002488668 1.4159211662081614
Ni 5.556036308853227 3.2896250596230714 1.8533851538891915 0.5863547312192676 -0.7211286164997645 0.4273952498315027
Ni 1.1263357530753457 3.768069137353202 0.1394528520375773 1.2961152150914066 0.4833920769120965 0.10574947302368885
Ni 9.021600256000564 3.7456589515643177 11.751449899843621 -1.0476800581393118 0.6072804256283413 1.304713755393695
Ni 7.140714378446342 3.555527869743588 6.462975696696517 0.821724827457288 -0.2253042273615862 -0.16171930352108924
Ni 4.103058478199895 7.126032798139657 3.1057017931735267 -0.024214649572990556 0.1622036993566755 -0.5011519719986788
Ni 6.583331413897436 2.158367745350579 3.825251584223165 -0.4166904618194888 0.5117791126952218 -0.6087968622728677
Ni 0.5773545306151517 5.3662561075681285 9.522795242987074 0.29581158935352925 1.128325022785889 -0.19077919700152304
Ni 7.902226711448012 4.883536827522278 8.627828268367463 -1.8673323193382874 -0.8477595609581529 -0.8107714137695778
Ni 9.043437952494472 6.066115036980027 3.5585038907076414 -0.7678920979075484 1.728386819178604 -0.23201197839906496
Ni 1.349541942228495 0.5838938357555258 10.852009198394708 0.0070785041133361966 0.5044167587928796 0.2811778986007545
Ni 0.38199902229283544 8.984148375671058 4.338828037268312 -2.022338729615575 0.5822602494349198 -0.09876378573447507
Ni 2.6632017328395188 5.585030121534354 13.177170776467202 -0.7304126129048518 0.47054478863578314 -0.9045526586877969
Ni 7.0657182808042664 5.942605088437746 12.64735040136198 0.3908789000730236 -0.389074242764117 -0.19789729610354304
Ni 8.635954846246655 7.064360927153271 7.96129560288191 0.327994601843977 -0.5552235570321019 -1.1670052129649062
Ni 1.7334329493042488 7.404262595498805 11.749436953612895 1.1187129536174218 1.46995984112112 -1.038134837653038
Ni 1.029788203586853 8.128313814472662 0.2513440380013021 -0.32662780340343744 -0.16346353990570558 1.0984333774327792
Ni 4.187232871958225 3.265543574440785 11.65067331653094 -0.7129910749942946 0.09030434211321221 0.2983526106078281
P 7.575704671948006 8.237280688182848 3.6717145721593067 -1.001906451448623 0.5486834419207389 0.23070662932408006
P 3.8608124031395845 2.1363084400973267 9.839858281942321 -0.5714549312892997 -0.010086951922356821 -0.9317307617644857
P 2.1149231948204186 2.071386307307197 12.872122625747842 0.6135395191641757 -0.3614053160939389 -2.036018798205829
P 1.5349638379131183 3.9651901287916425 8.224326732829233 0.1577736886097799 -0.08300395179705705 -1.2189726071711329
P 4.195903314667644 8.117999773464758 10.886943972565977 -0.9697038985741494 2.0964854881323185 -1.0776328957476602
P 5.841412988701291 1.8712181954277458 6.201524452529367 -3.038150735401697 0.708479046056554 -0.11928221740280101
P 5.31276529328094 4.833268573943915 12.726315142536013 -0.4362087343580745 -1.8322647862111927 0.22747629531224048
P 6.2857570185870255 0.590545792015234 13.181765464744315 -0.6295775464636447 0.19885503203112204 -0.9783186368263538
