# total energy = -340849.3760485761 ev
CRYSTAL
PRIMVEC
9.45655637392425 0.00000000000000 0.00000000000000
0.00000000000000 9.45655637392425 0.00000000000000
0.00000000000000 0.00000000000000 13.84062613660060
PRIMCOORD
 96 1
Ni 8.723966547375385 3.3644536803914606 9.91509265715852 1.3110762072766131 0.06129792757853315 -3.251513731241007
Ni 6.4408322793681 3.2177919452484196 6.016741654145852 -0.7634741713455109 -1.6595524740137098 -1.397924986741057
Ni 8.649288120499081 2.6399774284704134 1.59759538757708 -0.7345631447381156 0.579627439797763 -0.977647321790942
Ni 1.2909996402084485 9.133908272725236 10.799494410404286 -0.7262731368151815 -0.14611784953840642 -1.2491200772887907
Ni 6.714486112082609 2.1949707915266243 8.529175667799402 -1.5433157283054517 4.943731556698221 -1.1900836920509246
Ni 8.989903829965662 5.292834686927597 1.1918665581590258 -1.264192398240881 0.7676463004453297 -0.8414410749392928
Ni 0.9413207669685046 6.525175307012744 10.265440108944768 1.22660826933952 -0.6677229471851146 0.8187796287860349
Ni 7.6354223258062675 6.415375229203353 6.667417047636095 -1.4824919121498596 -0.5694098758348128 -0.26693450130786284
Ni 1.4476569555981975 9.112744499222746 8.14567920277114 0.4535544247253737 -0.8312209398731814 0.1009566796207358
Ni 4.294023730222255 5.606499210298512 2.155317558706855 1.1323487992333015 0.04367558651107962 -0.9612642524472284
Ni 8.80834740124613 7.713297068787951 0.40217410982038415 1.7817827183012411 -0.25975598128155264 1.240453402752728
Ni 3.386638761998629 8.879177009616841 3.3267191828905722 0.31227127757144935 -0.4553508545041642 -0.16202809301075966
Ni 4.543648452807261 2.2418280291069816 13.360868941040604 -1.1509124211681017 0.06665224991191102 0.1436966416914235
Ni 2.0255754944979767 5.438635875426882 1.2389365682611913 -1.3141062523521885 2.680017148080494 0.16345428393432496
Ni 9.146646254364134 7.935469407781477 9.16740812421432 -2.089980340023949 1.715658058758026 -0.10171232683983773
Ni 5.859670141580317 3.456409236038564 1.7367637473298738 -0.7803156683828819 3.2055033259491634 -0.7008145875327607
Ni 8.783769810838187 0.6771225451231377 2.7839449906595406 -1.5953252886035234 -0.9005124271801522 1.4605683726038912
Ni 5.508283414231995 0.2906926562608843 8.735926254412293 -1.5971433156488686 -0.5461087392150272 1.651383307939356
Ni 7.113240731063628 2.398021973227016 11.21719145776012 -2.898664789357511 1.1225438973277375 0.7273290888835215
Ni 4.664853137785555 2.200786573789373 11.075186131049886 -0.37148172649333444 0.9650648571402413 -1.010654372844582
Ni 4.603328781035241 7.5772928728483535 9.595180186891671 2.4498800181066387 -1.5258114008731012 -1.002072544712842
Ni 9.122078120512718 8.111011466551242 6.710129476491637 1.2919641690375105 0.7857167847937951 0.6450967251451665
Ni 1.6476158433149817 7.140626918759434 3.2497513236796154 0.26284721861236665 0.38822552161057655 -0.5067034979445274
Ni 1.5213046178132987 1.736176495169684 2.9566623759953483 -1.3609823480784367 -0.36096488612241057 0.6270182703769007
P 0.7547816786160568 9.138088070709195 1.672183031510746 1.0832502419344376 -0.6080733538432818 -0.4710888340647112
P 5.909109019091943 4.1157770962864 10.512426452259353 -0.557183251861634 -0.652999782042327 -0.5618757722412968
P 2.0102369598147596 6.720405916467131 7.907634033650744 -0.08442474340398362 0.8740166948824689 0.6814336119029878
P 6.364688086230453 7.938117243608421 7.921488834615221 0.32730503197612015 -2.0518233693382535 -0.22132235989570273
P 9.694199790262799 1.281486344344505 8.432982629173537 -0.7880318060802171 1.1264586590011114 -0.31495422372025117
P 6.11723837164615 5.5805598757510015 0.7334675458648221 0.47932896258631635 0.169088856512283 1.0388040958059208
P 5.569505161173516 1.2552538565447244 6.655376014213076 -1.7760010786224574 1.3995195849216866 -0.9470751054310398
P 2.131365992340855 2.0105111999539784 5.1637716034771985 -2.059797902903298 2.5927549352277155 0.49176076059176593
Ni 8.174115068241196 1.3059126298480497 5.564333370410106 -0.3683604072555334 0.06428117857657316 -1.2241248407960337
Ni 3.4556810811861554 4.569767461928745 13.532589605318698 1.1476026400685786 -2.5022649594662583 0.7334837956310077
Ni 0.5802505257387932 0.47183677911593686 13.479164789231872 0.6817395731791808 0.38396751766517095 0.20537200721403343
Ni 7.064151746143418 5.298849056877366 3.490453785183478 -3.068340885831832 -1.3649852985902429 -0.6346809291284812
Ni 4.472204168262437 2.8970444610404327 7.980463703726451 0.4471935155043524 -1.3927136177434465 -0.02029680257582311
Ni 0.29620866568179705 3.5553626435140164 6.730350431308605 0.03829349626355986 -0.18689297457323945 0.006015610066460608
Ni 2.623939108604362 0.7983395236249138 12.156319249270524 1.1210274606832114 0.34885319046054114 1.0747170076524457
Ni 7.514160901488824 8.020663525513353 4.943719424456531 -0.04510743386159973 1.1794884330335815 -0.3818622983967101
Ni 9.095571392573717 2.8350472764638783 3.9728412444141283 0.36533344750375146 1.1589396623479524 1.5823828695102424
Ni 5.806874186502387 7.573406228116663 2.2895855308685 0.620576628516615 1.4251622251904552 -4.081305651977145
Ni 4.646289917327383 6.624800130001456 7.218233095535814 2.5024071414710773 -2.475967716332626 -1.2014898770053373
Ni 2.673680595924782 4.901522377931593 3.6810809429215943 -0.5234598914672598 -0.08707529365295326 1.0911658972370886
Ni 2.705218211934972 3.4113865704240167 1.7475867762725015 0.8660763569894697 -1.8217389469792045 -0.22412409101055597
Ni 4.749120512978001 1.0912109705091106 2.0876511684936863 3.328231850029352 -0.022582513286206272 0.8642457315386342
Ni 2.2762498948572345 1.8939307711163096 7.409261211270581 -0.40496134630801867 0.02847188218744774 0.2766794965097687
Ni 6.5197850697936115 4.629570725391546 7.623015323645736 -0.6017566675966346 0.8690318400733678 2.1421763053012137
Ni 7.87967572428519 1.021601257930097 9.719524448636198 4.202144158123473 -3.2776839618784708 0.08154510786334344
Ni 1.5514804896839185 5.788528466844286 6.073377916828499 -0.5945886890932857 -0.2016426220785882 -0.8023004001840892
Ni 4.508063430604459 9.116281251363018 0.03300243661588105 -0.24707195805598092 -0.8341481408223053 -0.2411162546931783
Ni 3.9820424739127533 5.75238550780652 10.686970844315752 -0.34418046757522014 -3.9310203013246108 -1.3869607744200696
Ni 4.453272142099798 9.200803953581634 11.047961650470656 0.46509430704417326 3.30966565699139 0.5130777769019873
Ni 1.4280062311396742 4.314024347272196 11.16627168349671 0.031789633706771056 0.1520799806591123 0.3844393150952669
Ni 5.2209270311130584 8.563545522488768 6.033295356342505 1.82900077074794 0.8432081941420445 -0.34505721375321863
Ni 4.989544006064381 7.2673164065221085 11.865915017983646 1.3879637617632872 -0.08393957623744898 3.2936078321975795
P 6.206565004579361 1.81651939940434 0.6633594727569516 2.5229695390034617 -2.621113945986383 -1.6709823131172064
P 6.890188932313295 9.121643118912576 10.898205730032702 -0.8035448141141515 -0.31906181813072143 2.184374021715186
P 4.124722998758856 5.6247503643913666 5.325983700169612 -0.7548514626735064 0.9270966054265839 -0.29312118700555967
P 7.086109870393992 6.564211972347096 11.615205628365247 -0.32036279633033216 1.7833132960131546 2.4615276296478963
P 9.16324251106515 2.551274928267839 11.77316889421107 0.6119048117742301 -0.012928278025893865 2.0090204152401143
P 4.989629115073105 3.9998964526315657 3.720250000047294 0.018683949562748468 -0.23635482874879293 0.3361030898837244
P 3.6524341962410336 1.161123292896918 9.36697645614663 -0.4008380681682645 -0.4108262897292279 -0.8648836222329492
P 0.3061276478206542 6.039042105742622 12.798551829095432 0.859526471686094 0.9075793613292626 1.4339865083503047
Ni 7.259089202345536 0.36799622322847114 7.378105640143993 3.4082060138611494 -2.51026623250418 -0.43791774662938127
Ni 9.132300658116021 5.616523160214795 3.823043715127465 3.3545257507288744 -0.9822987045200242 1.4313626975742124
Ni 7.530426178711471 3.782168695204692 13.2069748314674 -0.3202177861120356 -0.6425436197060095 1.74788915087759
Ni 8.87773961302507 8.350943218698333 12.026285923120682 -1.1888845295365007 -0.5525519237372096 -1.2521105273756823
Ni 8.596936623577818 4.965675657395799 11.477395230129414 -0.5817226317638949 0.6591814853730067 0.27403974489407645
Ni 3.4878144602574075 0.5102738987666174 5.359477877724783 1.1820916749843835 -0.36822953810462394 1.5606686177616025
Ni 3.7975545126705335 4.977259939138674 8.405551050006412 -1.5927091911369151 -0.05379133478884285 0.5192147430376606
Ni 6.808559936391267 8.362943588928298 13.464037135759158 -1.0228935952232512 -0.22360241417913104 -0.8908113978423045
Ni 2.831406502201833 0.7090384233943199 1.4011004365153283 -3.040006043442881 -0.7265752414366327 -2.062412457708009
Ni 0.7388388699709054 3.4692417832427105 13.673154698470206 -0.26424461318052556 0.16609814931507524 -0.258385069075955
Ni 2.575767409667057 6.162525820843392 12.433269637589577 -3.0416492354732583 0.9411996204868694 -1.6441423101062265
Ni 0.9443988761173254 0.38048455177511503 5.321457792216846 -1.0884143026338804 -1.6011920317969457 0.2810611705172321
Ni 3.648793421978988 2.2156901068724495 3.7859097089659013 1.7442795791494605 1.1649102781090905 -1.4054562621210955
Ni 7.154556426520456 5.753558120815595 9.790028751462456 -0.3580798512651317 -0.38983786040301893 -2.969990019265059
Ni 3.6272041034328812 8.309372196215337 7.897211962704768 -2.790268879849911 3.60391452984349 -1.2176857700389092
Ni 3.0154027225047635 7.695329611390841 5.613467746801634 -0.7455427836780708 -0.9544060918748143 -0.754276821116959
Ni 5.548010408192657 6.997464109530567 4.200934333447829 -1.5657082370680389 -1.2482060501149537 3.2910177028729
Ni 3.422053566183985 3.6113549146973254 5.82311109405546 0.27697388782173593 0.5383267812767631 0.6947336714460036
Ni 6.850698352265753 2.4193181385208535 3.5000172007970023 -0.3964440528656269 -0.7925854868891705 1.1262519423069441
Ni 7.826047592233078 1.091059665604714 13.018091462752455 -0.6222514451158767 -0.20861391119009876 0.8308435019291045
Ni 5.488330079964678 5.030925897416883 12.576547816808047 0.7327232633158993 -0.2813424492030767 -0.6170177075207631
Ni 2.1432434273359973 2.475877803095651 10.020405598896895 -0.4163186803023669 -0.7881048254099975 -0.4812691170318228
Ni 9.101973481341004 5.753406815911198 8.26303412358819 1.2939279776321007 -1.2167465460540914 0.03356832287374864
Ni 8.1935293787866 7.309747975648861 2.7435446898743128 0.03049199794127007 1.709509779768443 -0.8777645919606755
P 8.109091785576709 4.467702847356635 5.470825993837283 0.39084444729066237 0.049692996349753125 0.2847085374618323
P 6.607844524152499 0.2848390477720364 3.9072363835233643 0.07740537466335701 -0.31519539319677975 -0.30695783577833585
P 0.6102164620545627 4.048853045760428 2.5176511958882792 1.7817647205791123 -0.1997358919741786 -0.49117609173288956
P 3.19290228847516 7.177006291710319 0.19012879720925996 1.8285737105128508 1.2152391082706298 2.2325966041670005
P 2.44712041470375 2.83082965225382 12.52230689989313 0.9032118283891863 0.7101152961083963 -0.25484003203717404
P 2.829127472079357 7.671300501261338 10.901071066659714 -0.2680819846487448 0.356187005117793 0.12890559942517799
P 1.379929097767618 4.287545989002771 8.662806268051275 0.3245624362339765 -0.43227006142530067 0.5273414859098531
P 0.23279299762652375 7.738300204239509 4.687280307239758 0.2301641265570488 -0.47625109499194107 0.001891303485441904
