# total energy = -381166.25540427555 ev
CRYSTAL
PRIMVEC
9.21728696949037 0.00000000000000 0.00000000000000
0.00000000000000 9.21728696949037 0.00000000000000
0.00000000000000 0.00000000000000 13.49043117749167
PRIMCOORD
 96 1
Ni 4.158572562996897 1.4780103943331426 2.249354442705298 -1.8243144210158646 0.6743080566017999 -1.0784371368165104
Ni 5.412925489892815 5.61573345428685 1.9249769157615104 -0.9773881545922847 2.019083713013387 -0.35978680665390944
Ni 6.363467422179283 7.67635012110184 5.440704549252482 -0.5669832686711913 -0.7470257959815005 0.9096812381636139
Ni 3.6098398199950315 2.407905603888954 6.895876350022222 -0.08234035007112915 0.9368673116601026 -0.25161201201817956
Ni 2.821466834013551 1.4452152874243587 11.008987410406553 2.0813316632100154 -3.412583831213871 -1.7333958423574214
Ni 2.643342764026972 5.0012630208764834 7.05492893161505 -0.47081938245340843 0.2896483979656108 1.5594812823217208
Ni 6.970536374182185 6.121725637778868 3.6723920160393746 -0.7951190519443017 0.2718972446297769 -0.37145138747603124
Ni 7.492373073912596 8.516561128796361 10.705628062856837 -0.08066759035439655 1.4310001720284709 -1.376248530208888
Ni 5.230589119777704 3.901677558878089 3.4866959448370656 1.1066632215417394 -0.8569214299630791 -0.48967996680333736
Ni 0.7197124938864208 3.02758380441665 13.160549203935314 -1.3143042272956074 -0.9628755627984062 1.069608739891603
Ni 6.801343855234002 1.5540345769592387 3.460187949345505 0.725784370104221 2.3522889125240263 0.5774083206592572
Ni 8.802379979311954 1.6095410788717448 9.34305404834801 -0.050685956390641745 0.9049113275787964 -0.8026392715807468
Ni 1.4312787495811656 1.2525186867961866 3.7137131133614876 1.6984141840759137 -0.07944965878689543 -1.4070007237900801
Ni 6.533517148812266 2.936636834245495 8.321383234525737 -0.46883089126847 -2.050114357066947 -0.6476801696016266
Ni 6.797177641540137 0.2824573059710083 8.25997490378982 1.5883812531855224 -0.9530308087938426 0.6425551896702353
Ni 5.98018497963067 0.6020123483912784 1.4839610747772998 -0.8179980134250041 -1.8093223184824063 2.0388822357965535
Ni 3.1009165392582143 6.232830814473213 0.631721507634784 0.051306620693776145 0.8059343973922508 0.41687378147488846
Ni 4.608827812403076 6.366610517023548 7.427885247612255 0.6799804243962289 -0.7263204451133491 -0.8589621145421916
Ni 4.5111522227705905 7.8510914467838875 2.078228136958502 0.29322248847011434 0.9290383025339871 -0.15529488805198416
Ni 1.125209519673049 0.5707731195168404 12.61310780283281 0.7562432008147105 1.6396336236025955 -0.8405141922496492
Ni 8.951303684293748 8.042838666857927 7.199654162398713 -1.016168874904908 -1.1523956905818475 -1.4287535420861395
Ni 0.49671682765101 4.723868770617953 1.0901700033959993 2.0806094403320103 0.5276204506028526 1.3895460186487423
Ni 7.237948302691922 7.823052459932701 1.2291666903505978 -0.7637073704022396 0.5463385958376462 0.13758924324210497
Ni 4.847444936533092 3.172442685860846 10.204957940840123 -1.2347779496345057 0.5195862674444666 -0.9962243134621811
P -0.07065142607265873 0.7876835329188675 7.458697716101679 0.7110707180431303 2.3210836905658154 -1.0922115648927835
Ni 0.9340245541019424 8.973452824794538 10.220296428025874 -1.3880601781318354 1.6578874276064608 1.3071627311548197
P 1.4635484711347497 0.7246437423957518 1.424022901307249 0.6326122195249105 3.270101264435207 1.5152125423113323
Ni 2.1159296057018966 7.877074978648941 7.114421910126222 0.40001582937728525 -0.6703249035843359 -0.6504430770587443
P 4.745538612198208 3.9044150930972874 7.86188581151151 -1.0511952703814218 1.7223992341366015 0.02605298833330997
P 6.466396865363766 7.3480119259628 9.161729736338179 0.6578051738507704 -0.24938672223208663 -1.0047104965563212
P 5.816651874859551 2.737829172380526 0.9391714871255132 -0.914905976897663 -0.28500858520075434 0.2953449341297559
Ni -0.026084922021320556 6.688533480456991 8.949282333269268 0.2040538026232421 0.1404537092740936 1.6128812952094158
Ni 7.583725604708818 5.9246508258573645 7.521832444680209 -2.107420389877267 0.08921033771808506 -0.04714426178597042
Ni 3.6356021369736857 4.646415908517191 5.068435842860504 1.383233189056837 -0.7189362368341361 0.2876588783394078
Ni 5.243889664822498 2.311898343191401 12.275536651372654 0.5602356655347125 -0.6257224343836126 1.1292035687361004
Ni 7.502051225192592 4.689958371990236 1.697756966924555 -0.021106700071628168 -0.903457111630773 0.3433651707627764
Ni 0.9661191472037934 8.201772345449315 0.6116951083147404 -0.16966041274503685 -4.587509327467119 1.5448527337752687
Ni 8.882948284396182 4.9725143029314305 11.134435607297853 0.020598392976641944 -0.11921356894839469 0.36774385671745696
Ni 6.520990855869873 0.30705916652475623 12.989153753410063 1.1365114152514233 -0.34207627674802377 -3.416721507531329
Ni 5.776344679100103 4.609270242175875 13.400530486531462 1.7059721989288297 0.3420166271546819 -0.906384055469581
Ni 3.466879699659102 5.239705016554766 9.440819967392443 2.168543225330517 0.5198359215614273 -1.1826300639863567
Ni 6.516013520925874 1.6179195926941408 10.382532660525474 0.4448293861475501 -1.305065996526791 0.06965015619797037
Ni 6.061840924573031 5.081683849369777 9.294745325801742 -0.6040917434877145 1.6829438563544565 -0.053055227953766694
Ni 4.715490256795557 0.9505603668603344 9.162323329616685 -0.9019851550709368 2.1401978414186043 0.7669629012250597
Ni 5.106515220368165 0.6523378133185604 6.806772837237732 -0.7000985353023427 -1.3888546490086726 -1.2532582678268802
Ni 2.8262045194972822 8.143380832726677 3.745604926150805 -1.4998813112709009 3.871281747813397 0.5379442011263639
Ni 8.45392044679746 1.2928350998425666 11.519681331963264 0.14409259157826151 0.5999260421457989 1.9915150593664994
Ni 3.2458307244240103 5.092246860195373 2.8753096156345914 -1.5862755196964295 -0.10505321828761262 -0.06250197518896332
Ni 4.074925684076937 8.257435541239689 8.556495024435009 -0.11539033854756256 -0.20655934265391523 -2.4319221480766373
Ni 0.4622902609550269 8.40992633626468 4.866201193713723 0.1401822007802618 0.007730278764722171 0.1276465302070963
Ni 7.762172279738064 1.8860689041585428 1.190437494114137 1.2601344261214233 0.731560867576682 -1.375517051359502
Ni 5.128295669391622 0.2775186836321307 4.24032621118075 -1.2408256984904824 -1.0315641264140556 0.8976006528499961
Ni 0.5713040352442001 4.712531507689959 3.6887020052678996 -0.18144789229826816 0.06308844382005264 -1.8494603241538732
Ni 3.8663476980626394 4.0367384643121555 1.1021331201067668 1.4526329198068983 -1.4108350099345057 -1.6042477879041341
Ni 2.1559695001402774 0.6330100843480633 8.678394565856976 0.4892981579838864 0.042973161127416316 -1.9455231660174173
Ni 8.630910790491239 0.28609076048012655 3.017175644011535 1.0348227425606693 -0.4908372203362321 -1.0360571291884029
P 7.508134634568589 4.010579803995369 4.011312578306568 0.24667575105882675 -1.0585203432879253 0.6203454863424155
Ni 1.151285224407436 2.7694536838487767 11.00240442407877 -1.9572687365891195 1.0906164524915216 -1.4586012215751911
P 8.625703023373909 8.318841106789526 12.601182476998469 -2.147929148624591 1.9354835223932279 1.089651260364775
Ni 5.8311875363534105 2.5018574096003743 5.499805793068986 -0.3239564272188614 -0.10282972827373259 -0.018706318160251655
P 1.8309126591495033 6.610057499506629 2.8662305880052625 -1.9094071370211505 -0.13337726204328643 -2.889961605156558
P 3.8868653787762293 2.253073617982896 4.10327621522647 -0.7836714722289922 0.5942577881164282 2.5341656648295974
P 6.876695175913965 8.363222343373502 3.4403431305780483 -0.13586583279309505 0.025643925820349384 -0.6251778747340523
Ni 8.237848806506364 4.064851189458809 9.178484920525584 1.6448349652978769 0.3467646833626286 -1.2142366351480443
Ni 1.322247462446819 4.879788396382144 9.548229933755216 -0.5392333522514327 -0.575592350496441 -0.32079936964711847
Ni 6.892088045092624 3.8028498083789373 11.080500652807478 0.22536490539619253 0.03759826996874815 1.503322989962598
Ni 1.5778059599602938 5.427018721613875 12.423782885764847 0.9825429593203465 -0.19933402855006963 -0.350926270939486
Ni 9.245768349952804 2.8720052182689932 2.6432340000411587 -2.157423975488904 -1.3410233884580065 0.5122336837341372
Ni 7.725957559377016 3.6289288212339557 6.422470041025601 0.6108753420684511 -0.1381443444146266 -0.32591483649681285
Ni 2.115238309181897 0.9795579515525867 5.904154344903721 -0.16583923922673374 -0.8444227832754361 0.5717320962100864
Ni 7.5906754390565485 0.4248183026562719 5.839495077066419 -0.9191045883600428 0.18127614260709426 0.05659615122748963
Ni 2.3131150250666 7.373027642699855 9.606522821507667 -0.26020541011414544 -1.3648698560583008 -0.15965187946909923
Ni 4.701120506466497 7.27416302305297 10.383652560887874 0.35140758145127865 0.2547289603806065 1.926148103924915
Ni 8.525630939138757 6.3250497702411685 13.566247166577087 -0.17754418636848776 0.43651006764857725 -0.887419084331304
Ni 2.122962395632027 3.0634206160134325 1.969386725934982 -0.2566665437229515 -1.2981325026317512 0.03743397647674198
Ni 1.676596841311712 6.180559580274306 4.8789625274729165 0.9982590845040228 1.0970686358747688 2.982460126707612
Ni 4.364827792703996 6.683399451635126 4.073489630772725 2.822320766079133 -1.9383047938921072 0.7371404185469885
Ni 3.0091860996977258 2.6641369633485614 12.756686403121966 -0.38888732356429156 0.9229612431019718 2.5752045850487777
Ni 3.2773446284490615 0.020046677351296848 0.18569975811708236 0.6282356877237697 0.5791412441899639 1.1836574768096066
Ni 9.199174964504827 1.9522305897659769 5.365495174791292 -0.2416101636104613 0.5581294178249872 0.3421698649030946
Ni 1.7367672904124827 3.617462516288895 5.416785689660493 -0.6737992352861815 -1.4138876807179004 -1.0231195951911283
Ni 8.552904891174476 5.634195680014307 5.385596234135495 -0.3124327428499781 0.8179471055824107 -0.06572845254606101
Ni 0.2634263736397643 7.146577337321832 11.205300874427364 1.3890929902717237 -1.7669839627255117 0.4470191947100172
Ni 8.845231146265 6.932616455738471 2.5932523399164897 1.912355678126513 -0.3266838534523535 0.404646129060445
Ni 6.972011140091518 6.509072903865078 11.50678450408615 -0.8111305968812095 -1.5325842008205606 0.28546521312219864
Ni 2.724049328415199 2.784173691081303 9.064760190884787 0.6282835102425696 1.3574324259436492 0.3464720918228743
Ni 5.850691315504334 5.123880588950557 5.547831544906403 0.9272637271320675 -0.04088156870571024 0.8718819079276532
Ni 2.793833407787431 7.7320040996052795 11.982807600843143 -0.13670426953399037 -0.4418402216122391 -0.4447558525971373
P 3.836732555145854 7.809788784035641 5.739207308317028 0.5370872524427073 1.2020161818224524 1.5740182995956313
Ni 1.028815132924296 3.173631715875245 7.574202303849303 -1.6615826170698609 -0.5487050391872937 0.06738192898908395
P 2.984207252108405 4.057311448747345 11.16132151155368 -1.0399178976953898 0.03426869137488291 -0.05555639710906561
Ni 4.748036496957141 5.254047115023027 11.4998097830637 -0.39199270196249264 0.16123310791329007 0.726228399620175
P 4.471997187877809 0.15879265410130888 11.749680292810618 0.7678859272599614 -0.6941387181744819 -0.07535620544381215
P 0.5324725271227791 5.642371413524169 7.155472940941189 0.831012166296485 -0.460731144979471 0.21746056294745128
P 8.065752842174183 4.27407438555844 12.938038366992595 -0.17287352036569584 -0.5932645709652234 0.8347356378946592
Ni 5.206900692359049 7.573227114891757 13.402891955443781 -0.6005809021209786 -0.6792283767215528 -1.384614642785396
