# total energy = -340855.9110956129 ev
CRYSTAL
PRIMVEC
9.37676726398018 0.00000000000000 0.00000000000000
0.00000000000000 9.37676726398018 0.00000000000000
0.00000000000000 0.00000000000000 13.72384670899116
PRIMCOORD
 96 1
Ni 4.751170425732478 1.8674300687922374 12.877963910705793 -0.4676520404690204 0.6481928475719869 0.9770870784120977
Ni 2.685252949161404 6.786904088734008 8.648191437343142 1.495487038857947 1.1034241457791514 -0.6188416481033794
Ni 7.8901088783883635 5.476425860448172 7.828850458366673 0.20785620708846783 -0.9391386241927825 0.28432570020111675
Ni 4.488414655665464 9.140397638111635 12.037844953323374 -0.2935454190271719 -0.03258410458360839 -1.5046283390375828
Ni 6.576611331068856 4.096250121673861 4.287549299728431 -0.22681783579263518 0.49617457338874543 -0.09806136035081175
Ni 5.419790186648846 6.552719328280662 8.126218689144856 -0.3721728390230881 0.5432273039021741 0.7318732566107783
Ni 9.011542103450978 3.8465936953647377 9.627621024797849 -0.732942321305241 0.6314979034148092 1.362674905289511
Ni 6.859386499076526 0.3455376214858852 5.616745430669599 -3.264508857949094 0.960889385606313 -0.04397512002936942
Ni 6.493298754627294 4.164541117084539 0.5634068070367758 -0.4518976058482411 -0.10902480134085095 -0.09166548412679697
Ni 1.8667174344861532 0.5785071529120138 5.051693000991801 -0.3386405115935974 0.9921434585245882 -0.6430848369214602
Ni 8.486452517840291 8.34628860195414 11.292804539846655 -0.8533792211377754 -0.7168618708036105 -0.33547136983699644
Ni 8.428588487539686 6.093567169517139 10.691754700944415 0.31852240068748366 -0.35627442262527675 0.8812093559761662
Ni 8.169349005167168 4.05628633993003 2.6338945199339734 1.0609063270215986 0.3187139478729995 -0.9889236660357097
Ni 8.741500585280972 0.47048210655354444 2.4278860071957933 -0.6738388302748654 1.254493425785562 0.8262419986013513
Ni 3.4787056116159256 8.641047278424647 0.37282495167188245 1.5146571840284946 -0.08408227246290036 -1.4366393725921194
Ni 6.60320384280642 4.994263115011877 9.940716907175966 -0.16513449985022527 -0.8619049992205995 -0.977734996408742
Ni 7.940377727268859 7.898773011267599 6.075615348740845 1.882903691413983 -2.7724547344866255 1.2901613115008168
Ni 0.9165030405507468 4.615544865164021 8.041158283299952 1.4768162019213211 0.8231111662818534 -1.5828495247340157
Ni 0.601930317340941 5.571140585787082 1.7262131419511753 -1.8516095092863918 0.11532734652011105 -0.7686271763013601
Ni 9.339644564032481 0.6732875156212199 12.288249645653885 0.3970402916887291 1.7727648310733468 0.5329441768086113
Ni 3.6957590184216937 4.7528957508945755 8.188511366587086 1.137666354791473 1.3322268732122993 1.1808891700358501
Ni 1.3286879101597249 8.227831902102004 6.773267456216399 -1.9266057602876239 0.6663052409019816 -0.7269354529895287
Ni 6.50302246219847 2.8232414550605607 6.420468466222202 -1.4227232767316595 -0.6634546588270638 0.15971127195212495
Ni 1.1122533699881882 5.368696182256041 4.760555632008264 -2.1070671203029065 0.05513884995567279 2.1300661523012416
P 9.050108746884197 0.04590208840229289 9.185466131911152 -1.492059758343953 2.6459513167450366 0.953093543710978
P 0.4542490472023199 1.8023834348276784 0.3908480358787844 0.26782847387704195 -0.21236232248893752 -0.09379949975066426
P 3.015165125809673 0.7267669695859692 3.1532867818028616 0.7306936344803803 1.9887727207346715 0.5703380440760372
P 4.855355685928559 0.6363036704888841 6.876333130410552 0.8604813794001954 -1.5449242104431522 -1.7352997442483533
P 5.927617143871361 6.032721327251602 2.52898912401806 1.2427509405376533 -1.3133464913680286 -1.2454783667711453
P 3.0481057089316996 7.494146753686706 4.432857310092447 -1.2001590740090557 -0.943506157132859 2.038969910414353
P 6.606513841622839 3.230483830686157 8.552358063679025 1.3378961556829345 -0.625173246748362 1.9678323710375785
P 0.12949784321285027 6.863249727156877 7.633354239319954 -0.8645694334266402 -2.368781510862411 0.011529855016470466
Ni 4.162093780849172 4.93636157764253 4.384096245375351 -0.2511546127657868 -2.780043602577477 0.9072204353279473
Ni 4.033303883558813 6.786116440290441 12.232489761909667 -0.5372425470736489 0.3560543361946707 -0.785986236405098
Ni 7.916495101247851 1.8319296282286188 10.061184923589353 0.6283997241054596 0.39377807599768955 -0.03554215877066782
Ni 4.702392482834447 2.5747008640464912 4.425418720684334 0.2255433399555858 -1.0317399898702877 0.6176861943426974
Ni 7.526374702502648 1.9260817475364087 0.6225863977734807 0.19518915314376062 -0.7878847389793914 -0.23577067411054878
Ni 3.2770207262268958 1.8538993937438217 1.2167068057257695 0.1467050895004441 -1.9514883824619165 -0.8025120019742631
Ni 1.0425933665684521 2.0105382895745785 10.086217141267282 0.9542178871234083 -0.6053682962072929 -0.17170212576541397
Ni 4.6269376372941835 2.1484892884049938 8.254303453542878 1.3131708850221124 3.382565173364594 0.41758983370530667
Ni 0.46848297978963443 2.5127298097187167 6.411314866095894 0.25700078713391866 -0.3821867716156644 0.8565465631221635
Ni 1.8059372295909142 3.393752100916934 12.031353417400977 -1.913053475524486 -1.9020404122434342 1.4323104061994623
Ni 6.299302818330227 5.5218094136251175 6.175923315705798 0.7210571398318807 1.141429678488647 -1.3312951054266493
Ni 4.985655242735754 6.86440306952067 4.112734478385652 1.886609165290028 1.410551674366132 1.0236381866987596
Ni 7.966529530948715 5.975279251474338 0.5231054616742741 -0.8252163855503143 1.7862939759080334 -0.3340158683373925
Ni 8.72688220523906 7.446109575396315 2.426554506255478 -0.47111994441296284 -0.3241150642839128 0.49919844781673384
Ni 8.151279974801058 6.083346493285141 4.230224433540982 -0.4764585830170568 -0.24570156007101557 0.5427578204649234
Ni 8.917633780090007 3.880087507750698 0.19405688528377266 0.0015496038753070084 -0.04205399174725661 -1.349731714865282
Ni 1.6340423335496435 5.777185667917285 10.512329323176614 0.740116470456177 1.982880266509637 -1.722074760917647
Ni 2.322090756073993 3.536400860107195 5.7524872631511546 0.7786002283536719 3.0387516022104895 -1.3365787224230916
Ni 4.633004405663085 6.189857191743181 0.7505802075298058 1.1388408347155483 0.25011897241242087 0.5232158937772539
Ni 0.5374762950624943 2.17233440735726 3.800544391717635 2.8812764186777344 -0.8999886934661985 -0.6377335999118758
Ni 0.787443092365451 7.744309525423835 9.419320830159576 0.2638630614713907 0.2968055778356824 1.4923240677489331
Ni 1.7990077986409634 3.6018225647591664 0.6447652651969161 0.9515693937569677 0.8012521614252329 1.1014173997617676
Ni 6.198821381172346 8.327835124133433 2.528810965441539 0.5453227529786222 -1.1487228697159506 0.8651695289044842
Ni 1.0377362011664568 8.102005063242206 4.238101855653369 -1.8360787606406446 -1.8544577773684645 -0.9666401720471611
P 6.669722629219074 7.563544207625252 13.078126009103926 -0.8436936184188952 -0.4238396712697604 -1.3287893082856599
P 2.6318616368081966 3.088341416923904 8.235707448860953 -3.457309970476652 -2.522024658591689 -0.013075859347351672
P 9.165996212527556 0.5305599915866028 6.013309543824555 1.2859578149424304 -0.9534090180688675 -1.0331211864885306
P 2.688900511596493 8.359791146701 10.52787881620003 0.6114276150274953 -0.7488235113118717 0.34153660219446985
P 0.43875487710529854 7.831832270331605 0.6606101263866684 0.07334097478599627 -0.6516746354730002 -1.257442481111557
P 3.3088923578897957 1.6955820565868929 11.045637645225234 0.14169709476289144 0.29528914119115596 -0.0013804252872943968
P 0.9627877010542008 4.008333552544308 3.0324624482364317 -0.35955129360433563 0.15831464871491444 0.14916306412263342
P 3.278052170617281 4.973174765612093 13.204261343604122 0.34171040876817277 -2.0023651147071257 -0.46279316971482237
Ni 7.703914412389481 7.480437920061769 9.243930275311618 0.181489544169481 0.8024040156414891 -2.9245529699781825
Ni 2.3620732913521936 5.645207669783917 3.1087255711080695 3.003976146402517 1.4196826901331228 -1.8857059367494686
Ni 3.2033849735205844 4.327903154987171 10.753402256804296 3.8906300704330223 -0.32499103913096283 -1.5044776723923314
Ni 5.3805015321423575 4.543700074990105 11.997043826269895 -0.6084829305768746 0.3696703843162085 1.0549416247977317
Ni 3.0523440076994635 8.14957340317333 2.3835301477023596 1.0360609858431449 -2.4217570346181776 1.7442780364875639
Ni 2.855956995770139 3.052569050111911 3.0593475151101783 -1.3200020490113333 -0.41239749087108973 1.8919089802363867
Ni 2.9875317929145377 6.116577756189912 6.305915314549313 0.12628127442845347 -0.7205570602670106 -0.6618204656577505
Ni 3.41639699366948 8.360775707255458 6.5698384921308985 2.3553564957057564 0.4162420614281606 0.48970824893811143
Ni 3.62499255647409 0.29612580912612735 8.794707175320628 -1.2205795466469365 -1.7489448458356138 1.743250623664314
Ni 7.725002761789264 8.817321124741463 0.6545030379188701 -0.1805714032305858 0.11132979532494376 -1.3891734658006722
Ni 6.930640552917766 0.694501513701286 12.012633639392206 -0.5851296005629149 -0.9581874132941175 0.6814994321439166
Ni 6.064639842750429 7.5446406449796495 10.883654929775565 -0.02167259987742719 -0.4538447022722829 1.3288864959851567
Ni 5.609266521162589 2.4460891253326533 10.642719834625508 -0.9672127567211795 -0.15339895658085193 -1.4753627573042463
Ni 7.853492602529691 1.0998854140707521 7.523083457220601 0.6914778835128672 0.6571785960103649 2.710614561251377
Ni 2.236396480767361 0.6440751351320766 12.817235278030074 0.07520733857077369 1.183416307333078 -0.6774283473983366
Ni 4.607415208014349 9.064230158265287 4.674465657126411 -0.03633945786098258 2.295093437149641 -1.206624112908109
Ni 6.52151344708792 0.1168129525645505 9.478689831593424 -1.2593479256643858 0.6237979636673902 1.0061006920356286
Ni 7.980228987806466 2.010106958284054 4.530036249847658 -2.082830359242729 0.7102122266975769 0.17261101073292853
Ni 3.024194952609135 1.6939223687950917 6.458016792739094 1.3754676861788053 -1.4649968406888898 2.30444505356787
Ni 5.4387687634319315 0.7768998553422781 1.502363454289488 -0.13011556057287912 1.3197667930720753 -0.5026956623367149
Ni 4.404605110563081 3.859055418954027 1.7749601415174938 1.4745315196522026 1.1187466350688344 -0.5587359410607344
Ni 1.357774641968585 7.538658267515416 12.28422888788482 -0.17595113084975506 0.845152462352609 -0.5988304950887751
Ni 2.2341460566428846 6.48082765427082 0.5370637173063402 0.8722935415437753 0.9081889698888037 0.3850378679112143
Ni 1.4661044332605773 0.12226460500609505 1.5857360420410347 -0.5162029527945303 1.5754509182770997 -0.6123496126211324
P 6.45747012721219 8.428475966333464 7.702303483787043 -0.6458408024000426 -0.24259978121724024 -1.6513326572070786
P 6.6917299018030185 2.799086902791178 12.454116218071716 0.5834671252588274 0.6884763776823821 0.6231410468096816
P 8.293900603689762 3.852426044554006 6.137674544680162 0.013977545226014637 2.185964763241074 -0.7205750579891397
P 7.838780454815926 8.680139020820244 4.049357846656798 -0.26889393902707887 -0.7495997273562639 -1.5357559136803227
P 4.710578400587231 5.923669524886341 10.257422844920432 -1.067027095207356 -0.03813743030166981 -0.7091341631420497
P 4.766679598656995 4.207496087560487 6.452376667277124 -1.5192430036269642 -0.5013869708276203 -1.53074329095708
P 6.514199568683371 2.721850471485704 2.4062022330797426 -1.7004474124558584 -0.753722748385702 0.5691352820171875
P 0.34992313549845894 4.978060061315644 11.691454983700345 -1.7127953924982504 -3.1268913325722147 3.469219063209412
