# total energy = -381165.76501731446 ev
CRYSTAL
PRIMVEC
9.24493713166466 0.00000000000000 0.00000000000000
0.00000000000000 9.24493713166466 0.00000000000000
0.00000000000000 0.00000000000000 13.53089998475781
PRIMCOORD
 96 1
Ni 1.3718839320329457 6.824963780071416 11.048981029377057 0.750935672558868 1.9029950628472194 1.1397350643950437
Ni 0.7660160631026571 3.4477883043304107 10.234204395204866 0.042299017878527155 -0.15612946813813755 -0.37288246349560294
Ni 5.563011393568273 3.0669616156575414 7.249274029790406 -0.019415171301818173 0.7207496358937909 -3.479354094760885
Ni 0.9088475658334423 3.433181303915216 7.9509055783414535 -0.06145913574674577 -0.5894752791261202 -1.3498235032481398
Ni 6.522663586035678 6.241645236908662 9.614461724867537 -0.5185971640583198 1.0799414892761787 -2.388054757269726
Ni 5.6546379638942215 7.686222108349631 3.6189878961586808 -0.9820192256063928 -0.5770442524516192 0.8379955395928534
Ni 9.136835923633086 9.266200326677279 7.5683870662027735 1.3397936298159634 -0.4654411488606306 0.9948040360758866
Ni 1.4627431725902482 4.082333043253037 5.23668823081172 0.016371499379487932 -1.9011932337517905 0.528636807682509
Ni 7.528050481701801 7.4995760758291405 0.8094607954134968 0.7291388883987507 -0.7634433181075755 -0.13207602673335966
Ni 0.7055967020181848 4.998154989537887 12.122616823248936 0.37898780506239244 0.424964528902823 0.0967585823789882
Ni 5.73551267252215 8.580743719851817 9.665094395673828 0.23878477834652426 1.254673403006852 -1.247329046826639
Ni 8.029089085816937 8.553998117192855 9.892725082777005 1.1874637379295743 -0.36683805707373596 -0.1568959139905169
Ni 1.5848133203638157 1.3126053961707738 13.505962628139324 -1.425741494732693 1.0675063488366197 1.4977727495683302
Ni 8.815121361956898 4.950266216024779 0.631688977892086 0.22958537123544331 -1.369740296776725 1.1648989652551809
Ni 3.105069245854652 5.474426407505993 12.328517286000267 0.4437783191752164 -0.6592095103974647 -0.15721421656188408
Ni 2.961957621533626 3.7353982935182093 8.526117236273777 2.6723215792084494 0.7596607111366918 0.10720471741297666
Ni 2.192436802825019 4.430636043659669 2.677819106178679 -1.3174039492668537 -0.43953368496624956 0.9364664766772581
Ni 5.312464356699788 6.9186057466571835 1.4140334486740582 -0.4718894755891357 -0.07776610043688542 -0.5191342675087124
Ni 6.593849600717325 3.463403002875515 5.317684048113978 1.241498813298107 0.7967946398745116 -2.220060933593835
Ni 0.8906294930371237 8.294483491461879 1.571559778721269 0.637897893403882 1.568563190018331 0.712987732560185
Ni 7.024672908532837 5.296036103701179 6.511176751848413 -1.1355485371175216 0.48685766686319387 0.34732981183747924
Ni 3.915988892322274 4.960028869466833 1.4157382150516291 1.4098741886831334 -0.6546180343720404 -1.786443099891388
Ni 1.1060642592873087 6.1754792230026165 8.965425547241862 -0.980524386228421 -0.9248229789010588 -1.1683771536117684
Ni 1.7759431473155527 6.265238316060293 4.680351960694401 0.26403995336888725 1.2357089460892072 -0.5055878962828454
P 3.9564447365101816 0.6043100970505667 10.435151420726791 -0.5987196805425238 -0.26723326349520427 0.5675062310541968
Ni 6.296865245440282 9.127812865148762 1.812856331655927 0.7214422910854414 0.6120991871732232 -0.1519552821557899
P 4.195093539496161 7.124897270242414 5.198612033400313 -1.3876963670345135 -0.37155937380880527 0.1059649314686046
Ni 4.718495646145701 4.603285241605092 10.825599315306048 0.3847643025348535 -1.1041846780942595 -2.1705561419954877
P 6.52137853979662 3.8096074025895836 9.12774167913408 -0.8502848984831679 -0.058683115663505384 2.074399454866556
P 5.055150025968063 3.9654677949945043 12.84002578123579 -0.6337715299403343 0.07745062607899565 0.8171999430037411
P 6.472426598531773 1.2519770995107422 0.1534419168931392 -1.3106136658178977 -0.2682879300119637 -1.0223235816523941
Ni 5.309117689516055 3.1796296625309486 2.568733472381784 -1.1623643717587853 2.0957720070050616 -2.9764064643143646
Ni 0.6248514225078591 0.11432196609763401 11.540774696520552 -0.6853103212495746 1.1488326558209374 0.11074898312080926
Ni 7.777636045125233 2.610566812178466 0.987128145147128 -0.9499647682740092 2.066112532267416 0.8500303592702005
Ni 6.8572286101024496 2.0100157065005693 3.352388875226335 1.6859345635516643 -1.8627930367070369 1.0028539029635568
Ni 9.368449329583646 2.914004133461716 12.307503544263723 -0.8191498676412602 -2.532795781065264 1.6342605322161403
Ni 3.452179649391941 8.871959234458556 8.384083571603643 0.22736239544219555 0.9255315749323093 0.7176247171115641
Ni 2.6117963887956948 8.907043770265938 3.9108496318597377 -0.283798366942737 0.2557849124489465 0.7573405476439473
Ni 7.19973503502786 1.6079441526668652 10.265311759127048 1.225299063609793 0.13258279116644905 0.5737121027545925
Ni 7.8378575645585125 4.264338117413764 2.8829882944155525 2.4258533161747384 -1.1476121531502754 -0.28826925822989713
Ni 7.164040333380349 4.110946123180271 12.292308565857132 0.3111873004786512 -0.4342588097205553 -0.3546132328727699
Ni 0.21244310464616167 7.742015302973494 13.0054408160009 -0.6124799675514097 0.3050179384431457 -1.007251003589988
Ni 2.8394622066593627 9.210296192809757 12.455355972263808 0.0942378728396635 -1.0637697646123228 -1.5639961394729385
Ni 8.656385794153795 5.414380541875175 4.89619627765243 -0.2638628043610746 -0.3746164154675742 -2.0041600018240193
Ni 2.1806679980601182 8.120087000428814 6.290231078669431 0.6897128211926443 0.09880003828904921 0.36681903091034246
Ni 7.178194331883933 7.314621866774462 5.533353635763242 0.1411651335188214 -0.3495515020791464 -0.32669336653405023
Ni 4.749946921723229 0.6054499977791702 3.218108014700622 -0.3968376887596198 -0.1423072175430646 -0.9212645721258392
Ni 4.5559604092472545 2.408158162121325 4.354757298971216 -1.8940573940379573 0.37326452942537003 3.8330936667794506
Ni 0.4601390029525905 6.22705672636741 2.365363348879592 -0.12893722399406182 -1.3964969960452789 2.435042438873174
Ni 6.4267658548288304 4.674314092358221 1.073284486266956 -0.7891777467592022 0.739060775498153 -0.5872209358743048
Ni 7.763269413071301 2.1620579399362017 8.094522900714828 0.5762844914674592 -0.7856604776345631 -0.5680186519142411
Ni 8.482923041754868 0.7572749751959691 13.57419858343332 1.5217786255646242 -2.4573452161354323 -0.8427950178640259
Ni 1.611725331888267 6.401878484501169 0.5152295823666082 2.8964940069584375 -1.2652959157177048 -0.4745636799871891
Ni 0.4869622630821141 6.105458070379395 6.741270290160834 0.07624914957172674 0.5265539570115512 0.1006687160666718
Ni 2.9742718775798536 5.773204280555536 7.17995549237703 -0.8989029166011874 -0.4059219104490751 -1.7048026041007607
Ni 3.2789757552282186 6.6750848618871474 2.8307183452715834 -0.12409095164535404 0.37112100071980597 0.547431828901825
P 2.1322337732656833 1.9578280372956471 3.77345692554937 -0.5867545377608475 0.18275812646925943 1.0495443650415601
Ni 7.086734170423474 1.3149628550985428 5.877660049917033 0.6084186529978425 0.02929360675779471 -0.20159351400820766
P 0.23557301245551404 1.314334199384471 9.792298256947749 -0.5557326354580365 -0.13652506364364872 -0.9543847517185756
Ni 8.619184167779906 0.4813829436197279 2.477033867053759 -0.4661685139449584 -0.15047072719046342 -0.4204298742572631
P 5.567347269007972 0.8470118804049144 7.575964216544732 -0.6550165553620397 -1.3359721991873443 -1.3128029601597324
P 8.752949160822602 3.315465521455292 6.363784721709516 -0.6379426305988884 0.017803089619691917 -1.8922848755185673
P 3.5257970824971303 3.6267980189123246 6.36014499002378 -0.09059281988790849 0.27725388095599995 -0.3235723044065653
Ni 8.20910649852876 4.521116241801134 8.224392077317674 0.9992304472783566 1.8939810322740671 0.7432886975365716
Ni 4.913240243453351 0.03497082308263209 5.451612676541071 0.19755482516245979 -0.7362320478001063 0.9425743893472089
Ni 5.17248676601215 5.174603856578655 8.073413936127476 -1.157906593097748 -0.09944461385158357 0.34217217889593976
Ni 4.849431688475073 9.074469578822384 13.363495375925222 0.21444388760831457 -0.1595523777767575 0.6576650487284802
Ni 3.6958207183426075 2.3416408406103573 -0.010081603767576148 2.574992983258604 0.124984667104217 -1.5612877394028402
Ni 3.804310053704832 4.722970195639975 4.468849990631953 0.4451759708536914 0.8024541521531341 0.3643615705087854
Ni 1.107950226429524 1.5306749694578772 6.443942023228446 0.1609888531129679 0.08743139144079136 -1.1422303200130715
Ni 3.487560023182417 1.4428665581012166 6.883277144513749 -0.027876928915926184 0.8957214335494121 -0.3877051303307323
Ni 9.25140842752265 1.9036711965157653 4.086033791522786 0.16338152171486053 0.8926805898405594 1.5127064880600272
Ni 7.999144734965787 7.4545902125251295 3.248728170444399 -0.07960161098372742 -1.3055277666545582 -1.0618342381525068
Ni 6.122385549974473 5.1899134722036955 3.682691058855481 -1.5121722128231119 1.9091014328552736 0.5180613461595078
Ni 8.390473672038443 5.4750088385352065 10.428359165533726 0.8848613509064568 0.13115377202940637 1.0694621870114096
Ni 2.000530401167664 3.8497674087943983 0.24175140383366273 -0.7777412227874864 -0.09995266383625366 0.2594183954364758
Ni 7.02125228185333 8.676419572571346 7.319297031401022 -0.7010480436998056 -1.33276809042775 1.3120005188630954
Ni 3.1183912000307887 1.9669990147715168 1.9642810033018536 -0.4712559557701948 0.2071854062736883 1.4949208819418318
Ni 2.511645986581891 1.6912040550334777 9.276108125629788 -1.7528228407337814 -1.1545790713864115 -0.4108502009886279
Ni 0.6255984134151679 2.8148429395038788 1.8553164781792866 0.4487485186962981 -0.5270753767326599 0.5898640299241067
Ni 5.8889139116926135 6.329139320408286 11.709559510811829 1.1279696963289993 0.5129350806765359 2.7140009612251066
Ni 3.3788303194589293 8.810702282084453 1.6609721866425093 -0.7551229711673383 -0.6037934955210054 -0.910638974091193
Ni 5.038185566625098 2.1526835738469563 9.035880287409052 -1.5195669626252861 -0.8294491926847393 5.372882612878566
Ni 4.193013428677541 7.7588595781358265 11.022406458052073 -0.9442993424581156 -0.05626884979505793 2.280274112748621
Ni 0.3529439587663958 8.38415938008681 4.726397293775364 -0.31279449706477097 0.41486960656066607 0.31093481814821294
Ni 3.3485808856877153 6.562268896022195 9.388482183507497 0.7069749507072017 -0.25769189966367234 -0.4600919687335754
Ni 1.4710636158647266 8.633144022607086 9.486540456484619 -0.5693306858574453 -0.19025931994231102 -0.6089935516647061
Ni 5.451804046736384 1.5939565630287702 11.699370665775382 -0.6322910887400659 1.040668145597853 0.906217962205362
P 7.307142712764403 -0.14189591510925492 4.338548150978835 0.018613501336129237 1.3513923903971563 -0.7463603944833598
Ni 6.682480811464462 8.763996860503715 12.099006178717058 1.796207121256687 -0.3843621820004284 -0.7359399704809843
P 8.027424997162042 6.143232882845527 12.664340545988876 -1.2716784222052808 0.7217999315351762 -1.5424721493582338
Ni 4.652403591735428 7.327925331076655 7.473656970535445 2.07401404650268 0.15042136200976675 -1.98979293446907
P 2.430558644403615 4.830350138565604 10.289708223301515 0.1649277831560579 0.1915998931306055 1.0434552214246868
P 3.698788343110505 7.146798525928236 13.419161914912573 0.19481505763379353 1.3132127940036415 0.8572489885058269
P 8.416941926588255 7.052888456170291 8.23521697401777 -0.3809007058143892 -0.05527511842322093 0.3864375764722183
Ni 3.2317988418619272 2.6650194909414404 11.322995414254358 -0.7806203441074944 0.4737267859081906 -0.47538951832259413
