# total energy = -340873.4940645011 ev
CRYSTAL
PRIMVEC
9.21105555618971 0.00000000000000 0.00000000000000
0.00000000000000 9.21105555618971 0.00000000000000
0.00000000000000 0.00000000000000 13.48131087424701
PRIMCOORD
 96 1
Ni 1.7910805002983032 6.729035158871592 6.2483175493895775 -0.4350751349742636 -1.0520930996053428 -0.3522534743913417
Ni 0.5988217610838474 7.469115822477307 12.524271949228861 0.8179792443719267 1.743624976284597 0.49034973917685226
Ni 5.5630076630615735 2.1136332362827823 3.154168393000729 -1.0646485676728503 0.45279954883722023 0.6851552837289491
Ni 0.2405319725814466 7.408543922544874 4.102281662622866 -0.13317877287923516 0.04191103841148911 1.040668402708169
Ni 4.346033820152059 1.1779189682572155 5.51129495615758 0.1990913164116442 -0.9670847157837474 -0.57654211600422
Ni 5.826692544351987 0.028772573573439875 13.040741348917347 -0.8261831203389578 0.893885408781938 1.8222886488350876
Ni 9.255728960934487 8.480535754363073 6.594639413685438 0.25236791634759764 -0.06546645713392596 0.3684804777731654
Ni 0.20028610847335976 3.004287021572725 6.0573686877169335 1.1246424317279793 0.10652903150219073 0.7475114773686674
Ni 8.087417123399524 1.1772834054385817 12.74609350509304 -0.5366457940299145 0.053928888807971635 -3.358055104038372
Ni 6.781123676833561 4.405030629620921 4.228372720312202 -0.36039153011744385 -0.9761789647755317 -0.8442752019539782
Ni 5.371565088822571 5.798755413498113 5.7760271344404375 0.38059911541357033 1.0334294617575688 -0.6217837614508388
Ni 4.132622878921138 4.343740267371771 3.8947639546000916 0.720009929514289 0.23142088178228531 1.3121329306759015
Ni 4.988587829791139 8.251972627093702 9.715427863230396 -0.5096217000325868 -0.2868296975698931 -1.512422381160705
Ni 3.15182049499392 2.4001707458779955 10.542168898815175 0.31561114057795964 -0.010905334058594122 0.889320672229391
Ni 2.931934181857205 6.968587075164594 10.233258656898506 -1.7443651968847314 1.104991233155955 2.241440684821191
Ni 2.488919264103207 8.580540182216847 7.816490510398818 -0.4428709768695986 0.8730648724921608 1.0399508078158541
Ni 8.26759457695462 4.395165589349078 10.882046708793405 0.12836746753352085 -0.11309717163801167 0.9292894993128448
Ni 1.6404889565033907 1.9020092397883108 1.4263494207948757 1.0769353554600034 0.8009613696576915 -0.04657733353890688
Ni 5.050891408127966 7.2657817757911065 12.062348577067732 -0.8965794106743333 0.6678507310122305 -1.331828609332616
Ni 1.8910480839307082 0.18538446314022566 10.339531207912868 1.12461980602016 0.45527346429900944 -1.454587729540424
Ni 6.051156751993935 9.271203533909924 7.242847169093758 0.6224396498672828 -1.3031173574408523 -0.3306047857733145
Ni 7.201424132112896 0.06119272506251895 2.843666480720873 0.3059247665281312 0.3931095891757552 -0.34193255208130785
Ni 2.735416316124472 8.924130968603649 0.8469998307051226 -0.826171807485048 0.11517950808833712 0.6727674515875576
Ni 3.611129769648842 1.0319145300228796 12.498037942507821 -0.2590322157416507 0.3829125940380954 0.21079909176687567
P 9.040779773461365 9.046112974504686 10.746923290235193 -0.857389113628117 -0.5642021063816284 1.6550615281218917
P 7.431000475469946 1.711386449474792 7.130265045169767 1.0008954936856052 0.8241604334819741 0.5321304226580642
P 2.5729425109377044 8.330082376398298 12.005808356058722 1.848860742896661 -1.4172067177888044 1.5234837811811892
P 0.343290505982636 2.979122418376952 12.809132125646203 1.2440105239763672 0.45554111613809933 0.996240511412097
P 7.61258722049245 8.197802410624321 -0.04986773251888662 2.0894301239474338 0.2045839640950993 0.7083805728054767
P 7.5837381951596665 8.298608200292895 4.91205040763351 -0.09102142278489485 0.35593118035324506 0.5380336755163766
P 1.3129530395786064 5.972549605700842 0.6590731162903606 0.2560957588211461 -0.17144552966991766 0.6955859921439698
P 4.847087597619297 8.326397954261289 1.5895407671928259 -1.3730500778762482 1.5845539090196323 1.1345617477242202
Ni 5.093225418482203 2.1266300353710825 7.425829389000653 0.5084737024710727 2.2188075208027076 1.1139039622645528
Ni 8.933305179724803 0.57049592369452 1.211617614227837 -0.37595081800828156 -1.0060161027416221 0.4837561451197346
Ni 5.119265071935516 4.954037161201334 12.506166698847597 -1.4939114668407112 -0.12025512283903161 -0.027485092794146213
Ni 3.5403059651201807 3.9393196715029455 8.782602182160245 0.15230006708971836 -0.27739889117429645 -0.11153625490879501
Ni 0.6481027493774154 2.7509553664873083 3.5697159437233235 -0.7125236484395728 0.3569969026135981 -1.0043592838644897
Ni 5.202440901678501 3.881336078121761 1.2382283531123865 -2.3636627015786065 -0.9244681666648015 0.5239018641006848
Ni 0.341914374314463 2.2262291767897864 10.825978093817932 0.1123384390951162 -0.8641295176757441 -0.49344046228703403
Ni 3.0910367407886095 6.188281732878079 8.20851394688214 0.42456857901598494 0.2155394346653385 -0.8314569671433873
Ni 2.4940498219289924 2.4437482487034727 5.312175888396118 -0.7811006261780225 0.3964749061035624 -0.23404623522027435
Ni 1.2189634308634993 0.7492456636715261 12.603286224168095 -0.3384206822733075 0.5686732547791046 0.5197263925667565
Ni 8.065338223743495 5.1489799364704965 8.794667743553417 -0.36810792492509503 1.5107074553521271 -1.4923024704823782
Ni 1.8182439025034043 2.173956437720967 8.591396332043544 -0.02326771227868896 -0.8210797376741215 -1.2603642827440424
Ni 4.276481141260667 7.925882845857693 6.289813353707644 -1.2653483662221952 0.19615485949113962 -0.8045601427525434
Ni 1.2355801747014112 5.183816147775919 11.979331177476638 -0.30011330205267667 -0.4046229891319935 1.1499582847849485
Ni 0.00010132160876775573 0.4206790296539135 8.778746434393867 0.07139876345796091 0.4051382382055152 -1.538897801743414
Ni 9.326654087071915 0.8205180465953682 4.79081265500415 -0.4198855717180188 -0.48290510997334896 -0.8531501358461048
Ni 8.414556964944579 3.6956688355825205 1.0311490913239159 2.1523923266022673 0.13300008120952578 2.071655316462516
Ni 7.372805027815883 3.8863008369513814 6.51540960005119 -1.1663279843922236 0.638511615728481 0.640043221881659
Ni 7.814309332493708 6.694981887270283 6.68968276713173 -0.914699774424128 -0.9459854719112871 -0.3501963347519969
Ni 6.953084869023127 8.323782014544012 11.193127996454306 1.769407741675656 -0.10541780071588296 -0.05411863622127453
Ni 1.5690480112667802 4.819841295916113 4.243080933483142 0.7338617477957168 0.8263016481946931 0.7254174736831055
Ni 5.8207606247114025 3.6249187194965993 9.864248121082943 0.8026909507542885 -1.6482725302245163 1.1189407533575118
Ni 5.65640776423476 4.8342105422504495 8.026435331504347 -0.139524769701921 1.7003322270342327 -1.3885918822655892
Ni 0.14779322518185403 6.660799660894179 10.276277048664692 -0.29366291844164266 0.3116745245277148 0.7689827598685659
P 6.7764536717749015 6.076201611470257 10.931994577493771 1.1275534347271872 -0.22886494812965102 0.44642167033533436
P 5.143821745478683 3.6325638954308936 5.84956727918961 0.25502900811952856 -0.10170461353035386 -0.44860942201527254
P 1.0769289574817906 0.030892958513288722 2.7461564066538537 0.8794419796630983 -0.6979874024966108 0.773681450895816
P 3.628814995906487 6.740337123776868 4.50232608609846 -0.036418647838350186 -0.4638414084736786 0.11883664522495017
P 0.66819021886839 7.064197829619985 8.326178731144136 0.0397939920684863 0.5383473501020535 -1.8989566311117878
P 6.644956645705039 5.059540589094595 1.86261816161601 2.695658711272493 2.0027420384305703 1.3227857824040574
P 7.3096171881661745 2.348321715354932 10.913498778365986 0.05212525994032958 0.6292276193233938 0.42452075649718496
P 5.117828147302082 2.6560907075146614 12.99441987270533 -0.33793011579013416 -1.0186944695402393 -0.8414135641354671
Ni 6.049028998209813 6.879212205176091 0.6772511340088302 1.5042059067881839 -0.8573220078356074 0.1606013878665621
Ni 4.807922190302888 5.689926794626202 10.271275445613702 0.11767064994130702 0.19011868059938872 -2.0034256947611557
Ni 8.136189661438182 6.032485942814641 12.934319578806434 -0.8924849288899855 -0.315863622908398 -0.0383613733870178
Ni 5.44800763711017 8.346505688074016 4.073567118698085 -1.6920501895310989 -0.1660978922047591 0.07124346882701925
Ni 6.8592794814148705 1.975458195089591 0.9628260883207497 -1.1434240832108566 -0.2561782912326233 1.5071346503992042
Ni 4.385088694804358 1.4352942766380001 1.3100331350350265 -0.5458801681439889 -0.27062274879272746 -0.6811536187687237
Ni 8.55568875490272 2.873453191487525 8.776427090658618 -0.6034427970498059 -0.09724632064868413 -1.0640178760673866
Ni 7.097099719303478 3.9533204756235807 12.815037333226293 -1.1357251719047021 -1.894106502108338 -0.6330022558744776
Ni 2.3369829062282865 8.801062058172198 5.14352422839112 -0.9678424198853783 0.036008813994441204 0.7763332866963661
Ni 9.023509044694134 7.294299203131558 1.7300029134275656 0.10667815548554531 0.35518993131184634 -1.0815867381890856
Ni 5.365918711897604 0.9988928966199337 10.917839027643382 -1.4451528093797692 1.364237878901257 1.543130351767523
Ni 2.8595352868649724 4.6872205210944635 1.8293598040907613 -2.1464533354100133 -0.6765161199967122 -0.5360225586236187
Ni 3.3796098936145205 0.4760079968853822 3.416446746140339 0.15401216468481863 0.8741555344531784 -2.024667634859068
Ni 3.559639970284137 6.84442204914738 0.30854640523063825 -1.3510046680404344 -1.1615637302343609 -0.7241581473547076
Ni 2.7454839996138496 3.4267244416915266 13.068242796853518 0.276894183623736 -0.10415487484305933 -0.5507704063567547
Ni 6.610691519830853 1.1383206413397082 5.064860894660437 1.7713520098862203 0.0781489376976009 0.41242603011618006
Ni 1.2620803809218506 4.196575236164278 9.798040897491955 -0.1426697430888059 0.8599789858424802 -0.6503579735441057
Ni 6.734515736800392 1.1633102344839736 9.266136532366003 1.2436459415480967 -0.04499327688123864 -2.1814370505740497
Ni 7.488247184423728 7.890107106907332 8.916174458998778 -0.08516882065885978 -0.6126681723028158 -0.6247364163212596
Ni 2.2950449712537777 7.2106259764000775 2.798517571853962 -0.14357965649758497 0.014743733968077835 -0.3513044802145111
Ni 7.036417286706935 6.7075273446468 3.4513907267932695 -0.1529526130720527 0.05719830358786278 -0.4889582581459644
Ni 8.796410475224222 5.194160162925573 2.8879799468682186 0.128995588035823 -0.4999574374699455 -0.24580466130778314
Ni 4.50870105750102 6.113755084101724 2.3138917115901143 1.6763479483044936 1.0548812038734414 1.8171137895023672
Ni 3.224154912598755 4.695261772408486 6.396018664018007 0.5990215280536587 -0.550471129948781 -1.3963419585246533
P 3.087582595035163 4.656612184191259 10.979246370295382 0.3941665696853599 -0.4878393140501727 0.634846765282384
P 1.3745473666540593 1.032329027513293 6.719381972872627 0.10000897099548582 0.0798036996922045 -0.5958040495576254
P 8.727824957143794 5.270022414726594 5.129396311706758 0.15640457617639517 -0.4829601315810005 0.05454363957383509
P 5.534296803558929 7.228900710199643 7.765019133144798 1.0272626708252244 -2.210458891727696 0.9338478081074886
P 1.5456703528074565 4.246397834511986 7.5791520107046235 -0.5396478140810319 -0.47092608323460183 0.2640242696396033
P 7.646585225761703 2.3532404189078395 3.2364581192197632 1.1685532741783164 -0.3394221269546283 -0.3612543923383714
P 4.027101028917192 1.113690279353801 8.956632177379744 -0.4478105802630611 -0.8954465826214707 0.9324483566568006
P 2.9639333881171313 2.7731355877521042 3.129753569709837 -0.5877642099722845 -0.9546513751164011 -0.9063452318118456
