# total energy = -340887.1563886299 ev
CRYSTAL
PRIMVEC
9.10775043878025 0.00000000000000 0.00000000000000
0.00000000000000 9.10775043878025 0.00000000000000
0.00000000000000 0.00000000000000 13.33011339268281
PRIMCOORD
 96 1
Ni 6.898073556595115 2.0561110897305515 11.25554741798454 -0.9855300669731285 0.46828118941258706 0.8079753390816794
Ni 4.733935439058659 0.22205150926750228 5.865849394359739 1.570078855331909 1.8658112547080705 -0.7299138188915623
Ni 3.403648304048277 1.9945609123498669 4.712341873573034 -0.8092650044273805 0.31415718174025253 0.19340352199824754
Ni 3.958100826747882 4.768162365160556 5.0138958470864265 -0.656740737141998 -1.325609882116414 -1.303250283474291
Ni 4.356118628125997 2.749147142916173 2.31370741658663 -0.6104387687516648 0.22100791397907743 0.966518044647
Ni 5.192100824251814 4.960181067397456 2.5893744310634568 1.0962201718315445 -0.7996094836154874 -0.6895086756016383
Ni 5.704657694990611 3.1424835605751884 0.343154534360392 0.0068270502241624354 -0.686642924018069 0.1567838138926848
Ni 5.537603336672097 8.178823637037056 12.447913155964898 2.695470506521087 -0.8811252809027922 -0.09023723632070266
Ni 1.8832824176417868 7.072359468752082 -0.17694628605647797 0.23945635049225208 0.17106114974730538 1.501899370142194
Ni 0.28902626280206906 0.24725538702209957 0.328485591523853 1.4157049364322973 -0.712187862366709 1.0500611567769789
Ni 8.140215882980128 8.98120734184039 7.107549994849077 -0.9625366914017488 1.303142297141517 -0.5406520869758302
Ni 8.798797316303196 2.494913397517471 1.2011683787673397 1.5162615524011371 0.8739979258293915 1.132895929986023
Ni 7.341302231089199 0.7288504601868152 4.663726523347727 -0.8064221356619466 0.40965180980515253 1.4382331994418005
Ni 1.007872769920677 7.8637319032900646 2.524656578084518 0.620938382731408 -0.3026823483314336 -0.5505860582600904
Ni 7.963607494464463 4.256789501977174 3.947139649109875 -1.6786537136195347 -2.261448495401686 -0.4021817266803525
Ni 7.945555933119611 3.9646128683026602 12.884300999113815 -0.3964332542323495 0.8120379391868273 -0.8854071961075978
Ni 8.357244467887545 7.338560798210894 9.265442017143203 -0.5367514663698433 0.4252440078164547 -1.4917856787469599
Ni 7.020709416084745 1.1730782549026597 0.22503065443193287 -1.165481063010896 -1.6287542576859304 0.3830941139212822
Ni 2.1123878796144298 6.754498978875508 9.021314231617481 0.9825740696685981 -0.2703607533805924 -0.21451227895240474
Ni 0.5107817701807178 5.483603484394784 1.0549197655225808 -1.477225521544598 -1.0211514157211639 -0.3682153970372368
Ni 6.617181425698742 2.09749670766749 6.696795915274876 0.7598062355756205 0.38668954458202437 0.10567233992885026
Ni 3.703020060559538 4.46017467674605 0.4217580636392112 -0.6076550353589405 0.20178917495878151 0.0021959792100542824
Ni 6.156893934656268 5.910884487892481 4.785416998343111 1.1833556292984715 0.5587940479921796 -0.23501554111207915
Ni 5.313069965413439 2.7669345794986646 9.626514228917179 -0.47131457692227213 0.7225175264274911 -1.2363604636302772
P 0.08678137838656065 5.741425683461434 12.160169264422844 0.8491428144589246 -1.8691302917789745 0.43622981740399713
P 4.102586179510117 6.240621484324903 12.542863275708774 -0.012353636469346466 0.18174614026497732 1.0632735417021946
P 2.4062039083656708 9.00158137954394 1.0503367455080854 0.2938063859980424 -0.20248851501865128 0.9443852173037025
P 6.511531520754093 7.98554806524133 5.701703140752332 0.890018469627364 0.08429490269433869 -0.7047162365800121
P 4.781905960553787 1.4661656636197995 12.398111976634093 2.0366494898112926 -0.22809901649790393 0.24892649476621645
P 4.558110317079655 6.466766927409011 8.175598582611116 -1.968648953401603 0.6525554954160567 -0.6970489498427415
P 5.246474094296604 1.3183013354494215 3.7892577062456505 0.23446532503556397 -0.4629831742384414 -0.5620686049783933
P 0.27947223260491927 5.574234708886527 3.5572477826620728 2.1351947317770583 2.9256647149851225 -1.9177819913484069
Ni 0.9209301843515717 0.43181302010980543 4.467267792778024 0.230640551972835 -0.6973145447993023 0.30511923990770035
Ni 1.998440814031455 6.316161166360327 4.611765896390855 1.0947667272144694 1.5947879280428148 -0.15347557545505827
Ni 6.301716274184275 5.7462345756865005 9.111292430403658 -0.18613012826528588 1.2977041568450811 -0.3549958130231693
Ni 9.017993545812065 2.7547028706761933 10.15021443230251 0.15170948469357098 -0.8179108530278365 -0.18506749132872644
Ni 2.783683732532562 5.441270660413514 6.897227446580516 -1.340624610357691 0.40750596710674336 1.1985115111033036
Ni 0.576812049996081 9.530350046041484 9.219200146678979 0.5994742993203611 -0.419832092772264 -0.35532877088255577
Ni 1.7082678854507194 1.1187414158595752 11.471455749589527 -1.076834311105765 -1.1622535572125339 -0.7380904411650837
Ni 4.2115421978595 7.079873362853749 1.4543283203907855 0.6325019191992913 1.1921112640039147 -1.044937205286852
Ni 6.107347772337398 8.171856207960964 7.981151754110574 -1.2049276990422926 0.27474397004995266 0.32375690961354564
Ni 5.8251987718822 3.3775545990770337 4.646597577121055 -0.6287303679720011 -1.0421683842924632 -0.08746070201683001
Ni 0.9297009480120628 7.95020999358743 6.993137523219319 1.5452774800175129 -1.9896474100301411 -0.3854423024384846
Ni 5.254142820155518 4.80853702280018 7.082169426736209 0.6003194209294758 -0.6336797415574764 -0.5107686691528365
Ni 0.9218045283924928 7.266053997067416 10.976748248136122 -0.5215439053914696 2.025886337757517 -0.1357753299618178
Ni 4.765612195041203 0.46083395606804944 10.301751916219798 0.15110501834035267 -0.3971539344484579 0.062408387033892516
Ni 8.691298538022014 7.3295350175384675 4.569576064091278 -0.7422090913191476 0.954595582177801 0.708472875408967
Ni 7.515314910733378 6.495756897015805 6.8450400366380295 0.9249499913972263 -1.3553333773227756 0.6301647864256825
Ni 2.444110365639777 5.801791853286705 2.184365520458143 0.31179536637629524 -0.9645298105723774 0.9458129508891647
Ni 2.399500604051941 5.476663378569973 11.369387012112487 -0.25523238237958623 -1.1318191519820766 0.10632848545561044
Ni 1.7296437757011582 3.907671212637665 3.701532764914929 -0.25333182292276374 -0.499640677560475 0.1001822633485565
Ni 2.062249713517853 1.6785401880593973 2.5550764645082356 -0.848235729263623 -0.28328080387637017 -0.4837548595681539
Ni 1.5341185895501468 3.537167925297291 8.063972171836753 -1.5493354521369704 -0.05702115458005018 -0.0464408079610426
Ni 3.7274015084506438 2.9509020303587485 7.221002509583905 0.583258094571815 0.37615239249612636 -0.24856294077921065
Ni 4.206596689378039 7.046712043551726 5.6883329631265775 -0.008248870272353536 0.32724075439708805 0.6702187170237748
Ni 8.358920293965976 7.445695266475024 -0.379048178790294 -1.5225643546907133 0.5342369274781058 1.0610775624921405
P 0.580377734287963 5.9207390738536985 7.8399725147530726 -0.861621920762542 -0.3042365801924309 -0.7066525343707765
P 8.76666517279934 1.9092030753549312 7.837547120814558 0.1152000769136274 -0.5565242781213964 0.8301755293278026
P 1.9320817444257035 3.6477542309729745 10.220251211530385 -0.9811843884099232 -0.07473528403036162 -0.537264658560836
P 4.301872866587175 6.502851834597864 3.6333621637493936 -1.1152229381862921 0.6636778305814635 -0.777690572055209
P 7.015754799852859 4.104571669103042 10.202401842244997 0.35316647312391436 -2.0000032993431685 0.8036430302549127
P 6.285440724172542 7.9373680654864005 10.223410690153257 1.3150300497180385 -0.25936568782166947 0.14718948533603038
P 2.6377138164508467 8.654102485281157 5.670590154521174 -0.4853728547875511 -0.5907813995320536 -1.157219594333052
P 7.4178801966732175 4.485949610452374 1.733994548079784 -0.8403920648494881 -0.6427086845289641 -0.8599051951817513
Ni 3.0607870392516103 2.058142118075608 0.23381143661789291 -0.20458679230857668 -1.0280273169053908 0.5290024185520439
Ni 1.6726656890344578 1.0810535445956995 6.741464877240483 -0.060590874209179524 2.171724451271976 0.9517581127290061
Ni 7.088052122736533 1.0679019529801759 9.106013578256597 -0.026868799366385983 0.00047745385705079066 -0.743865653085964
Ni 2.9436249377681647 1.6054504908886378 9.06355688886953 -0.2791886360848676 -0.7567594783294966 0.045684389410992295
Ni 6.837097167491286 2.2303514631353867 2.515312026147172 -0.24736146427194175 0.7414027933677683 0.5055534435004843
Ni 4.18604960441639 7.036092406554703 10.561902056295402 0.8728959510144644 -0.05567312519258799 -1.0300443473354195
Ni 7.123918443915157 5.947579614359895 11.292045817042746 0.2249946665409674 1.0027981100249568 1.200773567664603
Ni 7.926238394465506 4.1524237898426275 8.164854169433253 0.18670271293930427 -1.1552938380652489 -1.2440979414838509
Ni 3.432829536414023 8.748568072702355 12.450205576747187 -1.6142627489379748 0.49816023636020657 -0.2151951639520423
Ni -0.02012721766699835 5.127982261250923 9.84948744252782 1.4992308221710955 0.5922554129744187 1.6087508179808099
Ni -0.1696409594395725 2.713171528732435 5.852253344523414 0.4900304081642206 -0.516420211011659 -0.6814991750336006
Ni 3.4905089198635455 2.7378353168867546 11.197708648902559 0.6401337247129363 0.40621244510630045 0.6233413357459459
Ni 1.25194226584367 3.2234332463638133 12.488023688842159 -0.5703012773008307 1.2110973181881142 -0.22798845906196863
Ni 3.5955759287809146 8.405205881632245 7.68226452992199 -0.8376967774055122 0.2763056581101177 1.9007805716944037
Ni 6.022673016624432 8.202849882661537 3.2830735284801102 -0.7754578260699484 -0.03978267921457665 0.41260189357241195
Ni 3.6187824768670325 8.747466034900778 3.3943137706364 -1.1002359778591568 -0.07139439258258672 0.4463759046990635
Ni 3.6789300606820725 4.805913990677415 9.32494750455319 0.42675324537212955 -0.9223886584279533 -0.044563645542987765
Ni 5.275928559175138 4.293748753206948 11.643360895785069 -0.08266148085597377 0.4349149552473155 -0.6968424902588901
Ni 8.148185164603106 9.192543582731393 2.6653294265183187 0.5774749122311346 -0.460111252007285 -2.014175991299125
Ni 4.832845608687875 0.578203714261214 1.3247596412766844 -0.11300795435831507 -0.6198443783362809 -0.18927021655616436
Ni 5.968427255085611 5.530362675083218 0.2573631684451661 0.6708026145517028 1.4748210258681633 0.43987898412081017
Ni 8.125743667552795 -0.24405765584743866 11.015059089529155 -0.22216902416671414 0.9971409117391795 1.0432410485313517
Ni 0.2994673878907368 5.084383459960403 5.742053207465804 -0.0018321681127323286 -0.0840889573311197 1.5370625483068883
Ni 7.655975008316582 6.637956204421047 2.357777088574188 0.11531500522493689 -0.6772344862199756 -0.4202681518684181
P 8.924037992414737 1.9838684133494342 3.433530833196845 0.22969412889916568 0.5513836144607215 0.49446273290396126
P 1.8434997637798707 3.5795280725298393 1.3169388159856525 0.5433540592880256 0.4641967349305683 0.6321764175390725
P 5.044282034833568 1.4143061326926585 7.868645534645033 -0.8245381285363671 -1.9165514613754155 1.56377091083601
P 8.670323388790333 1.7547356281255126 12.426385166282339 1.338080760889915 0.6357088561723633 -2.2500163423053445
P 6.60483131612073 8.190026170061358 1.0500307250937628 0.5321391644088126 -0.11305269155332141 0.8442412633922493
P 2.1683550059838153 3.5061833583471445 5.869555338008185 -0.5909899159984338 -0.048364507346316706 -0.6246649396533759
P 7.156232742427537 4.237981997346941 6.180054033215212 0.2382458751239187 0.6029028653859358 -1.7800503089911668
P 2.6449089392875944 8.521830625840542 10.076552768404982 -0.602071370623576 2.708612957440316 0.44655228237592776
