# total energy = -340891.1680723393 ev
CRYSTAL
PRIMVEC
9.07524385323016 0.00000000000000 0.00000000000000

0.00000000000000 9.07524385323016 0.00000000000000

0.00000000000000 0.00000000000000 13.28253671890709

PRIMCOORD
 96 1
Ni 6.315062710195201 2.003369099840054 11.398328993760666 0.4253522512595449 0.1815221971796293 0.27066825731868227
Ni 4.757542177912901 0.5141415906929461 6.441193168314561 0.11272256190741232 -0.3316026309102096 -2.292346213421807
Ni 3.113398445473081 1.9145587659750443 4.759225635600615 -0.20978170624595485 -1.0726094743911398 0.5093357933610518
Ni 3.536649656468005 4.431595728792149 4.921684293848898 -1.1946944513500586 0.1702941896742938 -0.48922488154378974
Ni 4.930525396163562 4.652496233248331 2.4873273378453202 0.6980074571012689 0.2310858670403698 0.533365837727062
Ni 7.111887248721215 5.968070771167135 2.454108316173597 0.5072128334807781 0.5840227406519813 0.5755519841768089
Ni 4.853213395939157 4.5856752146249855 11.440380950027812 0.6732896426396147 -0.30499556984564247 -0.6643874550539783
Ni 5.689324664007541 7.850421497607443 12.324241612295129 -0.1496816556302648 0.7770840488194616 1.1595269023099901
Ni 1.757983588152337 6.472572638108659 0.33022814905101183 1.1065287528464038 0.30299987957185237 -0.5148271554929263
Ni 2.4926427080215654 1.5523839444049634 0.2151159441858415 0.25160301315711514 -0.805663146008735 1.5088477764355692
Ni 0.6894807421820435 -0.09254025898441696 4.6910333476693795 0.08830839472910598 -0.5241165512146522 0.3429388818586352
Ni 8.601797216187007 2.2658069942512897 1.428124801515826 0.7068733921323309 1.3795547117639853 0.35205858477171625
Ni 7.305180862147625 0.2942738489583902 4.89302104446414 -1.3061800555265763 0.8895579850511777 -0.030657834095173003
Ni 1.1043754688705192 7.372773276476932 2.5542844851226594 -0.8016599383866129 0.896058762284173 -0.5008226136837182
Ni 7.537135013308037 3.961461809362048 3.870743859292417 1.3398957026114666 0.07347390081943475 -0.04042211257078845
Ni 7.938796219779675 3.72848215567489 12.56124159889688 -2.9188024406476503 0.2522038799659076 -0.22372119914518246
Ni 8.047708218217647 8.444214686324752 7.1048285242495 -1.0808434322651579 1.2422976550503186 -0.336180222978563
Ni 6.8775735342249265 0.6749966533971921 0.49536581920987655 -1.7048833367400251 -0.7438836508080929 0.15574611665678983
Ni 1.8593177581846994 6.376021121453249 9.065424185956244 -0.8463516248670326 0.6600348345122374 0.8297674952561065
Ni 0.06838377557118551 5.016958016205494 1.3563732030448545 -0.2036704511418944 -1.478711104951189 0.2717586621693836
Ni 6.3858223845407425 2.1790204397089754 7.266503988975145 0.6081466302833785 -0.1157279243926394 -0.7031434927762535
Ni 3.334407852852458 4.4922274312806145 0.40281013231134033 0.4360773509865329 -0.5438824209876698 -0.4526126296373947
Ni 5.817258373030129 5.560556032573797 4.757525842474423 0.5576511926369879 1.5391446276468976 0.41083477436966015
Ni 5.283543296941715 3.0537831702677622 9.285568722620585 0.2043862462619964 -0.39041892971746955 0.3370603115906711
P 0.1479881823288311 5.595296065072802 12.420646110004226 0.28681221406839635 0.30627417944775 -0.37364608113450487
P 4.144209989725803 6.238277074099568 12.6061495343248 -1.294540414405119 0.1626022203466748 0.16964884278081105
P 2.4484734974226483 8.672829147840536 1.3565320198078463 0.2172872705943806 -0.024917846287602248 0.07338056977468008
P 6.342424569647786 7.66783667162848 5.856442552319824 -0.5118318203100282 -0.39538270148064814 0.04207816011697269
P 4.726586521994902 1.1553329616818855 12.779128214953658 -0.148684324714002 -0.8643177224271501 0.12889428657126833
P 3.723272965848759 6.211505105480952 8.17281135876154 3.040162623625403 1.514313684646147 0.6385661231155003
P 4.995213732541017 1.085344683042303 4.043098163161629 0.8240205654700002 -0.012192685411449971 -0.5121858612153373
P 0.4189096144569083 5.463487227033214 3.4537781620145283 -0.8754218027601117 0.37469509122430955 1.231825037653769
Ni 1.6637553338584072 1.2297590344416387 2.798191639628013 -0.26655243537809575 0.265856951972968 -1.103147752189313
Ni 1.8646358509340246 6.705906226296198 4.674988316985409 0.422869079826375 -0.8278630791445419 0.5967203907243077
Ni 5.773851482893573 5.43106138165209 9.07575816584303 -0.299783943737716 1.724662319139165 2.2790785497786232
Ni 8.691832707937955 2.318652137731358 10.047229414771499 -0.15580628047076392 0.6449303747706312 0.419156149751162
Ni 2.579084403307098 5.025234638368266 6.993706703995044 -2.4415717553512595 0.00707773278238781 -0.700772935661548
Ni 0.680881041347128 -0.21051661072959924 8.938562263202762 -0.13405834727071103 0.9602931467832106 0.306416361452569
Ni 1.1162640379859048 0.8310563573834461 11.270417972847078 0.08928309993754947 0.6511491019868334 1.1529052832284143
Ni 3.9082445808943986 6.941327120511631 1.4783199738648316 1.14995288546831 0.7402486251586671 0.023505796431424034
Ni 5.689451717417936 8.12311441728615 8.032361073766479 -0.7969517342776662 -1.0166509567476492 0.14866658410218914
Ni 5.400568563157666 3.2182901109964597 4.848762896477947 0.5593584051360818 -2.478142098276126 0.0016524480017584447
Ni 0.9588902387264389 7.548034380871073 6.8260279656283105 1.2744858097470888 -0.8162599476879748 -0.20062960743304156
Ni 4.987354571583825 4.5818182360951845 7.130224685938427 0.4494383456744711 -0.24075630025059824 -1.2129773088196465
Ni 8.25967868297189 7.1611295204922705 9.160433818724094 -1.0300137512078003 -0.37546307973858567 1.5007477730362542
Ni 4.416884758917309 0.3491827028329922 10.781049982132132 0.32118323534909843 1.3849550568439501 -1.513833659685935
Ni 8.170931875812077 6.963443489163688 4.6733810913439315 0.03088717649715971 0.07266451754426195 -0.07841530398511011
Ni 7.051300922450746 6.0336847823917426 7.24335213502838 0.28354845571546006 1.1406174669999969 -1.7082003169284
Ni 2.532528403641504 5.257007284656686 2.5257809600252523 -1.6583587108159248 -1.0422002659716632 0.5139882045313986
Ni 2.2476202060778294 5.174558696554948 11.350325492740948 0.33762672561710244 0.7223218654769173 0.6380135930461399
Ni 1.131120211758337 3.391772467645093 4.004711697784333 0.24904065174657752 0.43984607400034575 -1.7166936991113917
Ni 3.811357280225806 2.597243965749759 2.4981531959352004 -0.9318081519696404 -0.029908614633974297 0.3876750484237452
Ni 1.0318914982410656 3.2624411711081773 8.1302539114259 -0.08331274128672748 1.1106728569217645 -0.15094278173087552
Ni 3.760508690337635 2.566578717626944 7.141169429719462 -0.606274095851014 0.3347679160120686 0.29994772300908984
Ni 4.0321216560279955 7.097602815295554 5.998220545453496 0.5281462411993355 -0.2004303469380419 0.16493626779649015
Ni 0.8721200196226037 7.390270346136827 11.186113497429236 -0.5272540684023694 -0.2384469353911313 0.3010404418526364
P 0.12911712078796644 5.783271585749886 7.884101541654022 0.5387170747366464 -1.2783090401479211 -0.4622879479436296
P 8.493656613454998 1.6006551651108687 7.898792545992944 -0.012194742293978997 -0.09432117658208918 -0.1873794272913547
P 1.7316018550085006 3.2459605287314295 10.467514836158097 -1.485858000408615 0.9702515435475031 0.6132993781289116
P 3.9375122415028856 6.223139567775551 3.82327216754763 0.2539324326212401 1.1999770399052365 -0.5856919008242881
P 6.922523215773403 4.0210044826185705 10.42858385616483 -0.06347899439025197 -0.19707531442287995 0.2724497746991372
P 6.266038244270534 7.620708931616117 10.097185000689478 0.5411220846337133 -0.11071015946307386 0.6374947444281924
P 2.583023059029294 8.803222247878598 5.772603636898637 -0.12306148193957515 -0.014813925084380938 0.33662270983262027
P 6.952226488074667 3.9304789277132497 1.615063021849484 0.4127013952647538 -0.5133783388615416 0.0753574909953928
Ni 5.222675638119662 2.8484830095591733 0.6709354818864021 0.5241895705444327 0.26652672434648295 -0.7831315405651222
Ni 1.487114792437137 1.1352585228397232 7.071901725421681 -0.15923176121254512 0.30078384575714 -1.0343146925759994
Ni 7.204318604782437 0.4236877302120613 9.254792756525857 -0.6276312213705514 1.0360021075807513 -0.2550446918488124
Ni 2.5295154227664596 1.8030149468932093 9.285781083320815 1.4433244979217787 -2.2156077829184873 -0.3247223588506085
Ni 6.601522774414394 1.985681450064568 2.7578794075588964 -0.47532575496419427 -0.5326546705926504 0.26676095184447607
Ni 4.130524522377709 7.086921253578906 10.546639162529328 -0.5256489286987786 -1.394949449052501 -1.414664668093241
Ni 8.576259480697928 7.2263351457549 0.34343716611012914 -2.3035492812264775 -0.3070866480467163 -0.14920317333194952
Ni 7.794400018867538 4.005004828152598 8.15499937814874 -0.009043341149190878 -0.6110244660518057 0.6889566597529102
Ni 3.026430386058776 8.32296035659142 12.437501559941635 0.07792833704636257 -0.048474293451303614 0.7194831104765415
Ni 8.976759055988827 4.960646129670405 10.359222676857973 0.3283956939371377 -0.5994082219691161 -0.866146805216089
Ni 8.895127239811048 2.2769876943659115 5.629125850638773 -0.9367904356755802 0.0253086539681177 1.0487398668623937
Ni 3.3822888380835834 2.7224369512052884 11.779617185875718 0.6500838939471126 0.33343017103725153 -1.0152864722999548
Ni 1.0391063169026928 3.5564427627585817 12.797392142697714 2.04208685877678 -0.9422434883703515 -0.31799943830447813
Ni 3.098878055713832 8.634604221799313 7.968711852781169 0.4477293334031644 -0.9923244641871427 0.8201921928628456
Ni 5.623293191577355 7.802322706529929 3.636306721483174 0.14038068994431308 0.15739470800380634 -0.02458591686948024
Ni 3.2674597808187182 8.605118755344435 3.731635802825727 -0.011713688892502407 -0.5384669063990534 -0.33916321686628687
Ni 3.300411990328615 4.324099468355705 9.300405838381458 0.18866009377599122 -0.19099851210118074 -0.13711796003264126
Ni 7.051273696719948 6.094733946085788 11.536985103096098 0.9936349554684499 -0.728959425398093 -0.8004540910039699
Ni 0.3972824014348661 9.225438881103175 0.6806623279763794 1.0278265137484943 0.6373510197614766 -0.2643487428585577
Ni 4.70281845900773 0.34709267423202017 1.8967331724968455 0.07885624817727065 -0.020891755847344665 -1.232684814550903
Ni 5.976655951612291 5.327512852181442 0.2830033039321327 -0.2799694801149501 0.9327067525245097 0.14918517560982048
Ni 7.875841254929729 8.870052341745543 11.397544892713666 0.08044261882778404 -0.6203241461861768 0.580003335079943
Ni 9.066068528251812 4.9038714057117385 5.732596333014466 0.6608352189263458 0.005249935545029668 0.6806895346481115
Ni 7.9079766925156685 8.665215018460529 2.5204147684848497 0.23343405555757216 -0.46431937655136163 0.4171918269359396
P 8.686696120060619 1.4161645379760042 3.5901500325359597 -0.438389029838845 1.0974982672130196 -0.4865007977444073
P 1.7730484925275583 3.2462146355522163 1.5707658503158135 0.4710299558023178 -0.45425556455745636 0.5639241701298934
P 4.727194563316071 1.1192407178865509 8.605928267073514 0.48767682033037946 -0.4316277998556115 -0.44419792321113827
P 8.34520377865387 1.5416116302523202 12.586239357391786 1.3611558975418234 0.7056667734187395 -1.533825272316513
P 6.460311984005692 7.583609335781233 1.194345618867549 -0.5742636043826884 0.4594515069360991 0.1362047041897525
P 1.9278993740663548 3.2170377273797244 6.018157948117306 -0.7332796500400016 -0.27299022058363953 0.46779730779763307
P 6.96570322481997 4.16572739230029 6.047725091764577 -0.11629562397065132 -1.0802348521468816 0.2502806948012657
P 2.425440529167039 8.582775505602392 10.103653834327224 0.2901960429389647 -0.3348885007503329 1.1776040715266751
