# total energy = -340876.740097557 ev
CRYSTAL
PRIMVEC
9.15743060575564 0.00000000000000 0.00000000000000

0.00000000000000 9.15743060575564 0.00000000000000

0.00000000000000 0.00000000000000 13.40282533879212

PRIMCOORD
 96 1
Ni 0.980742506783128 8.251696648534326 12.650766073404501 -0.3566343770678568 -0.18259820385262746 -3.1229788848916864
Ni 4.473386553236703 8.79619747444447 4.2825777496868085 -0.22523815001034114 0.03963689766533174 0.34437484297421334
Ni 7.299232287570412 5.1541133173614355 6.093044827324172 -0.8971329691849582 -1.6837072168830423 2.0498708735975733
Ni 1.4119842305261583 6.193683158581946 0.328043890621113 -0.41251704716808957 -0.8841329573808645 1.8164599579684526
Ni 5.314487400176175 1.6633373867586116 5.643969923150979 0.24220151733755707 0.504339111477409 0.4651732399112246
Ni 8.072952759853866 8.356430182774726 8.58926792999427 -1.3264794292055606 1.5131677439671618 -1.0604278447232836
Ni 6.454239532608542 9.419516305881167 10.903962369325999 -0.6407842138127416 -0.4516962884707124 -1.053387135826418
Ni 7.766252092827585 5.367646285046818 11.114118992334067 -0.3480466353988457 0.0031843112652525803 -0.6889013810349426
Ni 3.709611050629308 5.002860035465071 5.323682376282741 0.36194139110306695 -1.087147777216631 0.9260637932866954
Ni 1.0005775015513987 2.5393372018706963 11.092298666602842 -1.3151524342285157 0.8672832328133773 0.21450173742944345
Ni 3.5975515718761555 0.6624631844544467 7.530484883546007 -1.197638107359415 1.1851332900241847 0.457074007842858
Ni 2.4267557495710106 0.6744017267810369 11.177447203931472 -1.1983032517472394 -1.41746202833272 -0.8373360516319838
Ni 3.323698608558919 2.8339500604509387 10.602814768240384 1.4290589891417 0.9270343847300809 0.8420941351422594
Ni 1.3988982621402586 8.698808199578101 8.533391119709398 -0.36401035781695373 0.12190217152415135 0.28340961614475063
Ni -0.025910949998532752 8.043035433949923 5.052677373894835 0.38087345212087953 0.12447173202354046 -0.48582356917172465
Ni 1.4690716531417631 5.745683336766001 8.998255265793693 0.2595554352349723 2.2197153773289577 0.7314747356207789
Ni 7.608680183788974 2.317388555426293 10.957600187819164 0.6154822447128433 1.3445044050280717 1.0887282343298734
Ni 8.139701271795658 7.526364039757586 1.192652777758935 -0.41158219405864604 -0.48261457531612373 0.9706073842250251
Ni 0.6781507788854368 1.3420123029987547 4.359871958754706 -2.2199406059658866 0.8898266653315321 1.5980403735418414
Ni 8.217475330229142 0.9400743573067244 2.521928926222274 1.7938180521992204 -1.3955986526007256 -0.5217945879496949
Ni 5.531234626016525 3.6227619784306566 11.975920211237378 0.263595666742617 1.084474344149526 -0.31241114558342326
Ni 7.445778650117336 7.809612526912425 12.107294542698394 0.19828321868805207 -0.6839095842473061 1.4449574055395114
Ni 3.852796636131008 4.919133647114979 0.19098462621820095 0.7389101088529015 1.3179078854864656 -0.12809775881190197
Ni 0.9551383307110667 8.780107868808344 1.296159216293452 0.630289742039321 0.5752822754551898 3.614773069824549
P 3.9551400809741253 2.4871306897867114 3.931250175918048 0.3782365287186647 -0.10331669521248013 -1.2261264446070947
P 9.103749782520358 0.5850197092671021 11.271200063090324 -0.2395206280712843 0.12225544109851202 -0.2187851952961458
P 1.6135484363638344 1.6574949460096935 7.6678234495834685 0.3109206770808258 -0.3481903600655616 -0.2175073570249867
P 2.226528528606911 7.37031226420537 10.747685320980015 -1.2245351888605749 -0.448996373041046 -1.1290120215505846
P 5.402664299817762 3.9781527041748017 6.37495999257769 0.7355429921528817 -0.28842815240526454 0.45165823614392536
P 4.212976698100363 1.1163823694366948 9.650436487124495 0.6367547809383743 -1.161685857634522 0.031287240149055796
P 4.88545261721761 4.4260243219617745 9.960256175027078 1.3007694260339662 -0.6990803784504734 -0.6930423997865096
P 8.499652397998991 6.0914587603371615 13.044795661995016 0.9864309815208431 -1.2383324997549834 -0.3368695357361037
Ni 3.1620882726076536 7.642461945423392 1.741469500730155 -0.07760849181309859 -0.10027687994489182 0.1001310983956469
Ni 6.1433813920712765 1.3405104843736408 3.1880633246206727 -1.8565622253059766 0.5668323449156237 0.47475111340764686
Ni 7.243445220105821 7.497481503516069 6.427780968257681 -0.7721051075476315 0.8290290744281851 -0.17712586788414658
Ni 3.1653391604851864 7.169233402191663 12.698707970038999 2.337298352652465 1.6623868581387111 -0.0641456814399734
Ni 8.145525397683295 3.088920401786562 3.484385875501578 0.4762464670062508 0.7912161173454696 0.05281277292565744
Ni 2.9932985110338928 6.815545958546733 4.127145016445919 -0.5008796921738987 1.3900455839929802 0.4702786794585901
Ni 6.400531201899444 1.6962583499127823 9.105665517010442 -1.4188637937762534 -0.01672888271890667 -0.8928322849270752
Ni 4.069360713358539 3.129643495846812 8.081019540505467 0.7936386107440332 0.40469189469671585 0.19164874409066995
Ni 8.096121059375438 5.9138412356255365 8.541433175298268 -0.5078764352067059 2.482287745013383 0.6015491795715189
Ni 6.72360535491172 4.03332622378645 8.750047686986402 -0.8099147221962375 -0.30099056245130745 -0.27457659123415296
Ni 5.67799160946819 6.29237278859933 4.728436564218904 -0.5499214280928981 1.5953165468527752 1.6770534590119504
Ni 1.9750563257761256 3.4625985165206594 6.522685832191166 0.8280001189430386 -0.09444921751952122 -0.9727953930152796
Ni 7.5296332424964 0.6692323571842277 4.9657870932582995 -1.1207145574284827 -1.461689887802844 -0.32134290085541434
Ni 1.7320089591350023 3.4297599702422574 9.004004300750074 0.32265313502640564 -0.8504520201886515 -0.29705934571770126
Ni 0.7288289157954492 7.0406447611316185 3.0830788767807085 0.7336578593150268 0.006524174271762957 -1.167438700957899
Ni -0.046314621209605666 7.649137712360635 10.442288672077005 1.6352558062498739 -0.467793194032575 0.7512403482834804
Ni 2.1736993112393423 8.51478963084846 6.064831699262506 -0.23449849226634453 -2.4132112019306953 0.8490705664600925
Ni 8.470348619947991 0.7017027747508641 13.465818608885824 -1.3650356922122038 0.06538341050181644 -1.6399421559819498
Ni 2.2813449084235633 3.789051761439442 1.5108872286774762 -1.1871032692663621 -1.437934180144143 -0.33058524538928874
Ni 1.0224820756445214 5.093948998050476 11.540583284511719 -0.027128223675359733 0.2634509136346366 -0.7259633188842465
Ni 5.500190936143747 7.360825166061358 2.4611071033912952 1.1682676246170978 1.9144745242417287 -0.978518925762618
Ni 4.28748155379503 0.8590402535650682 1.8437195397807353 -0.06300514007762698 -0.4643152627863036 -0.35557482545509084
Ni 3.953510058320039 2.561516498883047 13.556957937339757 -0.06982010611693137 -1.5485702918361717 -1.262997349491515
Ni 4.396152783211036 0.42207696715758003 12.170435942710725 1.484002178146799 0.2135051778441291 1.504600571123441
P -0.1232306283920323 4.213059114976131 5.240491697625143 1.4234987214451031 0.7885331711966678 -0.12542818239953882
P 1.9072089221574193 8.872542973697968 3.931236439772086 0.6312212527146549 -1.56701384325334 -0.7050437951227599
P 3.1012096737067005 5.184341995907171 7.569929600288782 -0.5731207490274969 -0.06922361018351304 -0.25838738306880016
P 5.533597243121887 7.225340979728688 13.64112754533287 -0.7413272029348266 -0.011434724199502888 -0.25298189578251273
P 6.644347792714406 4.956083879751162 2.5069583586104693 1.1501603734934258 -0.16734539145861504 1.4871522937400066
P 6.2261645650653525 1.714765517238117 12.643408077884505 -0.30595253444227305 -0.7686503162298117 0.024292811109093645
P 4.68804588489092 7.650914253904977 6.249241290280515 -0.7033766918329822 -0.4184758358546858 -1.0496369247553665
P 0.08088850059446533 2.7007369169172204 1.5400518137827337 -0.34224802643919766 0.7947922647325022 1.013843569205841
Ni 3.460986808727854 5.456912918934676 11.093089868610218 -1.2730189953935753 -0.6739306186577232 -0.21197254324968656
Ni 7.915225174494357 6.095909271628657 4.141393062780154 0.41189355465147776 -0.050649189615435346 -1.8346757096455306
Ni 5.862889291539361 3.7565978272479588 4.1461640841440826 0.16041626843894952 -0.4872117077685029 1.9458327268380358
Ni 5.299249435589655 8.539761944206298 8.027582269743341 2.7997125417613136 0.8634078090183711 1.7340828411221167
Ni 2.1628752282217545 1.5194558365282012 2.700830322709758 0.5886939208754055 0.5004310346722542 -1.140403551216978
Ni 1.2178558583689236 1.83992012180781 13.463808552860138 2.1537318713492972 1.0500205333470305 -1.0823917505888843
Ni 6.525566759870804 5.08783183438233 0.4758191803600502 -0.2932428001850885 0.7445547087331886 -1.4576411716547673
Ni 3.268296153181247 7.431648734638369 8.288816293637366 0.34201534160310126 -1.8805364767333872 -1.3294523957909556
Ni 4.5951254361773275 5.483542727238523 2.977946994307425 -2.702171572690346 -1.5828721504418353 -1.21205659677759
Ni 4.2512364433181995 7.941296379529106 10.35046619929726 0.5463416811614397 0.9490183452003399 -0.015308091111980086
Ni 8.920454650811353 1.4912234778621907 9.07495882058525 0.39568917697747336 0.6147492232015606 0.6732168804201503
Ni 2.8301497267349496 1.3637978304935452 5.393604853684683 0.6287254828759947 1.843545758441651 -0.6747248324242445
Ni -0.1468888504528944 0.7243197969478515 6.803622983852232 0.8302287511632412 -1.4401481570763264 -0.015792744057882478
Ni 4.950067447820066 3.403194263952898 2.0363177052778694 -0.25235583216273955 -1.10269369537103 -0.1452220771970144
Ni 1.4799689956044786 5.851726383588057 5.972861791849444 -0.5874286810097367 0.3438590796800594 0.023853409578829886
Ni 8.97033517551254 4.952613213538247 1.749108629370825 -0.5819871982791913 -0.06654734890293056 0.41422117434338984
Ni 6.4317488829544 0.029021729187259232 0.84878209976109 -1.7653533691006242 -0.20728953595172042 -0.028878887817879294
Ni 9.32647681056924 4.334697266179704 7.628097599720018 -1.2998255740634581 -1.0764296194681784 -2.924007638997674
Ni 7.948430017998397 2.5532290241529982 5.934731166403644 -1.2211631870645485 2.241452254785417 1.0589582021562924
Ni 8.435696902402682 3.7964234931053964 12.868026115360744 0.4146742027204084 -0.5024946020695024 0.7586248136730096
Ni 5.576664639426217 6.360330081385728 11.576784439321473 -0.08387247044493942 -0.4536593257343542 0.6544581117554084
Ni 7.047219796331811 2.4655466257660215 1.072743549460371 -0.5964385978178308 1.1558520245615642 0.24402957168523132
Ni 1.7013681962104255 3.808895913638353 4.026476465667029 0.2532140663979768 -0.1329687137509581 -0.07683818930597736
Ni 5.746443403509199 6.258206414877992 8.0597358402098 -0.7363554607518479 -1.0901914491389613 0.16464573313926484
P 2.296427196689187 5.565996232729525 2.5094510112309325 -0.139972655872617 1.1054866847351348 -0.03904657237950049
P 7.159563155434833 8.312410413683741 3.477403334637863 0.575528330027725 -0.6071436429401608 -0.19444944676425868
P 6.702680625897178 7.324708259613501 9.86052534514582 -0.5420505099852535 -0.7344564439569222 0.7811772450522289
P 6.797569922198572 0.8284855704885159 7.245192457872112 0.9492435738372683 -0.08866860628200213 -1.441381515262795
P 8.815455551082362 4.055945077469566 9.628442170211093 0.0946901298857337 -0.7606359305657674 2.0126978640917015
P 2.3880930774049722 3.6507012993161574 12.501190432801554 -0.3108859671881485 0.5085300096303049 0.02292704110981858
P 2.703484146109502 0.2906660059739983 0.257375998364998 2.096864468738292 -0.6909392374005778 0.27133982946441015
P 0.2188103949637537 7.344927866468691 7.102907963545481 0.5024724905823152 -0.1845769248455531 0.4200817468892249
