# total energy = -381178.1273658793 ev
CRYSTAL
PRIMVEC
9.17640277585726 0.00000000000000 0.00000000000000

0.00000000000000 9.17640277585726 0.00000000000000

0.00000000000000 0.00000000000000 13.43059302748326

PRIMCOORD
 96 1
Ni 7.375350143848388 4.251766898834535 8.745989039305819 0.7054189190739917 1.1827827875141372 -1.2588861555366189
Ni 4.784135901603331 7.815744062332919 13.7119636192159 -0.20283021462878617 -0.6684127741632875 -0.5270362959646085
Ni 5.521927855263831 8.608521020985071 11.324152601627791 -0.4370528275259247 0.7207781751388812 -0.3066955832558847
Ni 0.2982789698353823 6.1274511403746565 9.028447890882589 -1.6387897875450614 0.4903821350766845 -1.7562701758524335
Ni 0.5599037167170514 8.64761249649649 8.429227876787913 1.373637574948602 0.4624234450802294 0.5893312973490882
Ni 1.1697802872698058 1.9070858915870894 12.23356439154586 -1.1283144812629278 -0.867594593406209 -0.6920661519161694
Ni 7.175414681772606 2.365327913327421 10.20373218449318 -2.2386780344743897 1.0912823682102946 0.17859551045113758
Ni 5.538959258679135 8.084878777186079 2.4863921941776965 0.5552685513374244 1.0005298828160705 0.9825527295123594
Ni 2.673563280094703 5.1861357511818085 7.792376352851737 -0.15516196201854565 -0.6000831365489536 -0.3963355523122206
Ni 1.5273296421587716 3.9303909233976864 3.3430084687888626 0.17186127705109758 -0.21140432945104234 -1.453686300772077
Ni 2.017230253221733 8.834691818386476 10.519243520963046 -1.5083075876613832 0.6778734053555551 -1.3005915056952053
Ni 2.379881688013129 1.5165198397755666 0.7603640690274004 -0.5518014187244303 -0.03772682512681244 -0.2579343546917816
Ni 5.822106340458571 2.4256811138998655 7.726727450279847 0.37114311220699303 -0.06527593838967467 0.5682431092202213
Ni 5.943106386489931 8.375578038389435 5.221881510268003 0.11103977488835069 -0.5268362641386604 0.2826331429900422
Ni 2.5723750874974174 6.773644242261683 9.28294349050491 -0.35050512424166735 0.7862860270337039 -0.2715077225008421
Ni 7.915243796832998 7.340525695593495 1.100761809625663 -0.6349619507040096 1.5204935882046138 0.5303849007218673
Ni 8.848786772937071 -0.04683360647127645 5.705544002774001 -1.198035857018466 0.7361076064071 -0.5652763132824135
Ni 1.1774150543180457 6.366331255518625 11.104400697916583 -0.7377605686294907 -0.4042764044258521 1.6444076479524714
Ni 4.200094575218382 1.2133865529107146 6.471396478257594 0.3631035297319682 -0.05928963889925273 -0.5629173261319338
Ni 3.091915479288522 8.817825590219812 2.4890918918526874 1.2271397163629576 0.047114694099615634 0.11720322338658525
Ni 7.297029546785014 0.49688568879988465 8.996227705714585 0.009334904247680699 -1.6467596931244155 -0.03497831584739783
Ni 0.4026091627179049 6.048635017565363 0.3805105497304394 1.6473603028228918 -0.2837700848079629 -0.9944358541031906
Ni 6.6835503205313715 0.20326924917749592 0.07078768808512914 0.017787920111040332 -0.03549767868597757 0.6103762909448456
Ni 6.539967147449869 7.021976052188929 9.452545435808261 -0.008858221721578293 -0.04011975083902122 0.025004235353821454
P 6.941297119631086 0.8927520308122046 6.6092086116796755 -0.34660064698093856 -1.1899317398540925 -0.9443674766918897
Ni 0.17252738248481744 6.191529960444199 2.8933794186248263 0.3752640763539021 -0.6596034034017737 -0.04603920164724974
P 4.313230444133946 7.796932436793385 9.523902060860928 2.2140103565243807 1.2815591716541026 0.4514558903251321
Ni 4.094235593645672 6.649790334989936 6.597160912571942 -0.30117028256228134 0.7930950795357373 -0.6817493433711936
P 7.590940548934143 5.209278638796786 3.4147284793885366 -1.1529556768503757 -0.5569030016170539 0.1242984396704698
P 4.571894883503883 2.9150770228142053 5.031932727253038 0.1899998956333373 0.02241333469819366 -0.15858795698095912
P 1.2859535454798026 2.337532589542423 7.941025817865131 1.383719384664636 -2.001403522124805 1.2301723325416942
Ni 7.840887405736979 0.529917067966765 11.466999827212577 0.49457843254621914 -1.0719175905304377 0.1585167374233915
Ni 0.4008812460890785 2.9844873328537327 1.1079249095750092 0.5240203919564201 1.0692819526798034 -0.8044539561919823
Ni 7.192290086341972 1.468224432353828 4.375243655955222 1.2195814443997253 -1.2641690012021132 0.9102864758477807
Ni 6.161578182024181 2.705240222222737 0.9309001721258379 1.33020058681089 0.010905848279226379 0.5920726075396513
Ni 1.082466815558264 4.01119832559336 9.483798428131454 -0.9077935342225979 -0.6911575240589709 0.8178352625948947
Ni 8.122309323808398 2.280886655661672 7.661173064655789 1.4623897420833458 -0.384865346889092 -0.1518005017454805
Ni 7.617955878489454 5.23954241490868 10.841336173450937 0.30765820427947016 -1.1681876633087815 0.0015071806731457914
Ni 0.8028902720702589 8.353673965139254 12.646904439583732 0.42102714152162973 -0.5007940744386278 -0.2871382299492474
Ni 3.307772000052641 3.317866043025074 12.302289224303532 0.9285719044205298 -1.2076103880807785 0.03182922869545486
Ni 5.82363879970984 5.52063398248282 4.723069694540924 0.2585953853145482 0.25670768137353206 -0.1414440982118209
Ni 1.6271505507534276 0.6472740821253468 6.53316376248645 0.6564180636952567 0.9756264347061714 -0.1520938646161832
Ni 1.1234761592344469 7.91865741863822 1.911213437522544 -1.6208244613158926 1.939404968934821 -1.1511535906446304
Ni 2.408980060981841 5.663400455723825 4.871409914783253 -0.54976921878575 2.0970657861158206 0.6161029090159776
Ni 3.089144205672454 4.723874465057909 10.338655586344608 0.5821039263627136 -0.23314712044477265 0.8863489911955768
Ni 3.023165870243554 1.9427178632797764 3.195285820448393 0.21650256990955616 0.8910628517314783 0.06396390444647049
Ni 5.434485913914458 1.9009193489712033 12.152926752800179 0.3367666916096523 -0.9974106204607983 -0.5153143795419899
Ni 6.767422641229584 3.3523601407826864 5.506744579352753 0.7010634703187734 0.7319912702458813 1.7026451914381255
Ni 2.4920999166584723 2.106204653822375 10.113007843897227 0.8431405741289028 0.1642919493442719 -0.19064344275460712
Ni 5.8932234614007095 4.112689339479818 12.57817960682606 0.2286975693138513 1.5277538693114527 -0.4270352953889226
Ni 7.97343136636772 7.832114764753664 7.490376351720609 -0.30522594068889375 -1.31604075037074 -1.0446777809778782
Ni 5.378408917001245 6.197246859327676 11.47278830203713 -0.4959714562390039 -0.42679643990523924 0.14294639378896024
Ni 3.732896384440692 4.453546817853462 3.6131112941271053 2.085653944734453 -1.3262056067188837 -0.7001903236852006
Ni 2.9871760188454806 9.021376554960264 8.08600930999899 1.1378049372518662 -1.0610922177801598 0.9065887152812192
Ni 8.521244254884337 3.135530921332133 3.2588663618512053 -1.0488504242983292 0.23336617843411422 -0.3212536835757177
Ni 5.001442293994399 0.8648410843531584 3.9008887887100765 -0.45711514549343857 1.0654090999879586 -0.6464139012946931
P 8.522565656873457 5.728837383393294 7.014879022339038 -0.787247876726341 1.532059181555026 -0.5579509832655939
Ni 2.766731296730256 6.253296327032784 2.1532869408068813 0.5555385171693594 -0.47933230502042606 0.6894623957447352
P 1.9344132188342749 4.557157580764131 0.9921902834141783 0.5721342167445115 -0.7938041897876199 0.30924431781966744
Ni 7.900910255812143 2.4956695373096323 12.882141522854921 -0.0686692803419398 0.16861088843459995 -0.3573164907365459
P 2.59819748470144 7.564595096776094 0.34847022205539796 -0.028024767347700125 0.23882283067331128 -0.2285880403191805
P 8.717362333436 3.376925370816507 11.109974444917906 1.6362562224899304 0.2903366822818871 -0.1817991049900998
P 1.6851729450395103 0.6194649937362952 4.322179272049143 -0.16419913252014945 0.6672606628367153 0.5093213951833486
Ni 4.5703716006553154 1.0125609797728174 0.9131126331278714 0.1767962524588697 -0.7999555541009965 0.4837944545568378
Ni 5.002653579151091 4.396818296348391 6.8466608785631795 -1.0546791151649644 -0.3352667100253581 -1.0375393701608842
Ni 5.165140141799149 4.945108357805523 9.172436660963529 -0.10017686403191779 -0.4438166286123196 0.21304880703300083
Ni 0.3997332781110319 3.968188526128095 7.091984663684641 0.462512662359926 1.3752280593641735 -0.299909927792619
Ni 4.809187480980368 0.9842609538391973 9.319300398011073 -0.4631994040143055 -0.14876839978737605 0.6532178115904039
Ni 5.426254680690575 5.777481494117717 2.1056751753864575 0.29054571296889964 -0.9787161293750888 -0.3186815519731673
Ni 4.082618267824672 3.292768581634525 1.323642866658325 -1.656348365254115 1.6135487535900856 0.2858711903113657
Ni 3.5154982280226013 3.0209910628031293 7.985306549104652 -0.5746502982981458 -1.1524031467810154 2.2871795816192027
Ni 7.501911089917288 7.236208349674756 11.793363177518076 0.6801388043509642 1.4244970808026305 1.2437138186715548
Ni 6.339398513587634 6.150483911157208 6.9920875909475555 1.4820108587483831 0.43218495791066214 0.6446066728826254
Ni 5.830365102890561 8.476757054584017 7.675637828235285 -2.8356527073013487 0.29263679116997343 -0.38523172908957526
Ni 8.11978581306529 8.976724179411304 2.924780151031524 0.477864719335964 -1.1593034734452745 0.07546753421069584
Ni 1.1599890655865461 4.2313126972113055 12.330614026524449 -0.22964142128435933 0.7800318185938759 -0.4811577882649391
Ni 8.985909758516218 0.698148058706407 0.5755733419713477 -0.6640002469178887 -0.41921811333734893 -0.059818771929845374
Ni 1.2849991995987724 7.735643243145315 4.5513057887609305 -1.291827129239014 -0.44926325354918756 -1.2761071474005956
Ni 3.7508362517235154 5.439441171373653 -0.12119458576864674 -0.16001440501484057 0.4342618950443489 0.30395221618279267
Ni 6.0555907308136385 3.401169426755749 3.2969557741875444 -0.6693789947312988 0.05669796691267655 -1.0719587281810181
Ni 2.6662129815302316 3.7101297293365056 6.005596771251721 -0.2769065249189102 -1.180617147321386 -1.6027089826621044
Ni 8.005576305033566 7.131661593688462 4.796158824423768 -0.20220877899470338 -1.2517973670106377 0.1230062032216075
Ni 9.284133669935388 4.840203722113842 4.899896221691727 -0.9047318645781386 1.0909344979525728 1.2983003956681836
Ni 0.1833463612707247 1.3442512318469517 9.77184387367333 0.8507988620051089 1.296891945356431 0.22765395854068537
Ni 0.49431079020164415 2.530117753053734 5.261541922746961 0.2658088723438519 -1.3576653678900619 -0.42632541380609157
Ni 3.2322318530080367 7.297525072530933 11.652664147805881 0.9456478860662101 -0.20741474867567505 0.5772214014594317
Ni 3.3918645544157067 8.593737836231808 5.0910140784109545 0.3883085682426861 -0.611768543306682 0.3587730206774144
Ni 3.279462797716319 0.8019634553973355 11.995224766521053 1.0168116506952294 -0.3583428751185312 1.0767229823388813
P 6.48270639458807 6.223720781123557 0.0888890600555114 -1.2921428607072198 -1.2397923721299615 -0.6089480431387513
Ni 0.7851926618187739 1.225618697712762 2.513279971735446 0.6285444772134401 -0.003777721874877365 1.5677466076543065
P 4.233340682208494 6.781701123834225 4.040311380806396 -0.40973717043010727 0.6445894464914447 -0.5481543088901464
Ni 1.459112264470532 7.017727377737805 6.784195270088685 -0.3713416013710444 0.01755214995115042 0.5702835366890179
P 4.799414612102512 2.960931507117156 10.334761121037788 -0.8809003093761796 0.89459323348224 -0.0977991078283606
P 6.672722165342761 1.1781032845207116 2.2605838646830287 -0.9023080856279944 -0.7683839499423024 0.14363236411239133
P 8.974319961903324 7.9688890470301255 10.343288752068952 0.15780119941360565 0.6426919723584157 0.36076922517183674
Ni 7.79902465660949 4.670715564203998 1.239850380663622 -1.0730617314372102 -0.025729286445304072 0.11467737164093798
