# total energy = -340897.5052209135 ev
CRYSTAL
PRIMVEC
8.98849728800755 0.00000000000000 0.00000000000000
0.00000000000000 8.98849728800755 0.00000000000000
0.00000000000000 0.00000000000000 13.15557435223440
PRIMCOORD
 96 1
Ni 6.282249428664502 1.9926239830294392 11.424642363751984 0.6318419170177894 0.35047709921720926 -0.15005549402991578
Ni 4.418763184437621 0.43655602697043894 5.935281752960513 0.5492693963311959 -0.740580297466473 -0.0021353011754479353
Ni 2.5731550610764944 1.5534729769268019 4.723640424456307 0.17206619397305203 -0.6228286577755854 -0.17457533354815094
Ni 3.480849459018831 4.0349004244110285 4.779551573386045 0.03474280279782404 0.727287694122625 -0.5137930578014571
Ni 5.068074242808834 4.456389033579927 2.741977014872669 -0.21767782116457993 0.2990138983409108 -0.2900623455745779
Ni 7.160146958497249 6.037771294211187 2.6412312420724526 0.17543228223180754 -0.24357320087410306 -0.11477455934043458
Ni 5.06003852634127 4.690386580336174 11.34426182898371 0.004963000432230162 -0.7304308677372968 -0.36695452804694223
Ni 5.6445425201362704 7.77238046605336 12.317932694983726 -0.7627239234430477 0.4001536405067302 0.4391385064103599
Ni 1.7596241594587623 6.578456364315613 0.41815657326898165 1.1826771151742084 -0.5508475394515933 -0.12866417283833326
Ni 2.5155118287426177 1.4770527740104413 0.326409184982946 0.6973047746072895 0.9755870968278038 -0.07589562288704994
Ni 0.6124051878520071 -0.021838452717665192 4.565050076985665 0.4903754502084652 -0.18212460665031863 0.6126388617267771
Ni 8.61658012000591 2.502460530855702 1.4578218843210091 -0.10088546006316818 -0.43718369667683415 0.12236959807887314
Ni 6.811635957829636 0.6255131132710766 4.832449778065306 -0.07071459290674273 -0.3972534361407997 -0.4594623055693764
Ni 0.81773392289316 7.3374900076080225 2.600883675987889 0.20982850032349024 0.10290788980983567 -0.20556869660587176
Ni 7.706728482743422 3.756895195523694 3.5785526255279176 -0.11086828230749293 0.1292619543233322 1.324038938084868
Ni 7.582597336863048 3.8844869128134776 12.547102519911418 0.3575751437145713 -0.07088634259791662 0.2756366570675511
Ni 7.919162624795323 8.743192091104458 6.944577628633395 -1.034889848353179 0.9204608452776213 0.1953076809994959
Ni 6.805505802761539 0.6974417641529388 0.6188301656271912 0.16243381308961058 0.24467748968187536 -0.8429320576625225
Ni 1.6352143701662023 6.700313420412661 9.090580428475874 1.0607620881342505 -0.19492227263561915 -0.686018917280825
Ni 9.198648231068573 4.8708576264611665 1.3402109942857925 -0.5315447253579233 0.452357319093479 0.19213391125720458
Ni 6.340836453200946 1.849841705526924 6.968165242899816 0.19374676427027923 -0.27717237698578717 0.37802081316343283
Ni 3.524794221669747 4.27989090320288 0.5288912629712158 -0.33300131102994907 0.5864840577082803 -0.9765754288830021
Ni 5.968209314633474 5.390563544177121 4.861392738944003 0.15280143220616912 0.11302440941854729 0.2505154365198911
Ni 5.271124393818076 2.9411890775914764 9.183669799388989 -0.05096723507648642 0.1220302124615834 0.163772329395376
P 0.3329626982676223 5.715273004345732 12.274887680899257 -1.1598590888384281 -1.1425838466977483 -0.04508223705061913
P 3.972879793956678 6.153758861657988 12.455684110621705 -1.058757398999396 0.49295143846575745 0.8030537334103459
P 2.4045308542179993 8.41774557416813 1.3664430244188326 0.10577235584182429 0.1329478878153517 0.26235459524666427
P 6.2932333722029385 7.4932426865229464 5.896262686757277 0.1832692617777231 1.5371409669533076 -0.4927028127900611
P 4.65055854938788 1.1217644464786862 12.469352918264013 -0.8037132213712158 -0.7704675719442087 0.2982456527163186
P 4.18966436863755 6.002176845428689 8.004404138831669 0.28249661741217796 0.5086516228098337 1.2961154722017227
P 4.568718282679639 0.862150581645359 3.7411554381340406 0.8952218682051745 0.3399013805838921 0.2880507144611878
P 0.19861252995774833 5.580229822904259 3.6656035240440406 -0.2562204573244684 -0.8633257908275261 -0.9249474202940652
Ni 1.4550399444477304 1.0014084694085772 2.475484253157209 -0.20364294033806865 0.6943855440779655 0.6336555731877602
Ni 1.9056602729358394 6.267715028744983 4.826609052605996 0.5607388304233762 0.5155799744985508 -0.1662927818243846
Ni 6.151098266496469 5.715722429204097 9.10159223635553 -0.8750358801756026 -0.611402932437147 0.46503054368577323
Ni 8.503100343268784 2.425492029612136 10.145999878513026 0.09196758874824806 0.4834175308333933 0.6052369128357512
Ni 2.60426424977251 5.07929188727362 6.8775234397653575 -1.3107558478227168 -0.11433541492048696 0.4896388291527567
Ni 0.28667643210462557 0.21031824981871944 9.187037789277575 0.687010848880449 0.19679943505367398 -0.3919441081127443
Ni 1.3482386211059054 1.1653227037514085 11.327896472191213 -0.01260997545452667 0.7081370893361031 -0.11947736413274263
Ni 4.129153805707307 6.949609389347648 1.6297385776918847 -0.37099450244427074 -0.6747014353854768 -0.1890683849580034
Ni 5.730589403518805 7.929661189486726 8.161823285121411 0.21219905743819586 0.1281116427689729 -0.9916300092232793
Ni 5.430832011486613 2.7168811307815757 4.970189508656968 -0.9025975918439552 0.0140464507907371 -0.8616468604632063
Ni 0.7034056320234404 7.420363951490502 6.78227772838181 1.1222574764355704 -0.9667008500817675 0.2882913697170842
Ni 5.148952740320174 4.280025730660389 7.051085028117849 0.3702635378155172 0.7356322094325783 0.08522744181093708
Ni 8.158598212337786 7.132534295199312 8.966786351239277 -0.02696572995556646 0.3771232410498279 0.517927905905437
Ni 4.500918048546717 0.10429353263214901 10.448538311568779 0.09955928505257693 0.9402655387083743 -0.6357985876726922
Ni 8.180026789584621 7.158475098024131 4.8067840232538055 -0.7284261786024422 -0.29698041285064986 -0.2331430066797146
Ni 7.3285464529265605 6.058876285559999 6.989345737624835 -0.33047314529145666 -0.7615877529560755 -0.2113973874725069
Ni 2.4364400191619042 5.233894038551132 2.4599611185492876 -0.42953595032358927 0.22809104607810396 1.0960486792506867
Ni 2.2634294256857683 5.351220892075862 11.192499143961347 -0.5665556942154695 -0.4760814021832962 0.9801528618216151
Ni 1.0476273218428191 3.3660843271867806 3.7368274767479868 0.667299743604767 -0.13204568771605646 -0.11823397864394476
Ni 3.693328543556569 2.5416234130136157 2.6923668024572063 -0.857513297910807 0.18472399194637865 -0.6465026043537576
Ni 1.0472767704532946 3.3948744836136338 8.205210760947955 0.24113296686372662 -0.4904824080999746 -1.3529818463714633
Ni 3.6024907911838637 2.5702068340056203 7.031983572787626 -0.6119235808273075 0.3301011066640186 -0.23755784791795861
Ni 4.219892684611171 6.844138363586582 5.972380876168816 -0.46692441827437653 0.1179987227046871 -0.6352437436104866
Ni 0.7534535842509511 7.5594699336515925 11.12914192397822 -0.8021013967994057 -0.7493565009972063 0.9563686149178239
P 0.3070425689862875 5.485598924726954 7.839682737443216 0.5322337810051478 0.5581276180527743 0.4316794790291534
P 8.340507418009546 1.7708777579122184 7.880780843041248 1.0620512392593193 -0.7382120543446125 0.7177100777365187
P 1.6803546029403686 3.238843161286522 10.258256320785682 0.4864889706698653 -0.06782390162250901 1.3326757878242597
P 3.9775178584950033 6.02399192805372 3.8384810877621005 0.21046690523843753 0.08812121841896436 0.09187168660033211
P 6.864775953082696 4.03007360143219 10.428975746333874 0.7622989200904872 -0.2257963365066563 -0.8121400119823303
P 6.339209535213665 7.853456710502381 10.216829236191328 0.3086650482774297 -0.46975006064862973 -0.11571429754588458
P 2.386041515544869 8.413296268070319 5.8432979671989775 0.1150218994645503 -0.16239216121839775 -0.18775943633859277
P 6.8540796414536125 3.986928815029163 1.6313439232859641 0.5536616118616207 0.354661312501886 -1.1903649707367694
Ni 5.3217296328699595 2.845281812816416 0.5158723236741025 0.048579965791232464 -0.2151018329072876 -0.2738240293388445
Ni 1.4083087476749527 1.09045751084499 6.947656188913193 0.3605535096166049 -0.18360659051248376 0.6623531982327691
Ni 6.80846301832958 0.9729329103825798 9.209888346776278 -0.8877219602837033 -1.037709062969529 0.31696251239953155
Ni 2.762902236278137 1.5619671067498977 9.19889092049209 -0.05795986434423566 -0.09046889271553452 -0.3482487241073228
Ni 6.1617136816510465 2.0683071291780815 2.739122268172336 0.8629519524278751 -0.8291743417567978 -0.4528843952415426
Ni 4.010262953675467 6.6773208446587144 10.270635279084484 0.28002964392892415 0.8219235737316555 -0.8935982165588223
Ni 7.961893940328654 7.1050474708617175 0.40222805743881435 0.19720489802220878 -0.4811364481087004 -0.10921634852636675
Ni 7.568916844174422 3.875264714719831 8.093480145759584 0.08205418628927803 -0.2927365499726314 0.8090626586085873
Ni 2.8077009061599463 8.337451328972664 12.246471445954564 1.6195674489803398 -0.37475834036207717 -0.04895431841151569
Ni 0.07406252010937846 4.899773621848362 9.944271935437092 -0.26636011686163164 -0.2579644365987686 0.9731792587172595
Ni 8.645397241924265 2.0796146586145414 5.700402434632155 -0.10807889248781387 1.232149767983039 -0.9143367346577543
Ni 3.6959891387180885 2.7345615047096494 11.26161888947843 -0.6401378384779943 -0.3041854152395213 0.5104485668092564
Ni 1.1161466357491254 3.4137862816536266 12.51583153826639 -0.09052931363982474 0.1872858391362839 -0.15706046459283918
Ni 3.4217950326296886 8.174561783306904 7.912288222161774 -1.8641436371976605 0.2469763130183811 0.6823833774107667
Ni 5.6304485565779485 7.746152031319188 3.8123802896877033 -0.7376487256419747 -0.22338001375567984 -0.6562763959110698
Ni 3.1163479218905965 8.140045954184485 3.6685104040279444 -0.21362113459670307 0.4066747294546996 -0.16326325096944141
Ni 3.320683427994763 4.354171843793424 9.244553384951676 0.2266743682362354 0.055372820343349796 -0.4495476175588258
Ni 7.384994215137188 6.183942235145773 11.242359236598062 -0.004337708143405433 -0.26941355897597474 0.6435607481166141
Ni 0.49251211838601394 -0.1170185480718916 0.29475169795972533 -0.04040205796613042 0.37003753784764015 0.0846671984320929
Ni 4.452164439911297 0.4178509643652935 1.4492971936075443 0.2686334862768406 -0.29731311359972024 0.20884453914366613
Ni 5.843206284527872 5.54537243088948 0.3658857656919984 0.309653380332628 0.2411327097534105 0.5702747949382695
Ni 7.854409491202114 8.92845400621962 11.339565339213797 -0.07330780755521567 0.3040326917117409 0.2927522337019152
Ni 0.04952032744379027 4.8477661772383795 5.767035062983046 0.18228504348758284 -1.3865072318224185 -0.2235062549208989
Ni 7.782672295309916 8.54780912817892 2.5962132528597617 -0.003657651357245314 0.2929396671223729 0.25819660721423277
P 8.440666241944738 1.4249824099202888 3.4285400009040283 -0.5952502339366845 1.1897913576214862 0.4783568284810342
P 1.8866226359355038 3.301367147582241 1.5945872618197359 -0.3589056896005367 -0.9378132205131398 -0.5018492551760196
P 4.650181032506854 1.0484542635822105 8.11414739729635 0.7786169405242203 -0.31797964081013624 1.0997117299245704
P 8.51574715878317 1.6609664145505085 12.54810204079642 -0.5837304062225431 0.5341662221411704 -0.4175432967380874
P 6.135008856567008 7.7095868248426225 1.439654333846468 0.37188693235155307 -0.13635048573899744 0.04793153357395616
P 1.819208907180775 3.195653432397659 5.905208039138171 -0.8922830972918245 -0.08147800207083386 0.3518472400918585
P 6.995774310798885 3.7226669983106264 6.0207273058825574 0.3949700394232617 1.1181359980680292 -1.5685541911572662
P 2.288309585844847 8.581713739493965 10.06461982285975 0.7963961188845123 -0.21235203807629233 -0.8576824764988196
