# total energy = -340855.9469168148 ev
CRYSTAL
PRIMVEC
9.34679848843679 0.00000000000000 0.00000000000000

0.00000000000000 9.34679848843679 0.00000000000000

0.00000000000000 0.00000000000000 13.67998437669909

PRIMCOORD
 96 1
Ni 8.171223430838578 2.1276210421151673 1.2203254625046234 1.959807443850573 -2.1128490170920067 -1.6167695745202284
Ni 3.15120761672107 8.560620394501525 13.316712534593975 -0.8332253718977198 1.1957313772550053 1.0522118845713944
Ni 5.341732611344617 5.529304159478075 13.66932704293653 1.4411750556789438 0.013431442914557513 -2.4657732922981275
Ni 3.524724370085095 5.752561783492216 10.708924031878288 0.35226812967936105 -1.8654258463441937 -1.2432019120321427
Ni 6.748173390808731 7.52013480858282 0.5905064144432295 -0.7656920049324362 -0.6847691040341238 0.14363056434017846
Ni 0.28084792169324696 6.325455091233099 7.886770449043922 -1.211826997265287 -0.16443438845940714 -0.8737683263170889
Ni 4.474919884498457 6.6312823313629945 6.247498120074683 1.6562403789213411 0.8712221628564674 -1.2970187007422822
Ni 4.540758731670675 3.4337987162958643 4.941251279586622 -0.8541464383211033 0.0829854398542958 2.1510795213281146
Ni 7.151824221867706 6.437345613592359 4.865464634991718 -4.525511802718399 -0.3939421123793796 -0.857988951995645
Ni 3.0292973265922734 2.7802799264840616 9.604648416973077 1.7189236168831752 -0.17480827549456346 1.5525758134511392
Ni 0.9882837174552113 7.0861910042579215 3.948439973038534 3.2823589987566377 -2.8906437188252476 -0.7483406581381822
Ni 3.227281208023552 8.729040352933694 7.178366324978858 -0.9667455872767737 0.06448352439536637 -0.4002767963481558
Ni 8.046602569204962 4.1910389267593 8.545010306673255 0.797551315534878 0.24224496898098286 -1.9625456687173428
Ni 0.6024731202970898 9.125952142423792 4.393149419636709 -0.6266074080917273 0.20937778593931683 1.685041876534066
Ni 4.459936966835613 7.352032641292595 11.984637686384309 1.7519142128765828 -0.027865358951700395 -0.14921808573028494
Ni 5.762217026128346 7.468568522403216 2.9938916546603647 0.2886562092556706 0.5150639540940807 -0.8435334386919473
Ni 2.34040090524344 6.855016642090051 8.804397044807143 -0.0634280865476585 -1.4215485396972678 -1.8900102205517773
Ni 0.42383711133124113 3.6774043201927307 6.715162368599355 -0.13087969243241332 0.4102123102943128 0.35827474088475714
Ni 0.8345167347061602 4.861737131832678 13.354551178121417 -0.1502023040204252 -0.37790434219022656 1.1727516285303803
Ni 8.740200430094912 4.788224563262334 4.369455285965275 2.384056177633294 0.7699739201372416 0.7694779543374296
Ni 6.21975214934346 2.9882929224831702 1.335824783684609 -2.3466301715763525 2.040391730462544 0.26133283885036923
Ni 4.608971665609182 5.008547292612637 1.9020379346858578 -0.5827572436759964 0.06472906474726917 2.7236407983077155
Ni 4.017235212510663 3.295709118322787 0.42468019253722267 -0.6260775037301862 0.413761718208468 -1.6866662995113662
Ni 8.88658998495171 3.8402348932459978 2.308934908791811 0.6758286070113845 1.785349609716893 -0.4345485730468322
P 0.4510260128842317 6.465329927680039 10.00926103357635 -0.6168927519071247 -0.015387281089347695 1.1006797502647947
P 7.694536717922176 8.795374580415412 2.4903730878857444 -0.16279659574566802 1.0630735098762465 -2.0156114381940706
P 5.640914277888561 2.6633234394502785 9.334578288390887 -0.9631177607161994 -0.4230462288341875 -0.9172099424404913
P 4.9427645262301745 6.824190901321458 8.297894980017563 0.880131035310323 0.4776829423424612 0.49668056649088654
P 6.936212278856812 8.765567640660699 12.07890575524293 -1.6080419648392432 -1.017802296743273 -1.4947997829829354
P 4.133257019715198 2.5590131705062187 3.1614442302109924 0.6015340100628672 -0.39034436772579223 -2.5149741795028104
P 0.9850964592374762 4.095028614698961 11.31587800727679 0.04511951804645778 -0.30324901946818095 -1.9064778791894974
P 4.338699646183875 1.4946184745553552 12.571344627321647 0.4949234745904638 -0.4509738084823911 1.5501828877389303
Ni 4.588679766516211 0.3115998227553304 3.256246935931943 -0.593221890652746 0.7522996427859302 -0.061876940010454726
Ni 0.48084416879689656 7.274145771121372 0.5504703386372272 0.702678380214377 0.4131752495773788 0.8879101650351097
Ni 0.9491019390131415 2.6660340109550975 4.086293097014811 -0.5449933946636614 0.13566425830525022 1.3685714732796042
Ni 1.1587225843185562 8.958448170224285 8.217894798752411 -0.7043123162733741 0.6197654454692294 -0.9991589706104728
Ni 4.1852626054145485 0.30094634206156334 9.283319511875106 -1.4683253908414906 -0.06943804018716429 -0.07751233255486652
Ni 7.6562802725110615 8.95466271691583 6.80326155058494 2.5946626937733894 4.915701132923567 0.6532376090847459
Ni 5.073591661929995 5.494580803821518 4.2140367239579435 1.3006493555163343 0.1986395735862063 0.08104631385005397
Ni 7.08282615687263 2.499913364902877 7.260637778229081 -0.09106975952432703 -0.986949058807842 -0.19642919619844879
Ni 5.8388233849335 4.8440436426650155 9.333825871128342 -0.30114071487592653 0.47795136551249945 1.43156607183427
Ni 9.05429023991536 7.912242343750584 11.764156996142862 0.3992833220866349 3.4501198804861164 -1.599036933127156
Ni 3.611864570565871 1.1431975523547495 1.0886599189979669 0.2149694210944814 -0.3103239240370913 0.5411907330881196
Ni 8.417502219047094 6.257036527732157 12.70979968510796 -2.940229757283491 -3.663732016221755 1.5762883265767305
Ni 0.9200109640076315 0.2149006516608358 10.40135735258616 -0.2087301250529889 -0.5669490729991462 -0.3475061895143435
Ni 5.629174699233208 2.90461103737061 11.619709705971243 -2.541668400964545 3.5431390504273303 0.3835931650448877
Ni 2.4666668033765315 1.2450122261547174 11.709300636964308 0.43995200345059066 -0.09548562920383556 -0.22888603117557355
Ni 3.8830619230221344 4.996461882420463 8.043502236211348 -1.60721535517289 -0.8690536944502388 0.3235239676671331
Ni 4.366085765180837 2.449450000921786 7.5153314889403156 0.27974502280896985 -0.18179679099725463 0.33368882401527694
Ni 3.3585196028482422 7.588824429234244 4.130643654912621 0.06265418449611145 -0.06646558782240165 0.005189257510423321
Ni 1.735672402518375 6.9008346473197815 12.198715819795407 0.395250546778158 0.3260084246518837 -2.257150382246964
Ni 7.582833131528766 2.7709705153847533 10.515434091066034 0.761880858716462 -0.8767312656001546 -0.5309757402283307
Ni 8.624412292847689 6.859512452068734 2.7226728045680293 -1.8440854329952048 -0.527601167329143 -1.41929368222482
Ni 0.7418637925924796 1.2412174260479714 6.147032189268319 -0.1792125752098462 0.3836062776710103 1.4504839917846954
Ni 5.916850457079111 0.6537674146463822 1.0541178912282836 0.8119109266906597 -0.9801531189319314 0.22887857497640585
Ni 2.066156496543829 8.769007262432332 2.096621450898333 0.8181733626606038 -1.1400970757201527 -0.5253535089455469
P 7.8883612741133025 1.5815343518771126 5.356562241515464 0.5702223444337793 1.002616333031454 0.46922941225846937
P 1.4730834512894848 8.008215268617754 6.099316783985217 -0.46568771765379796 1.2572051682897705 0.1235628470560259
P 0.3398953852261504 0.9525882947762361 12.301109995089508 0.24591496163340226 -3.979368096500379 0.09779602250456705
P 2.2709261535354472 0.8925089447118429 3.589641622945675 0.5160242611248209 0.6035602964642767 0.28927121713185017
P 4.098412155680839 7.882220427635144 1.4789569793364783 0.22929689346074703 0.20707459172743692 0.3065945389016462
P 5.717857121432243 5.156572537170619 11.502800887608752 0.2623803062782772 0.8624608717240695 0.3124489407998941
P 2.1716164216778635 3.8856322925525655 5.481651377743532 0.508976096028788 -0.05227464103400029 0.3698225936233566
P 5.136523654833252 8.46444184007192 4.981798625259223 0.5445712195245782 -0.6232786008288105 0.9831425405775583
Ni 8.04896730917296 9.266565375935837 0.022219208900879826 3.338488494760354 0.47722477175912004 1.4322929226979655
Ni 8.863381884791487 7.14554317341516 5.64336313904119 3.1688957020284585 1.4969962764136218 2.4195235173019687
Ni 5.969407503877716 7.975492127795786 9.868603870112327 -0.1515120239707842 -0.454352752256953 0.1916320319201216
Ni 5.517340257663704 1.1901745605727465 5.700654339174936 1.4732729646547529 0.7924042241162998 -1.0424972283867917
Ni 5.44262195211363 8.82251768265677 7.17032247036835 0.26090603572559584 -1.081893727906543 1.1642363919705174
Ni 0.24436549859804493 0.8532757588791646 2.5662279641081827 -1.141497298501789 1.0865793063076705 -2.260175285116217
Ni 9.165161961260738 2.8015065054062807 12.567103984936349 -0.3272615803326945 3.231682555447693 -0.05051986312642266
Ni 5.902690057666005 0.9541211696962025 10.670291845175816 0.9477376787157032 -2.3658422257284286 0.3865897857793664
Ni 7.902026293216906 5.005948882687329 10.547924496610516 0.8483522002368293 2.3708008552852844 2.328553259469983
Ni 2.9196033018317458 6.038695319619859 0.1949826244995642 0.5812693462765602 2.400086748733596 4.061469591087825
Ni 7.074283183233304 1.790210970554987 3.2528951740642604 -0.057831309186171374 -1.670766083341342 -0.3440074323324656
Ni 7.256788766692239 7.133083891291287 7.551843821790053 -1.6444816957235162 -4.157424446618595 1.483813973395393
Ni 8.36951575661351 8.169727943111782 9.409804125088241 0.1562467104422922 0.7836280205855665 -0.2706273767784178
Ni 1.6355494992093456 4.418128738073357 9.054644483570645 -1.1317885558544574 1.725045927730829 0.32176224778102
Ni 1.5053672925917054 1.6205946219413803 0.291135942573778 -0.5691635641519617 -0.3012870106458037 0.526751417734338
Ni 6.003065324528932 4.922584788716713 7.07184086483948 0.6500216732506096 -0.8491487279961957 -1.822652202822093
Ni 3.252573644202999 1.4511839028902078 5.595947765983277 -1.7953293466374243 0.1407534999026995 -0.38761359905819054
Ni 2.1663261338443207 3.1562642345973004 2.1858422486790157 0.790059378033207 -0.2946656486745441 -0.3553858493727364
Ni 7.149225811942397 1.8376085846961452 12.800716926778726 -1.2289955386247737 -0.6802629886336542 0.36143179845650014
Ni 7.335993535422702 8.995283902294943 4.603697267332737 -0.6354779711084797 -0.7972301847500335 -1.2804453697646334
Ni 2.896853194787853 5.203446730607398 3.9257309919071277 -1.6861353667085606 -0.36039512966186965 -0.35260622974507017
Ni 0.35090497893486083 2.441888441103171 9.405468145360361 1.398290597610592 0.6485697712954314 0.048854816719173924
Ni 6.8940395249611495 3.5990127229137134 4.541535450608779 -0.8829811031646083 0.2829331907289643 1.0567763640136252
Ni 2.3537761735999765 6.167531587283382 6.435652908421591 -1.4600657219358597 -1.9789372227014885 -0.7312520780870116
P 2.0730824740785554 1.8007354654323176 8.104748066702642 -0.21731992360452895 -1.3266851174584635 -1.8899662546877192
P 3.0361765701355377 7.877089035372573 10.317334309335926 1.2592407106625603 3.2643335087134937 2.9933202093505673
P 8.055248357625505 5.235581023136938 6.476884439729202 0.7943590338498255 -0.7015344964179209 0.8074819443850286
P 3.00914562947369 4.645246589782292 12.517007950128152 0.342854549674945 -2.3104807182389884 -1.6281641895104153
P 1.6880785056130745 5.225832312517885 2.0574284562983123 -0.9610300249492352 1.3113513153148704 -0.3661909104080403
P 6.943241071172757 5.427545566467862 2.931059672498837 -0.5923083776995413 -1.0393018613779454 -0.28453781621192287
P 8.145370186761584 1.1308691254069705 9.121635790972325 -1.0259658063906718 -1.731034026993464 -0.6862194633274052
P 7.767067872671809 4.069147330227088 0.04877439752964042 0.03393779039802543 0.42484137306139735 0.4956863208984172
