# total energy = -381170.15439748095 ev
CRYSTAL
PRIMVEC
9.22708625477262 0.00000000000000 0.00000000000000

0.00000000000000 9.22708625477262 0.00000000000000

0.00000000000000 0.00000000000000 13.50477342202847

PRIMCOORD
 96 1
Ni 7.843217070153117 4.638124076171585 12.615011176512413 -1.1133275209357922 0.720409736055869 -1.3098145669553698
Ni 2.930328820019925 4.078427479215335 4.945123998610332 -0.17128894948739531 -0.43562586527141106 0.22404875768793028
Ni 3.737357463555558 2.7081498105222575 2.7190912893819417 -0.7103682926594669 0.4366329663796867 0.22860038161435473
Ni 6.916273213883081 1.2493843848175665 5.5310153706844405 1.60618331436395 2.0403055985066407 -0.4160715972885673
Ni 1.8400194019260512 3.6083074354466507 10.569726936869506 -0.4097803649632169 -1.8919655445059353 0.25890546035579926
Ni 4.620352708079367 1.4162654664976535 0.7047556196861312 -0.300701827566295 0.2718051991366029 0.47478428063842754
Ni 1.7092439086908484 2.672404078440611 6.470042096381661 0.611586766313179 -0.1292688963018677 1.420158858438593
Ni 7.098212900301745 2.693709420561551 10.984458627375489 -2.0019650510552296 -1.2861120811321076 1.3748323665876516
Ni 2.491359419386924 6.688474908867159 12.019505180579483 0.7019898387877846 0.1987159353500965 0.1593852560712739
Ni 6.438116378002079 6.957223022602324 2.268761500174102 -0.2421300406696733 0.6374875453393408 0.6022505765139177
Ni 0.8498736957679294 9.088772214182383 6.524209706135225 0.6244024300206085 0.8443027127578041 0.6140930776748005
Ni 1.9063713790554058 8.906251221330795 4.043572160955548 0.6417926004725979 -1.9491494499160946 -0.3145438756557099
Ni 7.122009555706641 8.06012741340953 13.158133158461364 0.6269611918867203 -0.7230145206685678 -0.20209462201434225
Ni 3.2867803884365707 8.194390745242272 6.1543004324421 -1.3988755235797843 -1.0978463945810575 0.6443747593774773
Ni 4.081398600983609 4.207588232359085 10.092306422470205 -1.1574296534613293 1.311370084367948 0.0958260432623898
Ni 5.280495365810216 4.401163274522446 12.065299209573084 0.4283131336600817 -1.0706441231346528 -0.4181261658247509
Ni 2.271966989932792 0.8058346585765813 1.604096647478561 -0.7347582914680572 0.03288929452885304 -0.062114509942557544
Ni 4.304869402554439 4.262563212158375 0.6611041201167319 -0.43577858879919146 -1.0259300680567298 0.6990693227068799
Ni 5.222134045361995 -0.002819797553988422 8.89747164877641 -0.3630374523807231 -0.5002561996572868 0.05678435597889575
Ni 1.6763308920839222 1.9408622274088374 4.151502311376876 3.016608233344231 0.785190737086996 -0.5585909308424379
Ni 7.554012506230804 8.681045727547433 6.980779773765062 -0.40232313735422326 -0.5350959330442914 -0.696966160320948
Ni 3.393777680439351 0.37411405689126764 10.663855211697719 -0.5116477293236801 -0.33460490807164306 -2.1080024876329824
Ni 4.050128005726846 0.052402468156449764 2.777391711061001 1.0674469563535938 1.7641308095474328 0.844330737782262
Ni 4.1324982045634115 2.1595164899640196 12.005608265998127 -0.4863665861593882 1.786975061135458 -0.22150773643363142
P 6.991003385315517 0.6395754825088596 9.986820527193025 0.21936960704470607 0.4171134082895203 0.28740305357485985
Ni 8.223123891783894 5.261681336973233 9.886169625103967 -0.7771688952237841 -0.4067881151041123 -0.5810104361882187
P 5.273741138684826 7.397364263187408 7.7856778830886 -0.03522282775803611 -1.0341061761096189 -0.9486871871131662
Ni 5.087510857166016 0.3175234142919011 6.222149042959076 -0.08929287012956234 -0.23623630089305764 1.1262946226194215
P 1.5853425947021165 7.888900374111876 1.8286405591787391 1.1714192828722019 1.8547899638969025 -0.6609905135572874
P 4.4198019887209306 7.698933122667133 12.089027584539826 0.9936238997248564 -0.19523620433161212 -0.3336520572400706
P 3.741288202292466 1.216342189003324 4.639254394235602 0.36420010523025664 0.4398530159788812 0.4451849697147559
Ni 2.4660587489254175 7.82175486756615 8.727217144368122 0.39183277934586064 0.7664911037949638 -0.9342072483294362
Ni 7.717987055746275 3.220114690375162 2.9310217741963145 -2.2705771971758315 -0.010585231715014028 -0.28112159144152227
Ni 8.839557842010676 9.19155272777491 8.840994499337757 0.08930084054936234 1.3787525275776642 0.6951031389702803
Ni 5.012476191887764 8.277166935873261 0.7965411373188028 0.37247880029928104 0.5725525352288526 -0.3522591308182965
Ni 8.793680769240943 2.925909045712463 9.574465734101661 -0.5051140419702204 0.3290071022688914 -0.23414059470629353
Ni 7.58515392228025 1.1192086521877607 13.077374008881758 -0.8588379302595015 0.21592972812522168 0.9626737312002454
Ni 7.390416267251044 6.056576362107377 7.401399267998793 1.3603938225648182 0.25417205943587196 0.9646529664138032
Ni 5.589695025607835 0.4071341076985417 11.921217335275687 0.33883154455848097 -0.7674439546265364 -0.5631716082345849
Ni 8.972990736082098 2.5925990095778957 4.866512914706668 -2.050164750688908 -2.1964335239828814 1.7297387052208082
Ni 5.413420770138611 3.677436765533304 4.93469831387129 -0.16216204748546267 -0.4956989193039076 -0.2580742227037555
Ni 0.0863443048787875 4.444668986129304 7.891365851554369 0.5122401114920404 0.1261540048219698 0.5806088298744259
Ni 1.321208024085387 1.7187939429460122 9.07640976404222 1.7105004258164862 -0.7650566853412823 -1.0693171767931131
Ni 6.933297187990113 7.697853553577418 9.25004045930458 1.3046307087615854 -0.7982557978010704 0.23199809444199399
Ni 9.112504279983618 2.8265517811138134 12.077089580366561 1.5960518823569028 -0.5399671450936636 -1.4304471277384783
Ni 4.20763436779027 5.277967144181313 7.965047825990295 -0.48165555383696407 0.856973366246937 0.07926993867592155
Ni 4.71317719562231 2.142474061684515 9.566646701224535 0.7363950557405318 -0.4255862216472218 -0.40512409713812814
Ni 7.035883932771668 8.991924717040161 3.7698977058785146 0.6495802148378168 -0.2523594317071654 -0.37128220888801866
Ni 0.6588490202404401 6.279631944797548 2.647502940813162 -0.8253775937185269 0.08960063117796827 0.3167041165318223
Ni 5.639124526578764 5.830706518114961 6.090760871197745 -1.5808780028299418 0.45351277285416086 -1.1172967899961854
Ni 8.687421644137112 9.052103773477048 11.524878918474286 -2.065744607405036 1.3164477560011716 -0.5574172222493109
Ni 5.770702776316575 1.8480377398658938 3.1494619683508014 1.1211557587309595 -0.17791468233402907 0.2912846480174532
Ni 0.4570249629813146 4.027263286031874 3.4587345221296903 2.3987983689394747 2.0084506587795734 -1.3750766213879737
Ni 0.5079464837967462 0.9391605184476557 13.41527728854504 1.789327106307402 -0.4736010589636037 0.3217720179730329
Ni 3.2374985208454308 0.6702813800879258 8.046508234123905 -0.7840370830985272 0.30410725370341823 -0.5333365271510234
Ni 2.9512835328638642 9.198648357091066 12.826253320693512 -0.6290134464300586 -0.07042457247014967 1.489348530060377
P 1.7531648391783645 3.157066010118608 1.8750564937847058 -0.8535653690066526 0.21629379633285975 1.6048473691613458
Ni 2.2158109430951822 2.7977540449685323 13.443597061623251 0.2996463897185872 -1.121365046528288 -1.4999723283228104
P 9.21536783735228 0.3860603654421472 4.607788184750617 -1.927237480334352 0.21153982658764212 0.016903203513241857
Ni 1.8804432667297923 6.462761925340769 4.803094228292015 0.4501615969937408 0.3090589412817387 -1.1768335119092377
P 7.872402343920347 5.499777070229507 3.099777799799734 -0.4813799315780741 -0.527933096747265 0.7327793133648155
P 2.9963486220447524 4.4589986510551665 12.271841998733747 0.4352437993416439 0.7023600776430097 -0.07914369751070241
P 1.3289034140069391 1.2507684477530976 11.168730921194834 0.18481243789512686 -0.5673380809074486 0.9171459219717755
Ni 0.418201997639671 7.574284414693214 13.397599114023814 0.6731045232120021 -0.2893812603471532 -0.17314682863174052
Ni 2.746432991319044 5.085508579452615 2.6476247383514884 0.30491637986827486 -0.8214944566140369 -0.13753293608287284
Ni 4.001842663449288 7.1196474216300025 2.9084956885662363 -0.9483447161720828 -1.1222870441219253 -2.692697314651324
Ni 1.1483016550926217 8.041793193056863 10.713323466430843 1.9332008970066383 -0.10651386199353914 -0.240343895303528
Ni 2.200844609218974 5.856357817853468 9.859294813730449 -0.22848596752367745 -0.6708352675618512 -1.7014051483834374
Ni 1.3213187491202292 5.098841719064896 0.46432266548605755 0.7256972097070534 0.5675339989683387 -0.226687480862358
Ni 0.7265527655034966 5.352069873749642 11.543056278360927 -1.3267187989098763 -0.015876047800308143 1.1476026400685786
Ni 6.322371808246744 6.206110521662143 10.980799164973945 -0.02000112571227523 0.17444832105198343 1.2704815736837023
Ni 8.127245238696545 5.873695512892552 0.9725884064665995 0.3635023078322836 0.24355237493849669 0.1845113617149403
Ni 0.34391933988972406 6.869842515939136 6.461345567603408 -2.7771022605609654 1.1457774139343817 0.03063495127703756
Ni 7.654550837867773 3.9820690176436697 5.931566875061597 -1.6038011872850184 0.6443809300250645 0.5595859477658557
Ni 6.361614606012165 2.845799483003931 0.04536404677496295 -0.3757788112067916 1.5653498252873557 0.7530974560968773
Ni 5.924665937265039 6.1088939410704475 13.429024724329357 0.21643083613135627 -0.19445150364678768 0.758693462127416
Ni 5.107902717749505 7.764270120310432 4.725549795557333 1.5132896142570067 0.2859308399047076 0.17993248409500626
Ni 0.28719859537441766 7.013028440162933 8.891407607701536 -0.7971124282252466 -1.1372616631538863 -1.1122000921995685
Ni 8.462474508768382 8.76474462680211 1.6957271500624531 0.3318561416819123 -1.1158582577774458 -0.367445865861064
Ni 5.821470204791851 4.565008644830602 2.6903267707471135 -0.8810499475801665 0.2322590614128645 -0.3548955399998791
Ni 4.357869785899038 6.772782795813468 9.906318813319427 0.0425422442375848 1.4193988403441167 0.2444653736710693
Ni 2.1066268316542627 5.868989698911747 7.077662333834982 1.4979676391879557 -0.5070431406721332 1.4175612729147458
Ni 7.567557868826533 6.771647864206332 4.947865365931307 0.23290517963729568 -0.3346339615373656 -0.48484037932284885
Ni 3.6758681608730357 6.474397281085465 0.41468740049204605 -1.3673345155487098 -0.06800722127790867 1.345472939588928
Ni 6.692940818605805 1.753635420576445 7.966033278800393 -0.36108109998530075 -0.27268168820428523 0.33870376073136504
Ni 4.116461528683727 2.3265544321101332 6.744634646539263 0.08042513532628728 1.2694076238932333 -0.55145277713576
Ni 8.92883912843866 3.377694869128481 0.7358130692508223 -0.09366503105532901 -0.7373317086221882 1.6338712671975217
Ni 5.810683740980946 3.909544119821847 7.383883490195337 1.20475055003448 -1.0897448485198458 1.121109478874056
P 6.548592281516162 0.49393238522018335 1.5802344797613836 -0.5086012291878724 0.1373028223499377 -0.08685932098740524
Ni 0.5745771189304543 4.670548057207957 5.735396253539803 0.6040529198299791 0.18360890450532893 -1.1200578976810904
P 2.41461774315485 4.018396056158239 8.441307572940996 -0.3585025406248471 -0.7107447021622791 -0.6139408683676524
Ni 8.863935803848495 2.025004026802883 7.252711232251949 -0.5270522368042085 -0.21608965074185366 -0.1965253554566809
P 8.374568058189693 6.8687168114182375 11.421743162061636 0.03838168510199196 0.3180403188447426 0.4344444433688002
P 3.938987752003709 5.87585465107198 4.534930189115643 1.083189049679199 -0.8836755581284716 1.1271094052112332
P 6.185331123456704 4.22672520921436 9.872340068252141 0.2647907154919827 0.47922868956302633 -1.369016788347139
Ni 0.022813970720668764 1.5261231552338648 2.5658395367823403 0.06555798840646775 0.016159897589314107 -0.5389916685542717
