# total energy = -340853.4286164373 ev
CRYSTAL
PRIMVEC
9.42909047677788 0.00000000000000 0.00000000000000

0.00000000000000 9.42909047677788 0.00000000000000

0.00000000000000 0.00000000000000 13.80042701983593

PRIMCOORD
 96 1
Ni 2.997951081763623 6.953992063472841 11.88681894604894 0.33699989066638086 0.38236546328537374 1.8808321535969348
Ni 5.198153949917396 7.343894390533664 2.385887121403045 1.1558617947535772 -0.3895563246068581 0.5930856221851979
Ni 8.689369050339161 0.9329255428451629 5.917126825774117 0.21953081521291867 -1.497548806482982 0.17131877428406625
Ni 7.556096075390228 6.1178485927763 12.06963298410735 -0.06703585850357487 0.720425676895469 -0.6488551637463341
Ni 8.677893847030099 8.981557711096114 0.02550286145441244 -1.2463088330922407 -0.7807005625261264 0.45887892226208066
Ni 3.0338004843774717 9.298846611137147 10.310906740088829 -0.29728174614115255 -1.9332327786858383 1.9023175771642207
Ni 4.4845792284521595 8.516703542536742 13.03885109682645 0.11525612696254343 2.035261351214514 -4.059817657306698
Ni 4.737816315774655 1.8185981408562804 6.035064948592044 -0.00982289962769276 0.04406562286064669 0.2894020862827597
Ni 1.6503925929266527 7.064142700331067 10.039507338375277 0.6624107909435818 -1.276979265592904 -0.05705535025209529
Ni 6.810028707579037 7.6401564184471615 10.513565242308498 0.2850474088584897 -0.23560946594233617 1.6340329895863663
Ni 1.6513826474438684 1.0688439986047904 7.141376381764532 0.16212528071025628 0.299613993818755 0.0118530426838441
Ni 3.4035622738309357 5.112518948723557 5.870218985657501 0.3815496522522977 0.14169349521846566 0.8896857688782935
Ni 7.0202219961292505 4.225524392204691 13.024691431412139 -3.943392706847034 -3.6691426457143645 1.7442996337541183
Ni 4.786960736191115 2.1413276261966785 13.209202705785776 2.607658077591793 0.0767631130936678 -1.3296053764290523
Ni 2.7380476273585415 2.662784625868868 10.948693259715734 1.8522566559520877 -0.19490993134044496 1.8404640341925336
Ni 8.704870475351568 1.7082777803665308 0.38567809445403634 0.12093466540455948 2.259559248798773 -0.27247291462758877
Ni 2.0042380773795445 5.741165850792967 7.630118208551659 -1.122030705136745 1.0978160555637544 0.23067294787266726
Ni 3.881494591108195 7.00066606214158 7.538469333347534 -0.7998655654903515 -0.5720092611308729 -1.4706445258929706
Ni 0.22737592042375787 5.270163915136218 2.2680725196725042 2.178954650471828 -0.5148613511649714 1.6842720882475766
Ni 1.4235663884872158 2.5114194338225473 2.182978748281411 -3.539888404700516 2.780047973452851 0.604988544270371
Ni 1.0074134730842161 7.848181016150141 13.372683336395625 1.846535437197594 -0.7896850254129238 -0.5864807152741707
Ni 2.058379915835283 6.1758940747570605 4.206066520759678 -0.12033791236082501 -0.6031656321290193 -0.1794069506088394
Ni 5.881687588603116 3.9775110210968374 6.905802809938229 -0.258053139657833 0.1256320708802288 -0.5675275712104354
Ni 3.2221088535518985 8.021402840300329 3.3988929881459335 -0.41897822941240104 0.3286774868436146 0.36850258926035245
P 8.776616426032465 0.7291430930211872 2.2453710410472802 2.0285147765193 -0.8892782490272297 0.13735167331000214
P 5.882385341310487 0.6635665963461392 0.5457906538872235 0.33298408463876844 -0.5255414565866368 -0.10684681985292567
P 7.896599396587309 5.832524310005375 9.312307580935023 -1.45411181834527 -0.41498993418861424 1.0502948700543395
P 7.14192326902166 8.88100588850956 8.995256293978125 -0.0973944161907742 2.4014592036010898 -2.134229025429679
P 6.652723188429422 2.3968371243634503 11.835260678428602 0.06166122445522283 -0.281132904295432 -0.7997411240973453
P 4.086058712546239 3.407748790075162 1.1416790092546254 -0.7806702235088232 1.0442617764863824 -0.22228498091928814
P 0.7886991153224997 3.3664682312525875 10.77159230767619 -4.2678304445776885 -3.9422012576420946 -0.9482935512191732
P 5.420077027223955 2.820816184997774 8.672616384998808 -1.0066881891079822 1.1797362873783295 2.1460938951880655
Ni 3.9094046994030376 3.8009230115881176 3.918065319156015 -0.6762662087694353 -2.482305742735512 -0.7961811746602288
Ni 5.78048515876239 0.8325396722538749 10.278130278114604 -1.3046739032946952 -0.031706329964345394 -0.4209021859079913
Ni 9.075282872059201 0.4171090251939108 8.621775671176184 0.6362508447187623 -1.8464847864653167 -2.6444011986490974
Ni 4.203215163750097 6.733832226115989 0.47835756926513007 -1.44063203869128 -1.8422262682992787 -0.9559081303416376
Ni 1.5511231266671588 7.996698622823136 7.897666769647774 2.5047761559238864 1.8175794162848762 -0.7525945483185296
Ni 0.07983233881389003 1.4678831144959186 11.865083006305266 0.6304581492963852 1.5884820404294449 0.4179487597066221
Ni 2.913183556908679 5.1257196756197665 1.995196522364705 0.3937459372081735 0.11559834079331058 0.2484351569520947
Ni 1.3452483616301336 0.12082059582662004 3.8994900105949206 -0.6061164872272271 -0.3877010165656742 -0.2322189522035485
Ni 6.728448215360464 1.658991923590469 7.656283935078074 1.801101987455143 -0.8108184649574294 -0.9615632717448858
Ni 5.4342206631841785 8.066737908098167 4.579147350118475 -1.105942541325631 1.3763698862781004 -0.7925638896226157
Ni 3.73616401707157 4.392287289266375 12.910093092498952 0.11955783966169087 0.7523240682659624 1.3686720034132107
Ni 3.6384974962209014 1.5460879922653188 9.107274833692165 1.3944090031679985 2.476345154276703 -2.0855351597684018
Ni 9.135977928509844 6.916237984549682 4.239311608538717 -0.5803951712017231 -1.3350363176366364 0.7759172822048701
Ni 1.7848137090926248 4.885523020652597 11.120991032983186 3.022721031110188 4.489685794158726 1.0061994223970219
Ni 6.492579512997123 8.123755619199152 0.43917686892811675 0.374462149277897 -1.3932944299475811 -0.4728500397301922
Ni 0.5722147374971785 8.97491963128545 10.809474622232054 0.7181474223842534 1.2479435404821861 -0.3775806403022207
Ni 7.508111433122507 4.787309612544799 4.994968361530941 -0.7571369162735735 1.5825731311441775 -1.7657434054501915
Ni 4.835501694806604 3.9414918948514663 11.07133744167216 1.0684933953402374 -0.35723215855285567 -1.635685437588125
Ni 1.5728571805927034 0.24418516030795243 1.282468533238954 -0.4236404107747607 -0.7336979685243429 -0.45010580405514095
Ni 8.07510151149598 3.7983394407527165 1.5239258576247112 0.14793227703932588 1.003592323791478 -1.7118775086696711
Ni 0.21499741023136953 4.838132411095206 8.911681549089158 0.6139169571082523 -1.7225738120412526 0.40316054565385406
Ni 1.3666901137458336 1.5217326511418126 9.582534003772942 -1.275621723123745 0.6630990752598579 -0.2608859811209378
Ni 6.045244594847149 2.589643169773228 1.592582838211896 0.11246082360559341 -1.9509458796948853 -2.58432223107933
Ni 5.087107549448354 1.5033082080309603 3.6070590222085146 -0.22872610855894154 -0.6639061445421856 0.0007762160443922115
P 2.9239987238729306 1.3868683677157536 2.5922587995168054 4.074531052257473 -3.106511483364282 2.000120798757639
P 6.923319231620434 6.760016810823684 3.589450195438036 0.7107146202552922 -0.12497978200821057 -0.9651741290245959
P 2.3008678398280087 7.3360588162116995 1.5376432986880009 -1.2055056830329496 -0.37662753236033203 -0.49498106730127656
P -0.41640844375934766 2.6377126738567105 7.882928158068156 0.818251524196707 -0.521281138648386 1.5758026451895635
P 0.48503619416554794 3.571192647231514 4.2546442528286645 1.0781134349285046 0.938175488948565 0.7694653559319393
P -0.12948970176117353 6.486120585908621 6.2958651095170035 0.42217591041409225 -1.5729394647091557 1.450335382021973
P 0.8567441479271388 3.5099695617050233 0.3627182587452722 -0.8951956429529293 0.8158542276091238 -0.44227036717112217
P 6.763166127097493 0.8189429235507792 5.055220250721496 -1.274104000927638 0.15862600930774615 -0.6275301770163128
Ni 9.156137324298484 7.367778277125162 8.867161154722629 -1.9982855453211135 0.7874769620180115 -0.27146812751215826
Ni 5.815042775958538 5.955564513768686 9.222080612599433 -0.9920565552377366 -1.9020998047264595 -1.0124297195774499
Ni 1.8315819986677664 5.432466852325111 13.614563084042059 -1.1404472599707198 0.7417342085652581 0.4147531355874599
Ni 8.417000338107801 6.172320449404444 0.6717925350206057 -0.6919486525016987 0.7285791592405388 -1.250034361572944
Ni 3.2295389769763356 4.426439455564997 8.98216022998802 0.9141171624477806 -0.8700564246831402 0.6017648951267508
Ni 0.9147198546371621 4.137447256535054 6.567126846507209 -0.0768772700740289 -0.8971124003596679 -1.1788559416559055
Ni 7.063341227626655 3.9806509082800074 10.098600392326158 -0.024442706423396618 -0.1671751844293379 0.3036827645714899
Ni 8.320785897215716 2.58220361725815 3.348273857953355 -1.4013376119670318 -1.1342300754164143 1.2756682600909643
Ni 2.6382501320231992 2.2210883039217033 13.404534804578049 -2.878506055021449 -0.21429836316938575 0.9585813062984265
Ni 7.37016383705712 0.23851167646977445 11.925722431121134 0.1917564733131278 0.028147923189125717 0.627976263414796
Ni 9.28080876074254 7.845870888943305 2.382643514222833 0.9880428060926533 1.298917460426892 -2.958692334864053
Ni 7.199733023736417 7.216875110520209 5.659969122563448 1.2093309703163106 -1.1113721969816344 2.1434135201424245
Ni 4.762482816889286 5.706400793602736 4.1609115485930666 1.963150135070561 2.216064667950248 -0.6075282799730892
Ni 3.548110233344428 9.054020272665664 5.6251918075553835 -0.9230358050936491 0.5078980324732607 0.6070893926634576
Ni 0.40213374343922526 8.469539231154714 6.004579755643377 1.020182366939675 0.3622095571627891 -0.6128381222217768
Ni 4.9183928306241596 8.152825505642733 9.045366253276136 1.6899367427325216 1.4927164180913453 1.846777635115387
Ni 8.973410976783025 4.3845460058508126 12.603267654341295 5.288298975299215 -0.8267289655400988 -0.8412238167221642
Ni 4.0771010764380975 9.018793190034065 1.2583517481086437 -1.1041437975539954 1.7161319130706512 2.500673189499106
Ni 8.345037518342181 3.0250125719008527 5.984348698765871 -0.7779350839658473 0.7598437736817754 -1.0151625451275805
Ni 5.885308359408932 5.283817238383154 1.4000530651578749 0.46176575689157245 -0.7415169503481294 0.2394689488977424
Ni 2.423078283614987 2.0229171059376805 4.8127059252749795 -0.15575228730437693 0.6119274374820494 -0.024143430015422934
Ni 7.887915204107731 1.7372156595411496 9.842519491266593 -0.17865104627942138 1.3646212303826046 1.3652349527072034
Ni 7.1149749279721135 8.982161172897085 2.69191108685629 -1.3091512223397583 0.03178243461791946 0.7773614708505644
Ni 5.947719510356083 8.973571271323909 6.6036013978304995 -0.4040555466642977 -0.012316869694140078 1.8243972105376578
P 3.164016226117937 3.1966125924609337 6.779680236444652 -0.7063422022192094 -0.391435543907442 0.23080201725136382
P 9.045383225639286 7.387107912937469 11.532188961254787 0.4765994794702953 -0.25866686198243194 0.6069505530927481
P 5.725221258520474 6.143891741124393 6.986190522190823 0.610299157850007 0.0627724552415306 -0.9976929275879075
P 6.132859705075418 3.8114458767425243 3.1199870873737585 0.2697344326505032 1.8459808502457047 3.773721752579036
P 2.2652447353895235 0.2827378832083318 12.448109139130441 -0.02466047886115753 -0.8093267109032514 -0.27484835683830083
P 5.708494051724848 5.811063699708396 12.993806445020327 -2.2727605779803954 1.1618594070979087 0.491016940447206
P 3.5019265473889756 9.219378235221967 7.906223669403709 -1.1578839673899284 0.0009001432167661916 -1.610692515088213
P 3.875705129455143 6.3852764615122215 10.106259642653152 -0.651796248652529 -0.5560427104992874 -0.7747664564298786
