# total energy = -381174.3962591571 ev
CRYSTAL
PRIMVEC
9.11994799553496 0.00000000000000 0.00000000000000

0.00000000000000 9.11994799553496 0.00000000000000

0.00000000000000 0.00000000000000 13.34796574993312

PRIMCOORD
 96 1
Ni 4.348327348128753 5.8274734680137055 5.653210414371329 1.378168115829104 0.011669980138760546 -1.2280097776727368
Ni 0.5834878865757969 2.515792364706288 8.373739226836596 1.4919270894208305 -1.4354607789029858 -1.2638733243385654
Ni 1.580888259336925 8.81216795713046 5.087029453040961 -0.261852201688949 -0.028055363475319423 -0.9880008971111244
Ni 8.982273226497455 4.370844499644253 2.466396902560378 1.527116749948086 0.6381987124737526 -0.04458498569922644
Ni 6.832865651172984 7.950205195552499 6.512285800424865 0.25528483288407644 -1.7128180182060695 0.053980825091829616
Ni 5.726543003930254 7.350422697954935 1.9002961967720662 -0.7911235576316633 1.3964658856970273 -1.5637793954764423
Ni 8.226621698299885 8.022909420696916 4.506407054114485 -0.2613148411282403 0.5821093256793524 0.5163273941875366
Ni 4.509650107609385 3.5833917129069706 10.763306039795038 -0.5044244721023635 -1.3526116075162382 0.538714246523169
Ni 1.144900027117402 4.256370912838842 6.937378430815482 2.1610780273017234 0.13787746390648511 -0.576708209268439
Ni 7.316542091280134 9.596282842914047 8.915133081603992 0.15644134295160153 -2.9131282730810084 -0.601937416148873
Ni 3.006153726668789 1.9388644566987776 12.299763736655974 -1.2014916767775503 1.9309213569438426 2.395863197570551
Ni 3.2784388929898807 1.2724516192987652 10.052526479554764 0.026175887064419433 -0.13295431557325488 -0.4223949684034338
Ni 8.376872840955967 0.7825544626874746 11.045214575204488 1.0430631281925906 1.6028637630724136 -0.2607399424613768
Ni 7.021265536149574 3.765234355299663 11.932707719104236 0.8593061281451716 0.9167759402268664 0.05888520437198246
Ni 8.714365635197604 5.8752437554329795 6.814136926040447 -0.8319254221393736 1.716756176918211 -0.6323880193292464
Ni 7.616396860287072 6.244920846028687 0.2156138096919627 0.21827611687021117 1.0572188508676823 -0.2332949588765466
Ni 4.191619282316343 9.070636402290765 3.0140105618371176 -0.5073573294784424 -1.4411416313378471 0.7289110886586607
Ni 6.791616126545763 0.5816110012854404 2.856238198097669 -0.787955701426643 0.24489834744342984 1.7774288122079194
Ni 1.1108096616395 9.385064848139246 2.369650670601395 0.4853669412502802 -0.8782728990556617 0.3129906722359771
Ni 6.376339296145479 1.8386818283481217 10.402950448010182 -0.8129293406528452 1.4984093547110646 0.8798582412649105
Ni 8.443284302007353 7.890688415159564 11.956040193967441 1.1031210127164357 -1.5674501594598103 0.1134995492827529
Ni 2.8190123945108043 1.3234321284002823 7.771559094920107 -0.467049373888015 1.7980197489853935 0.5886466125772378
Ni 3.488909052031887 1.2429759474890862 5.254105987690137 0.1509803198370303 -0.31537202798396013 -0.25244376389085554
Ni 2.2340954120895318 6.339184628152709 12.054961533515103 -1.34702819989119 0.27957995798601526 -1.6793795360419659
P 0.543599058184345 7.22126599493245 10.110777411170723 0.216928087482749 1.433591586904731 1.3951358540316943
Ni 4.710544321292431 2.2270912920555492 3.5411088981757786 0.6318218624131312 0.4765596273712954 0.1991280831868506
P 8.272476796647368 4.291774550823116 8.228019786322292 -1.3232200417279987 -1.4187606925394858 -0.46209562942716553
Ni 1.4517771560542452 1.9301731462920253 6.108429880856035 -1.603170238569239 0.5813575351149923 -0.5539539462910589
P 0.6890941479788093 3.9021430140889257 4.676392852163191 -0.15039230854404423 -1.8100946778720568 0.8958685006502377
P 3.099350474881384 4.315249296874512 12.486234752638833 0.8427819052379034 0.312482622251307 1.2767668924717819
P 4.940139011208477 -0.1856411007184141 9.018018862530262 0.38171985928157487 1.1228354604262274 -0.19798985581734935
Ni 2.7082050267856816 4.426822740228352 4.048277412235451 -0.5139648074926308 -0.5167598537392648 0.577151981674077
Ni 2.936167246016724 8.684433965989879 0.6573366651893096 0.2219185987188049 0.977943512875122 0.2626322743880832
Ni 6.807211237558928 5.459985164928618 5.390055227953911 -0.7094910322608362 0.5851064606344634 -1.3696978735745635
Ni 0.42451077771071116 3.1448316553624696 12.577627575144756 -0.7904635554501612 0.19590880491860455 -0.029484125502045995
Ni 4.776554504633537 0.8367278655701083 11.843236469633673 1.1448595301058024 -0.6673367674902894 0.37070242512514867
Ni 8.635906722889848 3.231361721615635 10.08645724594335 -0.9735677524049298 0.06411045732666379 2.7881965707019143
Ni 3.031853740022649 6.1421025527173265 7.490344587550483 -0.8078717236242796 -1.7170539106642881 1.5289874846082376
Ni 5.71305460089606 5.092834299918084 0.9944938453459845 -0.3766591569292158 -0.37737880870405976 0.5969659310762107
Ni 5.722530226827451 7.534627406869504 4.3501686656220615 -0.37708364606114414 0.43310515573208636 0.13568971222654697
Ni 3.8715182288361722 3.82856327394026 1.945065109317404 0.18608899061470532 -1.1284798031961984 -1.14742986193614
Ni 3.4732501013829946 3.6317091972039006 6.231498106619811 -0.025221750681266242 -0.6131767365081182 0.7769614071986684
Ni 5.040230440079524 7.066810556266386 10.108174578022677 0.4599675273405691 -0.9911648966614028 -0.27024736773117974
Ni 2.1827501050695783 8.863239665711587 11.662758171455934 -0.4437672634316228 -0.8921864238129602 -0.9134671875686075
Ni 2.995784345837228 7.965927985837117 9.372567783448405 -0.876396250858239 1.3497741380674433 0.4572419008792899
Ni 0.8520958898790469 5.216044796870051 0.3188771564638159 0.0029146025436336902 0.3586256964662727 0.35577845682546466
Ni 7.827250057143437 8.954658024071803 1.060380909389618 1.2447764556081142 -1.5941261260890995 -0.6111872168819151
Ni 0.8276708452501232 7.632922205992251 0.5214038408318651 -0.16260633411173286 -1.0368837388547563 0.3462787448651456
Ni 2.847092714282463 5.76156360410017 9.844391939185547 -0.4572185038405222 -0.7549216537898096 0.9019064793142015
Ni 7.174681300748094 6.005804930441445 2.947991258548051 0.5980077420771637 0.08646337110056722 -0.23973043008924522
Ni 5.300130717069692 2.9874487134009517 13.16473790505063 -1.690636597013024 0.2356539460270264 -0.5609116085558147
Ni 0.5966543554469704 5.440732954783125 9.06728664540472 1.197896503227124 -0.9491371301663911 0.05655064270153486
Ni 3.2645856920372496 6.312599979846641 0.6042996078226058 1.1574566500445227 -1.2312398545742602 1.4521950609385312
Ni 5.822220377988217 2.895136600140565 5.9280582860694375 -0.3621643057471504 0.4576123968448313 -0.7791057072351807
Ni 8.177446938894628 3.257681891430837 6.273530122782079 0.7749536327400203 0.48764648131307625 -1.8951555121981423
Ni 8.94327632901658 1.2573854652673326 4.314676564142567 -2.0047225591957085 -0.02187186037242685 0.6662738734434138
P 3.0792501095755265 1.5607514142392238 2.0230443123624156 -0.23467564127415716 0.04903068017540588 -0.7078365273765487
Ni 5.053755322905562 7.093440804312259 7.669246958720577 0.5016847045736973 1.2233851344165316 0.14820635663631895
P 1.1538649359629816 1.737906403380006 11.121645211085735 -0.06830649768588237 -1.6283081712874472 -0.9451624617893591
Ni 7.1082060000609815 5.959466474852034 10.755844098373416 -0.11248010687930306 1.3949149962701397 0.11733846341286888
P 5.889306715188712 0.6412025652516541 4.829974599814599 -0.11486531928202798 -0.005820720446835137 -0.6416905276770949
P 3.328753645890251 7.599515836611418 4.5402840128101 1.5213243116360253 0.4505048392657725 -1.0178814867206405
P 2.8170242458553245 3.7724482341367476 8.467868945725593 -0.3055157040151706 0.10636679489271358 -0.1400960688243587
Ni 2.10705453699398 3.58418514837957 10.70262555404229 -0.9832289296437776 0.7714409916010715 -1.477223978882701
Ni 4.655988792590235 5.033262799837385 8.778943986708846 -0.8491551557540988 -0.41471456904004067 -0.5859968336592166
Ni 6.3877665909405055 2.714215072491925 1.858530483090258 0.5817174895575723 0.7075156537020203 -0.9255565146329738
Ni 6.49250919327162 8.686805152459716 10.969451519513978 -0.9248322348724396 -1.5842096383063362 0.1470673579358693
Ni 3.919179076879916 5.8824849941139465 2.860455262034796 3.6841242067248614 2.2537110175481123 0.8899991863536544
Ni 5.110682038077596 0.7724039606069757 6.80200283527845 -0.5161085933085111 -1.1326349630151527 2.0730771365107077
Ni 5.012031560984373 0.9067809218422881 0.9436629033910262 0.34974999124319767 0.2035858618478881 0.2553120865775861
Ni 1.8223844813419656 6.219494431113654 2.5607135803825734 -2.840945580269172 0.6040881439432886 -0.2097822204665871
Ni 7.034562420276589 2.350566267498383 8.042496332932574 -0.7474292020675064 3.7256205261964355 1.3682464858400178
Ni 7.648635876328909 7.217207618089843 8.70339433780062 0.36207277447460867 -0.2362545557255028 0.43844096612270295
Ni 2.0600594451513827 6.368797099181801 5.553968052655443 -2.4479689171268553 -0.8702261174917851 -0.7717870620865805
Ni 6.511879962740604 5.245639028003223 7.549756488541867 -0.07244648799618492 -0.12620362711298266 0.05969972985347784
Ni 0.05914651050572095 5.308812907528483 11.350442817549997 0.4627607738149901 0.26223375339808386 1.1357621957902244
Ni 1.145310424775643 7.387048408965971 7.826993786605735 -1.109215812760264 0.9747733426772568 -0.568964303656962
Ni 3.0785843533743793 8.490051395150926 7.048112838956917 0.5671478192735135 -1.9602301332102887 -1.7381477552201094
Ni 1.705120190460515 2.2075837233671507 3.666245528137091 1.3150287641664578 0.6062553267979365 -0.6920219289417953
Ni 4.69578824549167 2.474132442420826 8.445111027583923 0.39745166819453487 1.030464979812606 0.4426249222970635
Ni 6.418965932914797 4.096324946072737 9.618503596120817 1.4940603337137495 -0.43661419732660933 0.17026179377446163
Ni 7.375456955107647 0.9443523714568713 6.5030491171300495 2.4045568686898076 -0.022809027474715558 -2.4270686766390783
Ni 0.7783611106150456 0.7420810456317279 13.239019881192288 -0.53623698862727 1.2000464596905913 0.42054377412730803
Ni 8.786021066326516 2.0442363354391944 2.0128600664744614 -1.0037309062518711 0.02278280222247044 -0.5899596749617064
Ni 7.25086022606562 3.715129361202394 3.7816922133899316 -0.7387964660931728 -0.8894818803976037 1.1322932634050178
Ni 4.239544608850953 7.646045811108008 12.20128197860003 0.6483733390139091 0.5594059705445656 0.39473375504273955
Ni 0.6411834133609361 0.20922346215574927 9.226714279699076 0.8045331461693498 -0.3283987792609312 -0.29159780838249777
Ni 7.571088958817244 1.6692787949741175 12.987770786837842 -1.1843215927561668 0.4658280998864042 0.7233788459865219
P 6.072344070764284 8.406074914326817 13.278676150910735 -0.10475805564469702 -0.39384492467988297 -0.9883703646354011
Ni -0.09871614071854085 5.783141400975695 4.478536493145927 0.35204084415990333 0.8227095599680606 -0.6419211556306622
P 5.05623594875093 4.334401187592435 4.083342700150374 0.5469055240847098 -0.06344891248326492 0.501538151693504
Ni 1.6347506719940914 3.189282281723971 1.2474438099951388 1.1289516006262945 -0.8928924487410493 0.30836345787661085
P 0.2660553298689899 9.17649163827311 6.762827186817541 -0.10354552339383458 0.21557234478580292 0.685659219948561
P 7.842142932163612 4.16987732637752 0.6944037816816543 -0.4086616779777414 -1.180637201926044 -0.6182358961985803
P 8.957147769865133 7.487969753101461 2.592721861740998 0.22361758368778262 -0.7649443281331342 -0.6473996622467302
Ni 5.13971995238515 5.478644578456651 11.932200649997608 -0.4342053307748006 -0.1912671923815351 0.9866256140301525
