# total energy = -340891.4048629445 ev
CRYSTAL
PRIMVEC
9.08428977857400 0.00000000000000 0.00000000000000
0.00000000000000 9.08428977857400 0.00000000000000
0.00000000000000 0.00000000000000 13.29577634502840
PRIMCOORD
 96 1
Ni 6.629097025563764 1.7947468152041168 11.231939558805951 -0.9023667067800718 2.5916917840705236 2.9899062985730116
Ni 4.5625755099027785 0.20642504431900077 6.111882072594489 0.4518096741201251 1.8676948448840285 0.18345232432280661
Ni 2.8183464307430737 1.2911410369099234 4.811329711364837 0.1676618942577693 0.5347519194413114 -0.08068455963526104
Ni 3.6105873515186673 4.768089399946424 4.886981860660044 -0.2097984184165032 -1.1816214202161843 1.2471781230710715
Ni 5.255179939231673 4.818298270134782 2.8739350174006817 -0.32930920689034254 -1.5963005080325992 -1.9877926162095894
Ni 7.459546469591074 6.3568045205835135 2.4916680990858437 -0.4692121858672887 -1.2414368497119201 0.9748885280988823
Ni 5.5270909040368 4.889691704332414 11.37131891006576 -0.7028233904326735 -0.40776667696729774 0.13890461961941883
Ni 5.82309340561405 7.84299434559082 12.370283748297537 -1.6837990052659 0.5044604675466215 1.3533507996751077
Ni 1.9668123498952135 6.4398803515718495 0.32988508598624894 -0.5936376380339261 0.34705264691669263 0.12036053806864434
Ni 2.76514882918291 1.6692655190376993 0.15986533337700842 0.08583473637763282 -0.28784476909796874 0.9405925830304898
Ni 0.6160175066046331 -0.17351902107252176 4.674741962386354 -0.3166516660273321 -0.2675749631053392 0.7012390766646891
Ni 8.741303435050922 2.6840261205196136 1.5418583534158932 -0.3685000181571912 -1.4608787047554581 0.2152023630408939
Ni 6.733457347750096 0.6327107976953019 4.773861557738659 -0.12543820970186784 0.10917109711072812 -0.3178022346920075
Ni 0.9371625972935744 7.290969302215399 2.567308438804202 -0.4398810410033392 0.8433298073215734 -0.6070341139454901
Ni 7.746746294270818 3.808288752262152 3.7409532703556625 0.3702298563641043 0.19658346238812596 0.3918132389618349
Ni 7.527787655198988 4.081625950579052 12.553420307070152 0.8439453294183852 -0.9776336949441872 -0.0060027545506541775
Ni 7.996537013208629 8.8572098896797 6.861763858070409 0.25790041613005266 -0.6957315165828987 0.26418882024192564
Ni 6.731159022409468 0.8404548809054461 0.384847765070856 -0.06222198205469929 -0.1309398562463874 -0.36151278820608057
Ni 1.55282309130577 6.851807476357647 9.228770972366352 0.5552240712527341 -0.7401781769320479 0.7324517548220676
Ni 0.33914106894896257 4.963347126711137 1.4620837533713689 -0.13178240675234076 -0.3771216983879312 0.38226210493829
Ni 6.444894879587767 1.7411040834396416 7.0544062177775455 -1.0871943141838503 0.42954597762591834 -0.4383273233629741
Ni 3.182290336362069 4.274530846263833 0.48421081939205046 0.2839510904705175 0.6564021228556567 0.08987933876065167
Ni 6.105560315264277 5.6046434867757196 4.763371928209711 0.23745037580581685 1.0643058396214509 1.4727816268406313
Ni 5.017852866014584 2.811460539011071 9.637616706023527 1.9239081588508027 -0.019610318031759773 -0.237012774047766
P 0.21370610266095283 5.561375014058668 12.532625459096899 0.4945213540560386 -0.8003054812412476 -0.45802274490937245
P 4.102656081660299 6.182758610697725 12.561224620509417 -0.3727415670423645 -0.6176219167636653 0.5902818341878157
P 2.270318474916571 8.498543956483255 1.3016606445954886 0.10592919313466272 0.3456627085477015 0.08473764665871213
P 6.275354777484396 7.855766857167594 5.921487166204631 0.37227156938448147 -0.9179295942153354 -0.759039532612925
P 4.789664588420705 1.1591190520270922 12.533436686183531 -0.029740978707858457 0.808004649657718 0.3757222469372432
P 3.9510937892371816 6.190471172809163 8.286911797202798 -0.4438739642128162 0.1365453753586229 -0.6222856407879218
P 4.745732962542127 0.9640702639297091 3.679898666474907 0.4982239997186064 -0.04791327874151103 0.4385088432461609
P 0.23843172286697292 5.541598514981401 3.596693838570219 -0.0004823389530572338 -1.119229488242524 0.8595565535930809
Ni 1.4900506482079674 0.9254166104736816 2.7460164062584114 -0.22761487777263378 0.7219320862376664 -1.6804884528354285
Ni 1.8225265736691068 6.554624017095489 4.674794651267679 0.5922829237782444 -0.0654703137886679 0.973128350874666
Ni 5.945422453190751 5.621204147234084 9.044425294610189 -0.19255685772723613 -0.011287399988361205 0.7436900467400482
Ni 8.810571145415718 2.2925840694220287 10.012012087153959 -0.37612333903040385 0.9419010174292681 0.20655034379285073
Ni 2.2844445456860476 5.112810948171071 7.093988285659708 0.9125055949862866 0.05206226791287808 -0.3189715724097603
Ni 0.5113764798608882 9.148970027881164 9.34000355984986 -0.301513524834313 -0.4681960858979485 -0.7674097589544913
Ni 1.2053762561159505 1.083719445990658 11.479586385331162 0.14012229407660384 1.0061845099986866 0.9432019956288787
Ni 3.884633124446512 6.8278067824843625 1.5410734707699236 1.1382607938423623 0.2552002435900702 -0.053232119851263165
Ni 5.582641336676896 7.911935021519796 8.029585659806285 -0.12331936358665214 0.06159720398650681 0.8602841757877249
Ni 5.1595496196237765 2.9161206427635724 4.829850761580148 -0.46779987890079433 -0.8900495799756155 -0.01563950630946984
Ni 0.8143566244979675 7.393885222310189 6.992315096421036 -0.7781466857560211 -0.022963550774708835 -0.033866570840457806
Ni 5.057178756922021 4.612448261365433 6.971746447265892 -0.3039851263032571 0.19629267062058453 -0.2350358528270533
Ni 7.947827050851115 6.957176154721092 9.254219702047132 1.3701879258371046 0.8677074648349895 -1.691091168051939
Ni 4.636058330773709 0.12150146876827765 10.541357292405218 0.4377058877288913 0.8139953200235143 -0.10578469713699847
Ni 8.149289347606537 7.007857407983413 4.737923198528932 -0.05588215587960053 0.7788606811039103 0.4217493643996349
Ni 7.288816325512912 6.090253286809893 6.965723563072861 0.40144279163179897 0.9291036085542839 -0.11301926721222473
Ni 2.5324456595167293 4.902264361531741 2.7498454344444787 -0.5861714115638679 0.6745844501916382 -0.21606779636498274
Ni 2.2682926782724597 5.349538458255823 11.476768438609174 -0.36543834851273194 -0.6592439631798259 -0.177668627761494
Ni 1.2217279779069843 3.0723885973465532 3.9359221167020673 -0.49158026914984365 0.895551226520135 0.42057591291682406
Ni 3.7859595677275064 2.6776035275716907 2.6940569934094243 0.17374898099211367 0.023737195715939765 0.39827956341246895
Ni 1.34564677621337 3.010488246077606 8.201805627425408 -0.47798478985359616 1.9072965184360506 0.9881469357706854
Ni 3.8458068694826903 2.5812464647730815 7.304274153179369 -0.5159196172261566 0.6445958742493479 -0.3728652371044224
Ni 4.027065705536302 7.130731512953149 5.932748051944723 0.5869406856297246 -2.9027764975330395 -0.0021108756954157197
Ni 0.7807474772144741 7.495856376257054 11.686243079042203 0.21101763553558497 0.5585387374482639 -0.4376503519006076
P 0.3436396092994736 5.465817368769843 7.962760714991271 -1.2696341380817424 -0.23155946424267865 0.3984304871680364
P 8.594365046178714 1.5842547343040905 7.914789305401319 0.14368275773435255 -0.05443668168232561 0.6653786153226541
P 1.8360530813062452 3.122097831591297 10.537767181043096 -1.5189596680585904 0.9835945405133126 -0.2935181653336622
P 4.079545648195637 6.394949453806043 3.688674090502762 -0.21872554570280398 0.9386665696523704 0.26204914819110353
P 7.10216142126826 3.878065182860447 10.07173675099571 -1.409430416277495 -0.3922498122786212 1.3637390848879676
P 6.319141054724832 7.836053948119514 10.35159919473622 0.3606969771730046 0.23436582334322215 -2.268350878948474
P 2.3515138578989383 8.39382934699145 5.941457160656426 -0.14530923759418202 1.4253154629388678 -0.6434219085459048
P 6.985246610462367 4.1087334715926325 1.6822751305804435 -0.47996891016316057 -0.20852109436597635 -1.3088779140737137
Ni 5.115281875019495 2.913904076031899 0.7246265511696689 0.8835354330061816 0.12453523827162423 -1.0720296906282698
Ni 1.564732595343573 1.184745833789596 6.969153790933024 -0.41834368115219567 -1.3799398630175461 -0.7860119474367109
Ni 6.834765348535436 0.9656963518189285 9.288044147000873 0.22313370207282862 -2.1222276300934286 -1.8335475095783584
Ni 2.942655853514467 1.5094274385303426 9.61553188888676 -1.155841483038603 -0.12896627745978434 -0.6080093333745658
Ni 6.489889367382762 1.960344335497871 2.535119166029563 -0.07490086307394841 0.11292825016031519 0.7774406608279321
Ni 3.8319351588299635 6.982802936483596 10.450932270900799 0.6550137271485622 -0.9757511332094937 -0.35239617061679307
Ni 8.439650505165881 7.000798914743617 0.5447503440363884 -0.3957318572899507 1.031266649778295 -0.7369645550907566
Ni 7.383165760247178 3.881880584611688 7.883544798774607 1.6676781884446374 -0.40089077578307086 0.9055654162230274
Ni 3.136732622594272 8.447699186003023 12.622119340888215 0.9161061678533513 -0.3067251509422395 -0.4736825629338165
Ni -0.04135986341244356 4.846059860020005 10.339168252459082 0.7543079314652106 -0.22347848700675707 -0.6758694875516489
Ni 8.402359495192439 2.072144691099124 5.744413462500536 1.1993193517165797 1.2394154484065172 0.10496477233886439
Ni 3.5744863835200182 3.2242234184661873 11.683690393584824 1.2960085143102131 -0.8301536749509316 0.4244762764124948
Ni 0.9869445058573888 3.457635162743313 12.835131403802038 -0.022969978532612054 -0.5218205560916238 -0.7588073619974609
Ni 3.0235332863508977 8.59972477721022 8.075137014571164 0.4625342596264808 -0.933160809342793 0.6121678356276296
Ni 5.80637831222766 8.005757567440796 3.360108951836645 -0.9216998598910449 -0.5374564628566679 0.6919283407867245
Ni 3.140302748518648 8.412588405601719 3.433208415674473 0.6097898223137562 -0.8744974911736294 0.22322266224220913
Ni 3.4064633578272603 4.347841065626969 9.462843144518038 -0.6688750585116867 1.230521488350997 -0.8002769419961572
Ni 7.60929190403741 6.5133359195731275 11.449977050883552 -0.30182514253746084 -1.391266600884275 1.3865833364759927
Ni 0.3074405309700781 0.04728645413270497 0.3306954046438935 0.9349803790500348 0.27239938107717604 0.4590792111983449
Ni 4.635722212048004 0.27696818898349795 1.4999497988944617 -0.6237254585582419 0.18748844206539322 -0.2445800448720626
Ni 6.194522766097386 5.7509368910661705 0.3761086782025367 -0.9965400449303871 0.09501923109037828 0.18805357054024388
Ni 7.918730070352959 9.02159011512901 11.49399951966097 0.9508980787215557 -0.9704034957443353 -0.3617159053558222
Ni 0.029866419851323486 4.714964472705332 5.8033668701311445 -0.017590973608885833 -0.21552837892174495 -0.15063373513088898
Ni 7.9971910820802705 8.977667573540316 2.363178086109876 0.1913607805366059 -0.4788635929141236 0.5464195855872267
P 8.63734282161948 1.553686098844741 3.683687723785485 -0.9221235776920247 -0.3116907224776309 -0.8009613696576915
P 1.8847721279536425 2.9366965593506236 1.7840936684572581 -0.5246608537538965 0.8599478754942287 -1.1064359360222815
P 4.731043665799849 1.0057580702069617 8.368826655943971 0.9298302023076631 -0.8277417230753293 -0.09479374534313352
P 8.44290268094432 1.7689837690933545 12.700298739629126 0.11947942101527166 0.8558634210122098 -0.7206269942729976
P 6.282803895189201 7.827705485716203 1.248723762154993 0.9377119190485851 0.06253617086100843 0.09434225962801171
P 2.2823460747228648 3.1457624067388763 5.915224456758665 -0.7493199913323159 0.412339898160277 0.17379448951806845
P 6.80674031424358 3.729373526040645 5.8362074864904585 0.6900205822410502 0.711892185503161 -0.17440589784982222
P 2.3413757903884975 8.60965390605333 10.55062417651579 -0.16949689058397907 -0.3174854747825371 -1.4181652250473318
