# total energy = -340896.2513981695 ev
CRYSTAL
PRIMVEC
9.01600013080167 0.00000000000000 0.00000000000000

0.00000000000000 9.01600013080167 0.00000000000000

0.00000000000000 0.00000000000000 13.19582754269383

PRIMCOORD
 96 1
Ni 6.2497109453994 2.134871614340125 11.29337229497823 -0.09326548162406519 -0.9728499004022987 0.8049931165249039
Ni 4.720146529393445 0.20681081336414858 6.035507913557897 -0.7888147069928285 -0.237012774047766 0.3334196295142903
Ni 2.9014750543621606 1.6404882651667057 4.829844202541364 -0.24622477956433722 -1.0969567928872528 0.7050453377846567
Ni 3.3973821075515245 4.2210928921711535 4.756370112972502 0.13779930237038204 0.5849887041096764 0.33374770227767037
Ni 4.963055603935339 4.455887566628136 2.7987819116875396 0.13805744112777513 -0.0930245692578527 -1.2988110167560147
Ni 7.186888091206385 6.222266241112208 2.472449591472672 0.1100182756023718 -1.1235563977526521 -0.05720704533861115
Ni 5.086313341225156 4.375239445784203 11.650437454714698 -0.2735116403047483 0.8491225027439505 -0.5839553777491555
Ni 5.472865329270187 7.747701329074952 12.43832135975942 0.15971410016560236 0.39635355003434963 -0.1543921737320567
Ni 1.7060255698525135 6.474642115753167 0.31122781525680865 2.0536372826185407 -0.04466751811070372 0.10694760709684809
Ni 2.5464700506472506 1.6550040253186042 0.36831802945422276 0.947681371556471 -0.6720076906033975 -0.33970083453731176
Ni 0.6587495388934108 -0.05746618140134842 4.704510080429818 -0.1036841058542279 0.16088420921430355 -0.3266031208130891
Ni 8.404913639952277 2.4208861853330927 1.519539525501051 1.292071384039336 -0.20271297232463154 -0.40632377387318414
Ni 6.924324136458814 0.590631854980601 4.814128412776907 0.28646228692814535 0.603559010912696 -0.07039449056316263
Ni 0.7540405454905729 7.456628782029057 2.2402560330429084 0.09907771743046809 -1.1416492506986209 1.8036723192854809
Ni 7.894544922611582 3.815399935925825 3.599108798462471 -0.04081703401636196 0.5851020897590891 0.8499462841968266
Ni 7.546112582965449 3.679582910504583 12.549601340923898 0.33004119996036063 0.7848595789998225 0.7602214687361681
Ni 7.838582610025969 -0.1440098647069751 7.172512980655958 0.25817500994767795 0.6588438995279299 -0.17821318741105435
Ni 6.775596198902467 0.8131205909088094 0.45122105192175216 -0.9879042236322598 -0.3265966930551859 -0.24126203624242323
Ni 1.8285890751350655 6.528170108313304 9.203403065907981 0.011742742358224936 -0.3352484551929129 -1.5041776246534093
Ni -0.008035960884091413 4.957357491875713 1.3868546585125852 0.32673244730210177 -0.8906985264135241 0.4138946442419066
Ni 6.269681385608378 2.0102704930362503 6.893289260934053 -0.004386816213785993 -0.3384543637247204 0.22013039647013055
Ni 3.3901783234761416 4.069110178580748 0.3702997462749602 -0.7577056442928498 1.6182052785254906 -0.25645365638119705
Ni 6.047923847287822 5.654411507169955 4.571760298240674 0.2067172083880182 0.1741891538533258 1.0574489646006175
Ni 5.2236811186626255 2.8927115022704557 9.208562922761974 -0.2940609252110097 0.5530329771386863 -0.2407527007061725
P 0.13072388696794546 5.581417970406123 12.436948222945052 -1.039934609865938 -0.4614862779779407 -0.9340339559763656
P 3.8604979683977483 6.1157241679973104 12.559300753825395 -0.20980638883630318 -0.5392613772758906 0.21190646589844153
P 2.413240617253086 8.441212056332118 1.364606776679775 0.8187881134264673 0.5695119486303158 0.2275367162365307
P 6.364800186603739 7.6954986885286845 5.807576218372731 -0.15067770099494693 0.543914816887502 -1.052355352127794
P 4.783664250058119 1.081847883320876 12.609761503153436 -0.4429031156591146 -0.5557586035999654 0.5108409171516686
P 4.052502706406961 6.105950823895038 8.076110034111549 -0.17570739027006513 -0.13595196474899812 0.8571446017174786
P 4.76251271383678 0.9775147302290934 3.992516552979242 0.5274358453958723 0.9111531947234501 -1.3380815322208635
P 0.36267671819518993 5.659054747218544 3.618889902669468 -0.003376372671400637 -0.586883350029228 -0.664104890816553
Ni 1.4600240072782578 1.0216931306913934 2.4606124849488036 -0.5282323731552386 0.23818031199330594 0.5880025512353357
Ni 2.0026880369569047 6.396969274940368 4.892234021594235 0.19913811048917962 0.12309722027351701 -0.28831502386616803
Ni 6.007811662868073 5.560996730192428 9.112061968952153 0.16143211129797358 0.011362219090354626 0.39296303629556195
Ni 8.446179872384104 2.3661770967605955 10.300887398192481 1.059383719729485 0.5264829945642998 0.3621889883374988
Ni 2.413988945260917 5.06983209305269 7.152098953242338 -0.7604654664261742 0.604047006292708 -0.9466102499794794
Ni 0.8172021341515202 -0.09455980898951054 9.019414453582652 -0.37222451819662994 -0.07662041686821643 0.16223378126366256
Ni 1.415277598810014 1.1297408758220469 11.286087366901997 -0.06461902153196614 0.2680878981860157 -0.1813792438438618
Ni 4.048481570364882 6.894742640149262 1.647406242039098 0.08007752217888144 0.7215765026704605 -0.45195211323526036
Ni 5.755724300230132 7.652005504073554 7.9682606409829715 -1.1847777064569789 1.3747508626174387 0.2178212887209797
Ni 5.341880879899515 2.951090102881352 4.870051956562113 -0.08064033666088694 -0.3803643736949449 -0.3612279099758101
Ni 0.6293862297861417 7.407428469514205 6.691709530824645 0.025905664122168288 -0.8380739582392729 0.9808614578528657
Ni 5.2280989587088555 4.501066743100909 7.056851223445629 0.21253972860706621 0.02087427234584792 -0.6703521572778456
Ni 8.205046949860796 7.1315478826272845 9.168790641545783 -0.280831056784297 0.24742754162318678 0.40706630846616343
Ni 4.776703897985283 0.2712517724384838 10.46513547831124 -0.8031254671885458 -0.35924584654877484 -0.4822641339552404
Ni 8.050197148240386 7.123830186546523 4.473491306812349 0.5688776574804267 0.9991052345544018 0.691311533138332
Ni 7.448162757940465 6.3289435542285215 6.940543019028535 0.20220826477407114 -2.261919007280201 0.17353172277498502
Ni 2.4012222891273214 5.234860958779616 2.5854588414552446 -1.2113480007463395 -0.3373066232735223 -0.3509131583133634
Ni 2.1155863901383167 5.39951115250258 11.289453039737218 1.1517032925005135 -1.3745875975666972 1.2000883686721202
Ni 1.2761246533538635 3.1098889125430844 3.8906050975128017 -0.9708323557516377 0.6241666598607186 -0.8686759993958459
Ni 3.446537340065904 2.5898009471006818 2.68725128572044 0.4363743134016614 0.2518102440719147 -0.4196006934877483
Ni 1.0918376114254125 3.4051989796333233 8.347060672146881 -0.11198748351360069 -0.15151022419857132 -0.2166496370103817
Ni 3.684415486555153 2.7118234923775733 7.09898569668654 -0.13340554417806055 0.19147108086222508 -0.436625510180519
Ni 4.2903718368961155 6.7398207105280985 5.964460931214433 -0.5654735168948842 0.3144124922841682 0.018167157827330003
Ni 0.8287236806720861 7.335246372758864 11.143018772604872 -1.2823911806370947 1.1189890900969437 0.7343062915323031
P 0.16713590494897496 5.4551308570846055 8.073682025286141 0.6790021196433597 0.6664857323439038 -0.8055919264511675
P 8.794098300024856 1.6325000890831143 8.19133631851732 -1.3610378839067205 -0.20448111996864782 -0.3201097997792616
P 1.7680015545010541 3.2468149059759313 10.570333265812069 0.3436431070145114 -0.08890797598631785 -1.4899468257660082
P 3.998559977842483 6.137497808225158 3.7665512474146534 0.18385084531280593 0.7293132091930858 0.3677572264538957
P 6.858615527771214 4.059580266481023 10.370614438122134 0.30791582881623103 -0.5776281499795471 -0.09013979151088991
P 6.2462037213627 7.6051313195830454 10.119391709893241 0.37298787872521566 0.19593323039863675 0.7941322625510001
P 2.374634104849093 8.36486456753319 5.967839226449786 1.144160961376881 0.1586746031574945 -1.0381163257102766
P 6.878171231975853 3.997180529828048 1.6578314429481915 -0.16218981539960456 1.7449148987406142 -0.6797438829053906
Ni 5.323100551702989 2.9375751187399257 0.5362761936118021 0.07965174749537249 -0.527541003515169 -0.6649962922825708
Ni 1.496313407658004 1.1177135316961881 6.890293244102702 0.04800763822753022 0.8225992596424413 0.21297964435796224
Ni 6.781420534963416 1.0189432506626175 9.204050414714754 0.08398071388802957 -1.2076342993401783 -0.7128681762631852
Ni 2.774358469031964 1.6954498017418445 9.07919143580818 0.0012022478382172842 -0.8649941796688845 1.128814817938114
Ni 6.149795632353848 2.2311444633475612 2.6242014954606625 0.3635053931560772 -1.5224311715469587 1.2847306274035486
Ni 4.078865490682831 6.65994796569228 10.319229548784422 0.37497457013794133 0.8963361843152756 0.3675929329618895
Ni 8.174726141543506 7.212836139477917 0.39382699852115854 -0.4269725604717872 -0.40226194509898466 -0.7411194577993946
Ni 7.565695335170371 3.62813761396624 8.098912399950162 0.3906148477783595 0.6211774953254077 0.23887039608179506
Ni 3.158304833049727 8.378713143678105 12.434348910117851 -0.06059318820202468 0.12157821252582933 0.24524107549482924
Ni 0.03194368833427115 4.901332067289441 10.205798349997433 -0.6902969758308886 -0.5803257514163683 0.3527774652156118
Ni 8.477753904714506 2.3146055762209308 5.772897075609835 0.6403586962395487 0.21243405626713738 0.22230220731046876
Ni 3.6956674546728983 2.522072754391948 11.410854382607608 -0.5529640715739638 -0.11019593883081667 -0.4391739876339856
Ni 0.9704011061546537 3.3121899226600404 12.560448490637407 -0.4467098909997146 0.5266444598428285 0.4534032438594901
Ni 3.1193286646418654 8.238613518212048 8.067638600422901 0.9951148824480862 0.4848236671523005 -0.15425436260261177
Ni 5.69957265164254 8.064676844391908 3.4850050060684445 -0.18565498840108027 -1.1576641380696384 -0.2685013315743505
Ni 3.1976777054617402 8.336509247236467 3.6552974126504503 -0.40254219534356483 -0.10187533478026325 0.23266143905760575
Ni 3.307835194614471 4.368838085717217 9.3319838496535 0.3971729606118515 -0.3002385147766313 0.2853914224614698
Ni 7.043479593705704 6.0237880150352545 11.575855298734242 0.7663391515981318 -0.13592676793801753 -0.7362551877285578
Ni 0.7512050134609006 8.829341844393658 -0.03895453000763532 -0.24804074972715345 0.7785701464466849 0.5540027972511232
Ni 4.522281391322907 0.5671938611353367 1.7319132109234117 -0.24068893734777255 -0.8370457740850745 -0.6276222225094868
Ni 5.75271295619862 5.607915994683409 0.5167313086072769 0.4129243099088372 -0.4955724210283723 -0.08197936718728462
Ni 7.632765359872218 8.655423202573708 11.471238141639486 0.6201112588444223 0.6046152200913524 -0.3104617351665363
Ni 0.1218106692746741 4.860228122859312 5.786963838957035 0.022967150319134638 -0.4082901535709355 0.023611468771352884
Ni 8.0067941237862 8.85983395671274 2.315023017025299 -0.6554202185583616 0.7290882376664735 0.9592989011907415
P 8.563369841610424 1.556991088292959 3.6020254744929923 -0.07639313134875876 0.2145001947675467 0.31060417428167153
P 1.704555961837135 3.335198754900814 1.5224417759314215 -0.3346398750746366 -0.44462858299065366 0.5864030679586998
P 4.687283209049551 1.0221890106965825 8.12427530981557 0.5468733852951936 -0.1964734191728229 0.5094597205334258
P 8.438173664300324 1.5492012642114432 12.54296376165444 0.628754279231401 0.031229647438242986 -1.035155700420056
P 6.308396090013504 7.768492225292517 1.2795245869894416 -1.0203276342682879 0.3096230413153248 0.7379395174095161
P 1.8558264114200875 3.289794178425683 5.978131892157491 -0.6109794717464833 -0.6777672187949941 0.6562334584882763
P 6.986264057106977 4.027997218150526 5.774889611630686 0.41566433454781965 -0.04283843532176493 0.7368509123310277
P 2.557262202760184 8.522274913180391 10.324375881638275 -0.18298258377523968 -0.05897724986515649 -0.8690724635033161
