# total energy = -381168.56636125495 ev
CRYSTAL
PRIMVEC
9.20634020569918 0.00000000000000 0.00000000000000

0.00000000000000 9.20634020569918 0.00000000000000

0.00000000000000 0.00000000000000 13.47440948216632

PRIMCOORD
 96 1
Ni 2.430363382545077 7.2486489185129495 9.405366722329383 -0.1442309169283387 -0.24808780091500504 0.8775707307823145
Ni 7.215588950231363 2.3771231161645665 8.609191359212282 1.2921960825426584 0.6396097338886663 0.7249549322243902
Ni 5.798972531584527 5.708382142308333 12.02526379604781 -0.09566020710848687 0.4590601850349514 -0.14464537875793798
Ni 7.913079709615805 7.63125521809926 5.066108250582613 0.0798270967309722 -1.182474512245099 -0.08933426489045905
Ni 2.295803511644586 6.435277952846044 7.1540086601064115 -1.2923765739845807 0.40866707729438007 0.37467195129585795
Ni 4.640713642841937 3.5323070872223745 12.360507156948115 1.1324387878439464 0.5396555273905157 -0.013691638554479645
Ni 3.9178133840263674 7.333457726034523 13.118954937214216 0.1568028400560783 0.7100944701727899 0.7244502246738298
Ni 4.60099749047024 0.7687238973911101 5.697168819733293 -1.5604063652391513 -2.64759348033415 0.6435736036324207
Ni 0.6105893506959497 8.603150158659128 10.699004846265714 0.2308899489794798 -2.2099207598360393 -0.20170150034098164
Ni 0.7296853316709102 7.219326724423044 3.7911056008305173 1.9427800560546409 -0.8841301291673869 -0.6909019564047392
Ni 4.786459217296348 0.3822490935798146 3.3153385017357064 -0.626718993968927 -0.016774391244861436 0.4193307276558133
Ni 3.384563736906893 6.474653470623918 3.096014934381472 -0.2557129215604306 0.31637450110654547 0.3707044820076777
Ni 2.1859258392857077 5.657747270253552 1.190229746957979 1.9649079983019324 1.2138712813888255 -2.3628584605097567
Ni 6.497264242581471 1.0464110595437615 7.009940480868069 2.4443606309503063 0.21263897318909183 -2.6291476149241366
Ni 2.386587234068624 5.9626980887885725 11.594972335862419 0.19119905814776103 -0.4926480482927258 0.11798689563014518
Ni 9.066551301364125 3.036315499594846 0.3410074506082129 0.8242131410967806 2.1377128702132215 1.102604478091333
Ni 8.310756788393693 1.099494818137921 10.77845003988563 -0.904810540334874 0.5779181704161401 -0.31106465885785783
Ni 4.51373979640929 6.99266662442509 8.287112144412186 0.9154955308525458 -0.2554349853086956 -0.09162486069684865
Ni 1.4418878229723602 2.6583215765357076 4.3662072712883635 -0.9826681720443011 0.6304455508908948 1.8386624622074204
Ni 1.5685670665130524 4.640354595567367 2.890692369467404 -1.255135173134619 -1.0592011714050338 1.7086448606649864
Ni 0.801654976907466 8.290152998637584 6.432871415472386 -0.4760405216430317 -2.235475982597324 -1.4586472443217782
Ni 3.954896523051216 1.3893748574813638 12.541657554577268 -0.9840881923202793 -1.507703635528797 -0.3139424946262851
Ni 5.807865856385422 2.2345261101179252 4.592954831519866 -0.40349170374102766 1.3485991439227354 -1.0570810397382375
Ni 5.328270760963268 7.054883072669857 1.713190388075922 -0.392887188752304 -0.06532556068068748 0.29691690660256603
P 4.251027667508331 2.5171607595873478 9.64883575858145 -1.105237030618174 1.9473512203650911 -2.09892006571574
Ni 2.274196230787754 0.724120098915071 3.534755053127714 1.045551441832083 -0.521738795011095 0.5368949339262431
P 2.9017372160136077 8.559401629203796 11.554616342834755 -1.8724159045087818 0.04552369546341192 0.7303010270276519
Ni 6.467408080749896 6.254677173737195 9.647084712642393 0.8970571216417002 1.3855929475382653 0.29004974716908755
P 3.6874891605597226 5.209490557463122 13.26624349431524 0.37064226131117456 -1.2926128583651029 -0.11686178088676648
P 6.090647807300821 8.576599073021676 9.429216667701223 -0.39236036971455657 -0.30440190212570156 -0.2520465284524369
P 6.86773658555538 6.583269874351613 0.2860833445733717 0.058262226076002885 -0.04269831019947485 0.24130728765806186
Ni 4.021596459057925 5.169654722666569 9.939600527234797 0.5786892442542099 0.07524487667692847 -0.23005048379731996
Ni 4.735851964262686 4.7614179714801645 4.546346812744495 -0.24104940601098485 -0.794750098640657 -0.3834759227407331
Ni 6.720444345918205 5.563152122914843 2.7519325660884775 0.3975347148266444 1.915465684510404 0.02270875445142541
Ni 2.276000673500979 5.274662240967813 5.043781033908567 0.5259248080679845 -0.41250136343880567 -0.5681016985463506
Ni 8.038644985971294 6.794638242989023 7.198756998126316 1.7592138318617894 -2.200816740652242 1.587098529818357
Ni 8.098256039890332 8.835748348198052 8.55788074177408 -1.027859680979275 0.5026036168435408 0.046908234515764376
Ni 5.7135468992579215 1.422987206185366 10.31387877131915 2.827955081546775 -1.7562568061159947 2.6715083392785344
Ni 5.6830094682387005 9.113982366968894 12.641771902969944 0.7496431789996895 -0.39295018077975546 0.3401700608642464
Ni 8.249322879080681 4.533772793062236 9.088502899350928 0.23062769645702863 0.7061575970122289 -0.19685214266848033
Ni 1.5426604247017508 2.419730059413572 1.9648521466264526 0.6724761455993838 -0.15200876110154465 -0.356496823048728
Ni 3.5800327557191003 2.991572685379165 3.5296888040201235 0.12410997780874755 -0.20167810330221397 -0.6916699449190152
Ni 4.622660009369314 4.711123734019206 2.13768829826421 -1.1026111629595525 -0.050239612881842505 -1.530313659618829
Ni 1.2575860950333253 -0.006199549607580098 8.318574812638952 -0.1777863842862809 1.7071685332297761 2.269664198443259
Ni 2.611967652754648 2.1055544878242074 7.818000308773446 0.6875173562032224 -1.818731270501132 2.992141358551118
Ni 7.670382164687046 1.2648867229495875 3.07662546092064 -2.0510142431733964 -0.2734694742129032 0.43373610444786587
Ni 4.5720895816971465 7.440812861131036 10.796869165071087 0.7354512037700237 0.6151174051742567 -0.6184115025444963
Ni 1.5771842011027388 0.7721081481124443 0.28036896910348014 0.46409440502474913 0.5536891226654465 -1.4665359030412355
Ni 6.2172073684166556 7.870233401517086 6.71755907884512 -2.0027446095337313 1.171623685573524 1.3075687083439869
Ni 3.465294135642963 2.700164393533705 5.832775451534261 1.0016933069965521 0.9908759046660741 -0.9358080171576528
Ni 0.03130155727022918 0.19547086008028236 1.9213972994290383 1.1974121073915378 -0.03691127120405256 -1.010270250032286
Ni 1.4127405493495526 1.3267717429409054 11.38059441455688 0.6368491404243936 0.3637717594435864 1.2847637946343293
Ni 8.446513483542752 1.1869734643678378 13.204085966648867 -1.0869593153549086 -2.408507625807439 -1.0085337269571533
Ni 6.143703946873859 4.822741404708694 7.860822680387194 -0.464948011274296 0.6019975799628471 1.080215825983488
Ni 8.114431579926741 4.14582681605924 6.714446415164807 1.5860888576069199 0.8679170097426343 -0.20465081277729272
Ni 3.264457820392949 8.673771995664989 7.292889066544231 -0.7587142880630224 0.3245698924331442 -0.8684428003391174
P 4.117176684816607 6.433703668642159 5.819974955878813 -0.3792102054858437 -0.5368072593084432 1.7102669696494417
Ni 8.57922288002815 5.426272254240206 4.043656691861137 0.2677531405544163 -1.5298233502459717 0.5033847179839395
P 0.28087807972614004 2.761303699954762 7.9844638316046 -2.1140569213571783 -0.41961843409956123 2.8556677169706948
Ni 6.287276825000101 0.02173064581783793 1.5973239913040194 3.4804000195268965 0.8225462949173189 -1.2474902549948514
P 6.079093850131957 3.3465139321428174 6.429732053404989 -0.43723254763689856 -0.9746833540666118 -0.8279903487510257
P 4.396414194688172 -0.2591575608827131 1.21530321496547 -3.5736930119547874 0.7035366144496142 -1.125935182397474
P 1.9648724005752747 0.8952217760264425 5.835349544302719 1.6107611635426196 -0.36089932299179783 -0.5309595422784146
Ni 7.411877333336821 8.088147478160122 11.262626210277684 -0.22508516937224463 -0.2687124191438921 -0.6758802861849263
Ni 9.368832281190802 6.393287834402068 1.6144634351775444 -1.8514896958790756 1.2582158689424716 0.9592263960815931
Ni 6.472489980636122 5.685513592820319 5.663900788159263 1.4825996413723175 -1.1716861633803435 0.47788271705809315
Ni 1.3345787195777157 7.620824434455974 13.024916773468112 -0.04441297889773641 0.21939994606200924 0.013573367809060493
Ni 0.2991618717081033 3.2152683437768212 10.535990939172548 0.4238761809346506 -0.6497815322153454 -0.2389678408916078
Ni 1.958787009588327 4.63642348822784 9.151576457884477 -1.3348568546359785 0.3047351170954042 -0.7664700207490412
Ni 0.11484817552658295 6.151234733299461 10.616231560600744 0.4723692434390317 0.544288912397469 0.3017528945386287
Ni 2.7991601715709917 7.897447343661438 4.979184746677224 -0.02683357525307637 0.9111681071217855 -0.3761840170650102
Ni 7.07838685964365 2.812454127070466 12.012786442939474 0.13365005608869887 -0.4884671774421588 -0.41851003152673083
Ni -0.0657305083653692 1.2892927312799929 6.349411336815543 0.12344277653839383 -0.291908140534065 2.4530535307386137
Ni 6.990825356350371 4.424861786442586 0.27373119769411686 0.7354722868159463 0.9593048147280124 0.4197598447734319
Ni 7.719857037854755 7.940901270224814 2.7676302970594975 -0.35328782919312707 -1.3664816806301112 0.22213585693593355
Ni 2.3838437446372924 3.026750111946679 13.117365002231695 -1.1270078466363622 1.3346097716221788 0.9026508136793937
Ni 6.558808627978967 3.4692528620036094 2.558547862736852 0.8204932690430321 -1.416072347074045 1.9591998921735614
Ni 0.13262377751992369 0.017961570068887392 4.355967058890811 -0.041474979315335024 2.5923250467791483 -0.4653606733316824
Ni 7.999481214022011 2.5621705576738627 5.060570636847895 0.18869017568297825 1.1985295088254326 -1.5822815680456879
Ni 1.5720562695146454 3.619058432562777 6.75522037604543 -0.859252649199417 3.8749314287508434 -2.4143877387373
Ni 2.706314228903268 3.135274452270638 10.779177340775144 -0.2611348639069503 0.7430950934685266 0.665470403705512
Ni 3.855145825103294 4.830226159432428 7.3644794105573945 0.2742060952686116 -1.5726895534818788 -0.4375248820663368
Ni 5.449288105174198 7.340739941270038 4.568349966237391 -0.3199529624864232 1.4942302836327106 -2.989394649043916
Ni 4.138203966229901 2.465816999323798 1.3864767015317554 -0.6002435733862178 -0.816426040952194 -0.5304725753396671
Ni 3.199203279824894 0.4508777578947921 9.754556768261649 -0.9358915780103946 0.1576523325405672 0.9791745570687458
Ni 6.012412326805995 4.033923748818171 10.187193083340198 0.26247389443334795 -1.4109951896614539 0.045440134610670126
Ni 2.2578825956457407 8.491422011885158 1.8268067552605178 1.1634030974359448 -2.11400832750743 -0.11675739409841827
Ni 6.3156139406700325 2.2887790739395313 0.8020186273522231 0.2246552809236776 -1.8436108073516315 -1.7811561404608358
P 8.965244731893065 2.9109527627275784 3.03302239164321 -0.5535394844614596 1.7936815266213562 -0.3473082145709244
Ni 0.3169779815990879 5.282358741520141 13.159364327016045 -0.38891174904432374 -0.5621367392121673 -1.7784798791802534
P 6.60847683429452 0.04491681404874152 4.94110640225799 -0.43861477269640586 1.5770545153187938 -0.6480725199440387
Ni 8.249571450270768 8.128986804057398 13.493409022399707 0.2238286712573242 -0.2606221859365898 0.6643224061439978
P 0.4705378977626081 5.914272738423453 5.95446301732439 -0.9594099728473089 -0.23762135416604238 -0.1443065073612805
P 8.111190948115235 4.59667051049465 11.361743512007903 -1.4098541340784752 0.08806876791447414 0.8358607526380378
P 0.36456279308809775 7.190050562035006 8.729841370442307 0.17902257068622718 0.1676994323639241 0.18941599810540927
Ni 4.7677519336572 0.8574647328862472 8.223324173865645 0.10437161883955573 0.04370335442522151 0.15262454030867265
