# total energy = -340888.24287102313 ev
CRYSTAL
PRIMVEC
9.13428354006800 0.00000000000000 0.00000000000000

0.00000000000000 9.13428354006800 0.00000000000000

0.00000000000000 0.00000000000000 13.36894726842449

PRIMCOORD
 96 1
Ni 6.349660548557602 2.1580292522146785 11.426599377262031 1.291879579743504 0.38243822550483814 1.2983947551542026
Ni 4.640672666885359 0.3505299512375928 6.034061010360923 1.3426609240614296 0.2653740987992784 -1.1130763241569346
Ni 2.953643602438177 1.8941124027622254 4.885574678643382 1.4958801605313075 0.3858187119412968 -2.6998807197736405
Ni 3.8938993298492157 4.653414992188587 4.726203356090977 -1.051987170155098 -0.34581080408979153 0.5319249915154775
Ni 3.8878250314071754 2.938535497741733 2.600902241196347 0.5758988259932663 0.3159692952483268 0.13356443835342804
Ni 5.52686257102055 4.698538352043746 2.6150594669938187 0.21894306103024874 0.14456207501551235 -0.3537593695129069
Ni 5.545752269032791 3.2669221192301605 0.43984223375900794 0.34305766682468664 -0.14076172743281565 0.1775002205044298
Ni 5.906638670756979 8.366921359734253 12.260005911506731 -0.6440366593117683 -0.3263393256287412 0.8739971544984432
Ni 1.9397107453527023 6.7762772534230304 0.27372798322177 0.011188669626967828 -0.24257175619278223 0.1322338924674626
Ni -0.012613531907690172 0.3870405953017744 0.45978602807231866 2.2471557329280976 -1.4108275537353379 -0.4480602343800219
Ni 8.18449145223886 0.030974354912721686 6.691545814012417 0.13310806754229978 -0.35562316219452306 -0.18173585585233215
Ni 9.055701131644806 2.6055177945839603 1.3562392130037153 0.36781456205439234 1.1268800628092464 -0.35920342334661365
Ni 7.2623490087534845 1.3623418277242076 4.727687677138845 -1.0483012366630784 -1.1122641126682844 -0.6510436867572207
Ni 1.0056389277841622 8.057095602056691 2.6738431476310405 -0.2324434095095287 -0.2722667121540537 -0.2176672796416187
Ni 8.061315640974321 4.07793687121799 3.7695753391648803 -0.7736652529458998 0.032295626808912126 -0.2763876763009627
Ni 8.032880616838872 4.281960224603585 12.541850618932408 -0.4048345909221673 -0.9171554350534721 -0.19369199977294382
Ni 8.590318528150776 7.302137947119695 8.904052845682997 -0.8817816835398685 0.044791959503709955 0.6526729948305277
Ni 6.923841601289446 1.0665189264551413 0.37934222127628286 -1.0193873818422057 -0.012077499989824362 -1.1433544063151857
Ni 1.9664741956311673 6.962406545683876 9.18993490635887 0.23659008468805062 -1.2159803573120282 -0.44702022315128176
Ni 0.31673492961975513 5.062630887231327 1.158060887547537 1.0579014787570038 0.2726798884320723 0.41535503083751696
Ni 6.687099244867175 2.305895031432354 6.981464314510152 -0.2438845614669348 -0.7001579277853683 0.15126674072919755
Ni 3.567257356484743 4.6020072453738425 0.1160985685083088 0.027844275905777854 0.4046458719501289 0.011561222475038152
Ni 6.3509119453794955 5.905094976867197 4.702353742208017 0.5050736756505882 0.4485333173616985 -0.08625022664849663
Ni 5.581686539816231 3.1433718023473904 9.344212039074995 -0.9674091890027017 -0.9155443818126103 -1.0905385480657348
P 0.47641773123512715 5.831938501344935 12.114244671177847 1.3094461278723577 -0.27325041622356167 0.5751056406680095
P 4.354632583107158 6.407882470767478 12.404136682253805 -1.0171122126547838 0.21596829467264095 -0.0164638019829781
P 2.5271456432565786 8.702076485200953 1.3625893668035751 0.8842275739771998 0.4615919503178696 0.006657871636149823
P 6.526947854514847 7.9967819289547455 5.827176799423377 0.3888729253865883 -0.32557545087952316 -0.8323583959117343
P 4.761025984588107 1.4203262585664245 12.871274895011835 0.7185348876306592 -0.5915496451566458 -0.5196109500348148
P 4.166174048586582 6.2452465553381025 8.309054761147527 0.9540523080798213 0.7807098184975071 0.4173543206557328
P 4.988880683289919 1.5389805995620762 3.864053058932873 1.3718694273045857 -0.7217418246037312 -0.16002160410369215
P 0.6018935550526073 5.990052946505423 3.2466887681339736 -1.5283976735430387 0.012982785412913124 -0.6715901434500047
Ni 0.9859454128352303 0.4125471681883224 4.705334258872134 -0.893173727426894 -0.9882068424743432 -0.1666005428727905
Ni 2.0216361329115937 6.487697838867555 4.69097607884049 3.157706003960226 2.3283694255939515 -0.5258425327668235
Ni 6.341768527724635 5.47860615196897 9.234279111842442 0.1473316673408495 1.3437323027487376 -1.1744601265810548
Ni 8.985010912632848 2.437885426150381 9.949129955351905 0.8633065075538164 -1.1549215423274948 1.1858236312229902
Ni 2.615766460526772 5.737901054035448 6.95445971915068 -0.960147879454598 -1.2784753905224564 -0.07861379314916138
Ni 0.8222316519680198 0.0882179953735107 9.101338751653781 0.3918376644418671 0.674765970074825 0.025290399135672575
Ni 1.412854414768546 0.9199958868930744 11.800314879981475 -1.2977108417133003 2.195499699314703 -1.8087445916020655
Ni 4.386118457888683 7.1733536858650595 1.1677203922128874 -0.20353418267434625 0.6236352128372809 0.31514294269228954
Ni 6.0268001685089265 8.111444588117056 8.057517605948455 -0.7902146726641488 -0.31736874669901466 0.2922950915598385
Ni 5.7703916999878375 3.4283249064043844 4.886791365188464 -0.5693126881353163 -1.5956212225773874 -1.2354978585196659
Ni 0.8435894333472371 7.516172475080441 6.790676537729846 0.7538158223201405 1.5981948968418347 -0.5196364039561114
Ni 5.267832563171844 4.65790905960736 7.142132705301309 0.5684457121493307 0.8753562396294988 -0.17757221139294577
Ni 1.175198630009126 7.816215415267137 11.237990127065824 -0.6901571078189146 -1.2151442345639782 0.3826606259282893
Ni 5.067006208966271 0.5243434892286595 10.374944670137314 -1.6655685983008024 0.43036101732804594 -1.0509893250182027
Ni 8.428212401156948 7.495510726094131 4.399172262254879 -0.46503131501672174 0.6956412708619374 0.81180731123326
Ni 7.396577302897526 6.234413295259516 7.001972607535821 0.08616075225848388 -0.28941288491603706 -0.5067029837238951
Ni 2.7364668809976376 5.438990764986818 2.444472157889562 0.36600116299473745 0.787449965434818 -0.15059131192872774
Ni 2.4770075618304714 5.530561955786004 11.150410618099983 0.21402891155808298 -0.1933058200781187 0.9714406787595979
Ni 1.2510497191259768 3.938310215601399 3.7417678402970544 1.2303793063461779 -1.1595209887727194 -0.12185589166724821
Ni 1.8339448781942227 1.4418648987563973 2.53254674501414 0.5368106017425529 -0.16058596124759442 -0.03707247937226518
Ni 1.2210892696674904 3.4694017787259734 7.929884264398628 0.8512205229235598 0.4178055492605385 -0.47881654172627214
Ni 3.952696711911495 2.7923504266644117 6.906304690644523 -0.07473734091289065 0.15407798492574754 -0.034378991700502085
Ni 4.507001564026979 6.942612553617858 5.991160021650047 -0.11482495296239578 0.5175134440758378 0.09558101713111926
Ni 8.453258606161572 7.166749598987473 13.475898687364182 0.4284830835790427 0.27733847025000624 -0.034264320499508734
P 0.42168967241484645 5.692211368611257 7.7281070312940825 0.005870342737847954 -0.6328294777420392 1.6454656569033401
P 8.838451335937295 1.6246967147201359 7.955566215525909 0.8000992787677124 0.8861800697178802 -1.2220491892139276
P 1.9416928848443156 3.213367815823116 10.385559620843324 -0.09871184945061709 0.6725705050854031 -0.30082986850372706
P 4.43239273744865 6.372952971154901 3.66473568834027 0.022474012732800006 1.651487437617388 -1.1755153073184466
P 7.358304655570985 3.7898507079645762 10.342056682858265 -0.5761669920529884 1.6071135394877032 0.042074560572546896
P 6.779501655453165 8.11349980187564 10.269864787660033 -0.09491792962582363 -0.766435310856364 -1.2911563284242344
P 2.7658701391704628 8.605417498563849 5.683046028676304 -1.7228388927771812 -0.7063519724112223 0.1725516182499028
P 7.450478709072687 4.353289843451549 1.43520965989193 -1.5332817411082174 -1.2949983278781438 0.08184901225700743
Ni 2.6984773964556115 1.5611586395880535 0.18659696756946656 0.32743410135481676 1.498444578824374 1.99434352995423
Ni 1.81669935118885 1.416097085365425 6.683751530011525 -0.9095840504641174 -1.162270012272766 2.6634998671517613
Ni 7.159286889472966 0.9251293541478516 9.14956046042855 -0.3780182420602715 -0.014496650954278259 -0.30844624739840426
Ni 2.9438242478138257 1.8423301503292504 8.943986105726475 0.5975236033518935 -0.6230508010887205 0.8225321538499318
Ni 6.875557779387751 2.198603738950836 2.4212902601210584 -1.3960087435549506 1.7315649597962695 0.8444371814531392
Ni 4.695788932748928 7.2257753381340395 10.281923868567073 -0.6943289798084171 -0.4758502600090967 -0.11672114154384412
Ni 7.771996349465754 6.269196646338148 11.136613283067346 -0.7629159848491958 0.7014661050738306 -0.3145163648518841
Ni 7.977800888108789 3.968782184928689 8.0989351870398 -0.05662031959720572 0.15466985287347554 -0.07809417320026552
Ni 2.947989481031225 8.657126676729852 12.568628684064265 2.810898126064488 -1.8647316484906467 -0.4250375482326035
Ni 0.2896472122816023 4.781925224942077 9.869812405695573 0.6347153819108424 1.2322197019890262 0.8270570383034789
Ni 8.944409023046576 2.569026332514859 5.828700397889742 0.8649967507720459 0.7425855008219598 0.053206923040282565
Ni 3.6887707281756708 2.8888175933507148 11.628256951254409 0.6255283160949355 0.42082376726157206 -0.5608097928706277
Ni 1.2880161639303958 3.456321484938 12.582438807093622 0.2799789931966469 0.3269229660463531 -0.10794056713773668
Ni 3.0960288116329595 8.622452937051678 8.025659965833709 1.2500842409742727 0.17081278118192517 -0.7160216342905024
Ni 5.95391772148781 8.221147331408648 3.169857570411362 0.06725105983817452 -0.8774748286343984 0.5650947933992267
Ni 3.6443324395733736 8.940600026880665 3.5497231861248313 -1.4634379808422022 -1.080997184234203 0.9004895443620169
Ni 3.396711151655658 4.366287928689179 9.12411874095394 0.19242444591442992 -0.11256649594552227 -0.1746360115827573
Ni 5.566678912236874 4.933545194625434 11.301947465804659 -0.8080162196219439 -1.110355839901978 1.1271369160150588
Ni 7.948826941254424 0.17010319208556757 2.386744400410084 0.49240353638208745 -0.9290478156156838 1.148685845830428
Ni 4.718990012512512 0.6689684247061307 1.670970994280103 0.2533259093854927 0.38038777073371266 -1.0816906107568016
Ni 6.158123760540834 5.746916591723109 13.613732283154949 0.3727531370065903 0.3621195685521441 -0.2662536731907543
Ni 8.298441637298193 9.220145635181737 11.248083510191321 0.008126742872192455 0.39801551111780487 0.5587719365049925
Ni 0.2866036690622219 5.489256726380127 5.542765358370314 -1.8684870017680206 -2.234177575500875 0.6159859238221391
Ni 7.54399550223 6.340736353703657 2.400086848130819 0.34309186249673174 0.2654998257438653 -0.09041412821819912
P 9.079294985593364 1.9114584068846845 3.45076601379146 -1.4329459829009321 0.07509703824515453 1.081495206916544
P 2.163948267839404 3.546001879079286 1.5445817421254737 -1.2413095801054363 -0.7502324758442563 -1.4170632502324048
P 5.066165854896094 1.2088310613829514 7.932625462838413 0.0314258226094491 -0.058530906356357264 2.3895115443209107
P 8.683040638654768 1.9881772529218267 12.496449576862755 -0.8523101564433128 -0.08677190347992153 -0.23890536308478855
P 6.632850735923899 7.96597199114271 0.9213532414020779 -0.317015477124654 0.18895834174270038 1.671316042307541
P 2.2513450911378174 3.705888375213843 5.760839979866271 -1.5541015060670462 0.2269044819691705 1.1831499410455688
P 7.351134243124364 4.16297704940656 5.956373930286403 0.6107712123904191 1.5460878917339502 0.27600509615056334
P 2.8480056152468984 9.108342006714702 10.292070230536126 -0.37003316697226596 -0.44168492698129735 -0.6728340431594347
