# total energy = -381161.80592980864 ev
CRYSTAL
PRIMVEC
9.28884637791876 0.00000000000000 0.00000000000000

0.00000000000000 9.28884637791876 0.00000000000000

0.00000000000000 0.00000000000000 13.59516560507415

PRIMCOORD
 96 1
Ni 4.909554800332418 6.868962660604375 8.30589891352318 0.08366549664045592 -0.12773163372173488 0.452297412389821
Ni 2.858113048850676 8.567056690889082 9.03156775379625 0.2852253291972507 -0.09838120558407573 0.030638036600831108
Ni 2.0715613930199335 3.055640369861585 11.257653752914324 0.13183999946315358 -0.48694508437067746 -0.06719860933368428
Ni 3.979648376330439 3.57784074289668 2.243352107008744 1.1351039933809353 -0.4187460587969369 -0.7145957004772532
Ni 6.416567969083364 4.502006659756184 4.690087223867582 0.7954101008221591 0.24506084116322308 0.9220585287820442
Ni 8.101090994618627 8.808297323570686 8.218454641373421 2.711392577067982 -0.47397232626009334 1.540822529569953
Ni 1.6700602915209666 1.1536097144748565 8.135415140238166 -1.8705881072714234 -0.2836006491096342 0.13438024938650406
Ni 5.804683783005227 5.812727924081899 0.6111735893202104 -0.9203430887528342 -1.107200067881816 0.6269892169111783
Ni 4.9693099499239155 8.144572085126601 0.284169965706952 1.726355390570872 -0.44397706544958376 -0.518255721558501
Ni 7.107537394337937 6.530337761123883 7.481487777091625 0.9649949231342543 0.45667111597748444 0.48592898440133736
Ni 3.2194863334313673 0.40018301417935964 3.197188457386849 -0.30686527606452957 1.911341892150018 -0.5716585626596735
Ni 2.6452777087931656 6.6397046399192 5.566608789213841 1.4427421430557477 -0.5568968309694667 0.16176969714305042
Ni 7.5445590448867845 0.05658115073941924 0.7231348429454533 2.1700619759678887 0.8304118137083247 2.203561907497547
Ni 8.228561835259713 0.3626570031682159 3.431677956425814 1.0103178154407697 1.1410514692136218 -0.73274846012688
Ni 7.23324335414234 3.0212716377788027 11.214217248869593 0.06346922419823907 1.1701702409564492 0.8525184157993768
Ni 7.399680905888094 5.501337922565384 11.74338147013238 -0.599883876053954 -0.508486300876563 -0.4173736039294425
Ni 0.8184031105096238 0.006374935359030654 10.31622915924136 1.671216026394567 -1.741337722912317 -0.8533275419642337
Ni 7.443877237577251 2.630443420918516 4.1696508027845205 -0.26855661029231814 -1.8121808709771239 -0.5640403839927834
Ni 1.753334800472897 2.4804285498004264 1.3089508101811267 0.6378559844223531 -0.01843043879104568 -0.3121152116095593
Ni 4.352010366331112 0.5730029323613518 5.355516036761393 -0.41931735791937463 -0.859092726582785 0.6705843278933096
Ni 8.291874613064103 7.370643971701399 3.372919500064718 2.2672640736421985 -1.6490824277203213 -1.674693700530522
Ni 4.379040909671895 2.6657967707312373 4.474414141201615 0.8426708335813359 -0.15427056055252786 -1.6079861719006436
Ni 0.3788493204024608 2.8894257504320433 7.260470821029111 0.447576609875384 0.5038768271290096 -3.6341051944942575
Ni 7.735268352560191 2.2743926453874015 7.825608887051411 -1.773958594271132 -0.789799182393285 1.1983618728993168
P 0.4404250839096941 2.6543064675997776 9.29947387815084 -3.150972027670502 -1.0155996326649994 3.234538022618617
Ni 6.464693482845768 8.120681171905812 2.067634068715987 -1.2589411771442705 -0.8942587329609566 1.5832932971396538
P 9.36612971181377 2.365218986551035 2.5632460475041206 -1.529244080703734 -0.3456269702137596 0.5038241195142034
Ni 1.4916587054718005 4.962231848884164 1.8377806329695945 -2.4921317276869983 -1.0450181950364323 -0.299428103060194
P 8.834919157665079 7.250000433244324 1.3356683193945609 0.2787181242063522 0.022131027571084465 -0.5419075566494861
P 1.9582003102258054 2.1551610115996738 4.872344610102576 -0.06841911200434668 -2.372142456914844 1.8064357409632308
P 7.189920174025017 0.49772797802285174 5.400597595522845 -0.1647624612227872 2.033975028302923 0.7496951152835476
Ni 7.192855449521817 7.2245861491960826 13.412487797116887 0.5663003836715537 -0.43113389093832843 -0.14447645728024153
Ni 5.284972820834507 6.3164249148713445 5.8571778412807465 0.05524426518528551 1.0397350922606223 1.5679350695160286
Ni 9.051609369023767 1.6316602000533391 11.094280591631843 0.5706897709885009 2.5351748228204016 1.1007494271604654
Ni 8.649411604036635 1.9299250614528354 13.336938821806374 1.2243338714830465 0.29247686855334143 -0.03290626380971752
Ni 5.920720053593906 4.312811434063722 7.433714310611908 -3.081610349247228 -0.04423274456613027 1.2566130432317264
Ni 2.76657146650586 6.256353944498546 9.179047698702071 -0.9164342406167314 -0.4126224623977023 0.35898487957790437
Ni 8.476964168599649 8.01893114724776 6.1109454123642 1.3564348379170703 1.1014827057820642 0.2933081062053852
Ni 7.726657591846478 4.510004356600312 0.13997827246526656 0.7432940968532102 -1.1267304246052596 0.5156969596923893
Ni 5.0909938391899825 9.18790461384827 9.75237016738333 0.37707490431039575 -0.06697080959359435 0.07148206720038656
Ni 3.243572312428842 1.554804284039031 9.887926948910378 -0.17198263312031026 0.48437475254034 0.027205356770198308
Ni 5.15970343681602 2.127461671310253 11.137186702540918 -1.0055910993890615 -0.22021601420540135 -0.5118421047226733
Ni 0.35979696732813793 4.676841328745947 11.071142074978273 -1.2452608514437007 -0.6132788093036212 0.020362879927068155
Ni 2.9054397218133183 8.709138887088605 0.278922696314097 -3.0085946190111343 2.0323169238742094 0.2883484482072647
Ni 2.160046944863334 8.728422532441 6.579965281366769 -0.9682828498569066 0.04707175667682216 -0.33113751834833294
Ni 5.952181376719415 5.987014551127641 2.968028898474668 -0.008035211599650677 0.34809522924859404 0.3002827377510054
Ni 1.160678526668099 4.183120559107018 13.15343208571594 0.11098783860449273 -0.91533586534623 0.46451040951624517
Ni 0.6209900423107738 6.602103389251336 7.011638414095816 0.4859050731419374 0.6715919432222176 -1.0441409346378017
Ni 3.8449879684914947 1.1285855619799874 7.690608507430242 0.7251433940861125 -0.7914739989925466 -1.0964587702049118
Ni 0.440686100496593 5.5137942657337655 8.935381748197004 0.7610182536058507 -0.5307019177416538 0.014676113954936015
Ni 6.494129837432346 0.6126932446090598 12.586486410163015 -1.928595537024143 0.6647088429491391 -2.3483486969293557
Ni 5.05930958374826 1.1210801740008287 1.1114411379785845 0.5638611781024417 -0.8026914649749208 1.6951033745351258
Ni 7.802045870112386 4.391608718998382 9.341605299261076 -0.915953701435887 -0.8695674008618638 -0.3695919656697893
Ni 6.819081554851797 7.833358571693752 4.773751864372885 -4.760395446238305 -0.42087081844942353 -0.28865646636598674
Ni 0.596575238146886 7.002712761485451 11.231483356760263 1.9006034226865913 -0.08695650868690186 0.13749076999102772
Ni 1.1287806277566736 6.44284611585693 13.585322577453294 0.10105258176865177 1.34242181146743 -0.06772722814364465
P 1.085940467657811 0.35846216008481474 12.59728097869096 0.8063876828795854 0.557147256417376 0.41356939969200385
Ni 0.08568960904423399 3.728459389037845 4.693526883729812 -0.6798354141779324 -1.7919550308485526 0.16108424104025162
P 4.184792551478613 8.156043810565043 6.764057214787263 0.2557810557942047 0.11097524019900241 -0.3811799276177048
Ni 7.233317664914411 2.350217499439226 1.4950872187182205 1.0795985041144633 -1.5983622756576343 0.8810080385986375
P 0.7622473889403103 7.717331589951582 8.796738282975062 0.14360768152204298 0.2413851920838488 0.7139531817972479
P 3.4545405943380714 7.144311937666514 12.672802087461948 0.28291339323462245 -1.6592825081817746 -1.2348697380173637
P 6.758536853307048 8.335541480502254 10.910813797581396 -0.635868264568363 -0.32776783054515163 -0.2617735259322137
Ni 5.679182177824019 2.8299957104683564 13.22389541756285 0.9275612037678284 0.3939536823436054 1.11940509458844
Ni 0.7051943647982409 5.864169556047966 4.2052428759525196 0.5934813149617199 0.17458561796079608 -0.31286725928423537
Ni 5.865414261480153 2.0745059573632423 6.491474156215463 0.21557851543339004 0.46316700811447326 -1.9633535093306187
Ni 1.0025173371617389 9.407929521103638 1.631814394905386 -2.1962589460782307 1.665465754174351 -0.4857559491585828
Ni 2.03826087828567 3.5053598735880445 8.573546807944822 4.28568932713598 2.2928820313206186 0.2780365247582953
Ni 5.438498875932945 2.25631655008116 8.758441297703682 0.6158951638805457 0.6877022185205189 1.2179505936645219
Ni 6.13296090747485 9.205720621452263 7.48059047451887 -1.7609107599482383 0.18877579341824907 -1.2337022000718236
Ni 4.779845347682697 4.736401412560758 12.425328638772898 -0.03913527543856486 0.7534386414863797 -1.2381324679290355
Ni 5.840622330148006 0.7418397931603449 3.4527097626911747 -0.5528838531553317 0.04715763152240911 0.1467472555922892
Ni 2.2502973775434185 3.8761799150682466 3.878483549002444 0.10787783222060131 -0.09633589301927278 -0.4924359322819197
Ni 4.276882175767452 5.075416443594623 4.397492274377094 -1.3632942840410651 -0.5526871637634932 -0.8564079806617703
Ni 3.5562627524565977 9.22489280064655 11.596227563739019 -0.3682539635846561 -1.9813322052962266 -1.16458091979413
Ni 0.0963550626057071 0.880313272491176 5.747328871351619 0.7711265456844462 1.0494371500397346 -0.30387662574985086
Ni 5.3093839094597906 6.563322455076845 10.802922916496335 -0.2588298699228575 0.6091408758758478 0.14937569435407175
Ni 3.5130231719578537 5.704159886086344 1.1794484988085525 0.9091847581431698 1.4478946337909644 -1.2683167048218995
Ni 2.2419374156854444 7.77169920856794 2.1887810626538418 1.9695084731884211 -3.1369001229584685 -0.882708566229512
Ni 1.4642380305776455 4.7126219654980765 6.238142232033275 1.0022990589013514 -0.8296808490795711 0.7219660247993953
Ni 7.864708428661156 4.489615338513365 6.64259811560671 2.4607365012051683 -1.5286468134393671 0.07785634615784656
Ni 3.3696312484005815 3.30282586430886 6.3356054540274895 0.14735455015898494 -0.527683185519988 1.0808282627565062
Ni 8.455246845461934 8.61889774325503 12.297071961717162 1.8730491672174066 0.9012960994237122 -1.465923209157901
Ni 7.345684841132091 0.9737776460633258 9.87231982900619 -1.5846708942134708 -0.2761706751941502 -0.21716488608390339
Ni 8.074812847845061 6.798961913313606 10.032661110788181 -1.6066646248757426 0.952056103585399 -1.568669890799524
Ni 8.357286670179494 4.9803822549624766 2.685888545729902 -0.5071853226769524 -0.806273268788908 -0.5074442327652938
Ni 4.404863902966525 7.90867253918759 4.02891363155948 -0.029582084532490983 -1.6362737059914272 -0.2865013676961969
Ni 2.6775192950254185 5.4932380484096575 11.453941012916301 -0.46844856822838676 0.8405530159073846 1.2442195546633796
P 2.681903630577601 5.852205521744554 3.259060535097715 1.6064273120539558 2.8387933098128593 0.37970539995470737
Ni 3.956063995044443 4.230698030925399 10.040274249386842 0.9179329366494451 -0.8013498633453618 -1.020037870942011
P 3.582262233834897 4.977790666786504 7.711314275183143 1.0829262829361157 0.15048152582374083 -0.18362278846239988
Ni 3.631260899169134 1.520407685416722 13.060290964002297 -0.9463497972292411 2.4230027340998204 0.004077255393167171
P 3.3411609338509254 3.73909511829049 13.644787915033714 -0.6717289830207142 -0.8577236141494002 0.1738453973606619
P 6.337185486818647 4.038911217056966 2.002907528472949 -1.3596749421209229 2.4602695888710793 0.6291227183144134
P 8.236048645545853 5.987701925769295 5.323635786658334 -1.1575697785836194 0.7964416274104671 -0.7531077405095224
Ni 1.4938230067083647 8.034016233978148 4.130442581670621 -1.2408758350021276 2.0238420536339787 2.163956891511415
