# total energy = -340864.02916354564 ev
CRYSTAL
PRIMVEC
9.31246604258869 0.00000000000000 0.00000000000000

0.00000000000000 9.31246604258869 0.00000000000000

0.00000000000000 0.00000000000000 13.62973537182422

PRIMCOORD
 96 1
Ni 5.805856805739279 3.7744913899671535 7.941337451697509 1.5512311264977865 -0.13175978104452146 1.400568595011491
Ni 5.922961063229328 1.138616568969653 12.006378706007826 2.240316341408761 -0.6369936364220578 0.17880428402783397
Ni 8.243180543321643 0.5229247548063821 6.7873897702741095 0.3441856097815427 1.310656346130375 -0.18695545238005865
Ni 2.010533429767733 4.3431105519824555 9.00624306008577 1.3937091488874964 -0.757559862743605 0.8653127393505678
Ni 7.5744523739092795 2.3768299597171256 8.796453692937911 -1.2474748283758839 -1.2479977907588895 0.5280557383680583
Ni 0.7246970201432533 8.113448582200856 12.607300018158774 0.7795921599532961 -0.0305534473068248 0.9357936189799496
Ni 4.2366690678384185 0.5979860229294077 13.324196916944281 -1.097360713193891 -0.03473123283359825 0.924391290680279
Ni 0.3191093344720304 0.937132058826137 0.038857194815346406 -1.7560701440264852 0.2664238802200315 -0.2060440935803935
Ni 4.067228752527766 0.7322326674721558 4.261786650605987 -0.24376757627309628 0.43960670429603 1.7108120435196343
Ni 5.63233763040631 2.4872758041570453 0.6488814422900732 -0.10569162320255991 0.3869083454610498 1.0950672891740239
Ni 1.6399066032193048 8.81283338904123 10.212446712123857 0.15041467714154738 -2.0409393754358978 0.8818120225571716
Ni 1.2976082976477936 4.468959214862816 5.612302791474772 0.9907748603118356 -2.7996294951292042 0.9897099093824311
Ni 4.228772096836306 3.2530398672510237 5.2275619917532286 -0.7518347873343697 0.20495857382569863 1.2778025328251477
Ni 4.258832736452837 5.310461562343798 8.259537889507031 -0.5617973535948776 0.882154493498255 1.6911641873817196
Ni 3.9131912556575545 5.43801440646636 10.961236943796196 -0.9686677440001512 0.4484620978041309 -2.8365363954578826
Ni 7.786972156030983 8.775294839383784 12.422386109667569 -1.4077915951224915 -0.40388636807628503 -0.07186053358572786
Ni 6.160224066993264 6.026841619277162 11.828606527541998 0.30525268016177104 2.455673484859964 1.1478170700722297
Ni 6.440082289346423 4.572513834607496 2.3104311472853323 1.7602438157882008 -0.8830173557191824 1.0921650279255644
Ni 1.2503568461563812 6.466594879491486 4.903515187911717 0.6139295555137427 2.684256640083138 -0.11640720984785113
Ni 3.182358251795797 8.936139748756997 8.074568106221 1.0035303602052912 -2.1628235492379204 0.9687158236292671
Ni 1.6814495131726337 2.709759924689433 12.32230224592818 0.4354808550531145 -1.4886638452885266 -0.8111601645675642
Ni 6.494439152246575 4.585718911118104 13.555603310963843 0.25455592513785197 -1.6177388804120332 -0.36391342722777326
Ni 1.7674873847392794 1.4852358586743954 9.27889157141318 4.973640171332195 3.0461502086674055 0.2868883187219704
Ni 3.3078809783730043 8.01111389547655 11.94616243962356 0.5392876025281358 -0.0863975508596383 0.7821216112433691
P 8.169947312236017 4.469815961716819 8.839659809283901 -0.5761068282390143 0.5713065786368935 -0.9889596614799677
P 3.222839540647427 3.212111580040784 10.539370136652341 -0.6608187638661135 0.2494070339470608 -0.580057071136014
P 6.4490129440528206 6.3772417700984825 0.9821559684971424 1.6073202561818707 0.37520854052561836 1.1273893983454972
P 1.1923867465241298 2.6575076790610694 3.5472206620113154 1.0435323545195254 0.5827554439037834 0.2063138023020124
P 3.8374157214073334 5.513482629345036 4.340143600377181 -1.5159599620003181 -2.294573560090429 1.031347125307243
P 0.06273156339802952 5.05057857914103 2.2300152113247895 -0.5832843198240599 1.1018092358835476 -0.574126564584192
P 1.8296946563125225 8.51210593082046 5.5907127707539015 -0.9702823967854386 0.04405379578610477 0.6341880486524626
P 9.047135028679374 7.781207739698074 10.747918152108475 -0.3467240599326803 0.603652856178083 0.04288548650961646
Ni 8.658153332030517 1.382035112630282 11.23019306243217 0.757244131275399 1.7104340913549252 1.7575446716894827
Ni 1.7627007773158294 1.7236256708006603 1.6335378078556908 1.0359126331907387 -1.2417569520555 1.7413562348550784
Ni 0.9546767444015846 8.2135203397347 7.846311188136478 0.1618072352492052 0.8343581999505824 -0.7553052623814734
Ni 5.925270554748814 6.853481271334358 9.682168834318338 -0.01696670976132562 0.5788319404796611 -1.3532245585098888
Ni 1.2689352154361146 6.120841649106551 0.4815680941691407 -2.2473660491666907 -0.259476759478237 -0.8766351063419227
Ni 1.6921681613134727 6.493982841422161 11.158473107039754 -0.5697253501927027 -1.6308070264499013 -0.6268184956612689
Ni 5.878857225179796 4.1826288287756155 10.822199966843677 0.5119189807071958 -2.7098907957114746 -1.656883668932295
Ni 2.3102178918184118 1.1972012913449932 6.742984208332515 -0.5082204488096861 1.2649698998368537 -1.0566274971405867
Ni 1.5968271364082538 3.7379585866165796 0.9371469587714241 -0.4009720226429675 1.960178968257379 -0.4344251600950906
Ni 8.73563304752294 3.9970313852943673 4.086303476234873 0.27791696846129554 0.2580415696936072 -0.8547485906814762
Ni 6.283139303145245 8.855372732835628 3.2893324089838445 0.5566142667320414 -1.0730812718212357 1.3595695268913102
Ni 7.9663488723549065 6.97025028005545 2.823740781148694 -0.41436129946567996 -2.0949831925551794 0.7969867012806597
Ni 5.191690373474765 7.687459146445403 13.555534398716892 -0.6162972844149709 0.1047624265200712 0.18792090161712152
Ni 0.5152903953399532 5.993391242107838 8.944759367105528 0.013315743272299646 1.2524429710144365 -0.28189009417643063
Ni 7.85667596257675 1.0309644642710467 2.4728023698038815 2.6062573405895244 0.4755440416225875 1.1849484277068885
Ni 4.475198566951749 5.440808146207674 1.9282121633036144 -0.7263808660376393 -0.8874453095835491 -0.6654354367025185
Ni 0.46771766377828977 2.2335669857825793 5.567174582186757 -1.0564585756628904 -0.7212134629040869 -0.7043935631332706
Ni 5.208350374798797 5.248999288034906 6.227657494375924 0.41115076294818226 0.104678094336381 -1.5245608162954518
Ni 8.39487129880915 4.228222661353849 6.562676245428154 -1.3253131768116013 -1.5202513902868204 0.5797541951836145
Ni 3.7855452868769497 7.2421835940090835 3.1445840967534995 -1.736564727003706 1.4347316140464452 -1.3623383478856987
Ni 8.283177583951446 6.101630032152119 13.107047908071221 0.46420290557815536 0.4636619454730208 0.03601652730392507
Ni 4.237600314418857 1.880103033711619 8.51371884989778 -0.43407574717547176 1.616976291214396 0.08313867760270842
Ni 6.3779960798286375 0.3783598981523835 1.0173449830321444 -1.3562708015353802 -1.4789741288045883 -1.4815460032968228
Ni 7.976201461175939 7.899410868153039 7.902656262485865 -1.4533708264141874 -0.7750114825611492 1.0460152688423792
P 5.615500692231995 8.171418681833108 11.44130386847767 -0.18531611700442277 0.3458162034064302 -0.4772368559439781
P 7.524118496236618 1.233566470311088 4.659665477084346 -0.14690974931208248 -0.06774856829988332 0.919596697505113
P 2.88982576348288 6.8564891977891715 9.037604651175174 -0.6565862138420047 0.5572061346797693 1.7067553569517575
P 2.965834109378211 3.625948247921525 7.2425961362442175 0.06879500728652668 -0.1005563588585236 -1.2766429652994076
P 0.9104620880089798 4.596903182549161 12.463466190070418 -0.5816303291604048 2.3343865783223086 -0.321210231932292
P 4.45969331138746 0.7291018164687241 6.686530178133216 0.36009919568800564 0.2624065315305223 -1.8778116216030563
P 3.7592096335821696 3.4037621262948767 0.8360871486157367 -0.9352968818491892 0.2430499813807814 0.4001161024005754
P 0.4992189418547582 9.335467594914515 2.107129775063382 0.537786335392261 -1.3711608312733354 0.6137963723699881
Ni 3.866582364306644 7.682998475325106 5.386252927785887 0.10437264728082025 -0.14062263075179007 1.724479513704398
Ni 0.350098426929258 2.7462647906425937 7.9739403944786345 0.9681833481645649 0.11681472969891495 -2.020110611616005
Ni 6.14239069497788 8.825451780206162 5.873134714943006 0.37983318378182324 0.301791461086048 -2.021228784380848
Ni 2.274290398745123 5.990997938396112 7.169567779406287 -0.3724428048550231 0.6087451830993258 -0.6865153973012693
Ni 4.288772314013912 2.801971961084381 12.325805595563788 -0.41959452284016124 0.3351219569173777 -0.1575165782936513
Ni 7.412126782473171 9.279127176798031 10.045918404870232 -1.0011441193613015 -1.3597996406242452 -0.7732338218354361
Ni 5.758679853974302 6.16485236249804 4.017678053229253 2.146335578885226 0.9729740846849888 -0.2504786697446848
Ni 6.462041083713145 3.776325945730616 4.617276995235979 0.3151629972969476 0.6155544927116754 0.47820719027704733
Ni 4.231165400548032 5.08491364056177 13.065450054569647 -0.5974241016595517 0.9989149729204667 1.9347664417215455
Ni 1.975527870809077 4.847771698853292 3.2387657196660737 0.5372363764260619 -0.2775906954701284 0.04432684694183334
Ni 0.14260178886243577 3.4532951319083622 10.186345732967347 0.9376484128005014 -0.04236098146471414 1.0962163151768025
Ni 8.232238396001499 3.727640374505329 12.122586173040917 -0.5377043172014159 -0.10399752332958863 0.8930135476999458
Ni 1.2467622343558913 7.191412030443616 2.7300909000335505 -0.8597959232973965 1.038470366615586 -1.3502742176323133
Ni 9.17037620113451 6.3223727215790895 6.808230137497725 -0.2373650151808622 0.42887723369366787 -1.6536656762156297
Ni 2.706565748918531 8.755775911057809 1.1609450682288096 -1.060921239419934 0.15346734792494215 -0.08668731418591522
Ni 5.812664218242279 2.119470654747343 3.17208939575331 0.18021659099432835 -0.5316511690288004 -0.20366608026652022
Ni 4.109935720706642 0.2226415012044817 10.201311796761562 0.9000905091513854 -0.15687303117238144 1.0345064968718312
Ni 6.111519870836369 2.234917293324214 6.373277453405558 0.5787244683675195 -1.880284508623581 -0.5357117122514193
Ni 8.175534791718643 3.160958205377337 1.4520164306570194 1.3684940830744496 1.8197892794520014 1.9759413732979585
Ni 8.848192821700453 8.319188889216973 4.666317371408413 -0.007872460769541281 0.7067119268538022 0.1322338924674626
Ni 5.98048416450297 -0.06749395841038829 8.080838189447087 -0.6790460855074176 0.37678514098411886 1.4089627326124572
Ni 8.342060305232526 8.213399277679242 1.0075976250747023 0.25641508983377775 -0.11361576314564302 -0.5731377183083614
Ni 8.36842389592472 5.824016114057815 10.632856118369325 -1.4880344392346436 -1.2588247061710645 0.8916783738282902
Ni 3.4979297805087444 2.9765248201216368 3.1317040252994652 -0.6743589644443935 -0.14565787918285236 -1.4729078680058503
P 7.588756321384804 2.0851076559291895 13.541632749764116 0.12450489925432105 -2.1673980559824804 -3.2049600518511836
P 4.4036508921767155 -0.1883204084824477 2.43714680073208 0.520225186580046 1.7075883943760137 -1.832961040947269
P 7.492409550172712 5.791003422781297 5.329743954038343 0.2562700796154812 0.050700354568344944 -0.605856291587305
P 2.1929180725464703 0.585089189036925 12.574711975322936 0.2350764762570016 -0.8300456886181576 -0.3292930089404264
P 9.29239744056927 0.8297630530879839 9.266734147305566 -3.387067432110322 -1.1224847619550282 -1.9120764563231971
P 3.1392880974505504 6.711168168911858 0.8717389927012164 1.7611465301081282 -0.053724486106649406 -0.23642656252699285
P 5.8241837384422945 1.8443431650228086 10.065477376799167 -0.23423238308915145 0.6710329853949539 -1.2790222641648619
P 5.5185020484135965 7.14481245155851 7.0850087274093765 0.39876395924805513 0.375291844268044 1.6825108825820958
