# total energy = -381158.7766542011 ev
CRYSTAL
PRIMVEC
9.35878305640192 0.00000000000000 0.00000000000000

0.00000000000000 9.35878305640192 0.00000000000000

0.00000000000000 0.00000000000000 13.69752500334342

PRIMCOORD
 96 1
Ni 8.62098343237085 3.5742877231811994 12.258120999324259 1.1377445163275761 -1.1720618015522073 -0.060003377136825686
Ni 2.0218621416857627 7.201031425626091 7.928839654313196 0.1404519095018807 -0.2367101552056827 1.9188824235014372
Ni 2.7273459291711526 8.810648530632754 9.73995416705243 0.8342124184013375 -1.6391343153686742 0.7302853432983681
Ni 0.6066934089823385 2.626093254835046 8.768360869204923 1.0685250199091212 -0.5550248107577345 2.4213770255709393
Ni 7.911756131646301 5.889098493397218 7.938030915193636 0.5786247095648617 -0.030608983135108573 -0.29599310923671607
Ni 8.655171067027453 5.6426255817311 1.8630548230542316 0.21100066625472047 0.38697133748850127 -1.1167794840401348
Ni 5.503217148704882 5.7879955595906765 3.751437320806292 1.0306418717101025 -1.2241202128103434 0.9124459453929447
Ni 7.9709691523066715 4.1406064060009165 5.331637898779656 -0.9226216003743659 1.3202607019893586 -0.14138110618436942
Ni 2.7838261851669386 2.9906178564979884 7.41204577989091 -1.382024770571033 -0.4396051616341332 -0.15151485218426164
Ni 2.258227567606155 3.7605181480461773 1.8090733621455835 1.3653794487048678 1.5568124772403058 2.9847988021431178
Ni 0.2723948690906618 6.773232091438292 9.674329444091692 0.1602108372963628 1.4292086273456868 -1.6497953946269457
Ni 1.6564110204961289 7.0548378748539005 1.1072816145923121 -1.9117661241716302 -0.12715647794455517 1.0207264123686035
Ni 6.00236784523102 6.709835694733163 6.669146513458452 -1.2496502387606478 -1.6526886570143406 -2.1792289871791373
Ni 1.6371693624468604 8.401295357930902 6.097001052281987 -0.18957052140540256 -0.03923837667533243 -0.4225741742937754
Ni 3.9274133270309086 3.9858214923448605 3.907753331377164 -2.4186511419993444 0.9932336062649734 2.2179446585817804
Ni 7.967665501873116 0.9951474831482844 8.628961794961803 -0.8905121214343309 1.1009895681957298 -0.0022139769321832836
Ni 9.257886057314876 3.4534377570381043 1.5589018593991788 1.5832045940805894 0.08225396100490996 -0.38640620901365064
Ni 1.6991151477718156 3.1323940616479735 11.945132408546487 -0.2993831087548715 0.07033278408729178 -1.3721478777769531
Ni 8.137284086739333 1.8190011592558286 0.5317351716380722 -3.3071822284479047 0.6675018323132439 0.2588563522854187
Ni 3.7068829621121515 8.100288817153361 0.3177082250940414 0.5142486572816369 0.10480562105318078 -0.21564999210127375
Ni 0.8965283703759244 5.2878621908392605 11.148935808249837 1.1498240731999294 -4.378361141040105 -0.2003015346696615
Ni 5.840535767902249 7.929547178315397 4.47683098345414 0.4147621344485244 0.028738505585273088 -0.08563676143421381
Ni 9.512360728529693 6.856525261009542 12.087641406413036 -0.970139186339355 4.120112340431698 2.834081249049171
Ni 9.009962534268587 0.7879533841440255 2.4077097947589454 1.6563280535391411 0.05847614185902187 0.9353076804824667
P 7.621427962383456 5.399334656318267 3.641226419288881 -0.15360670171628382 1.1445417417550676 0.3025406805472467
Ni 8.46691914501333 8.6474032770562 0.5782754641055856 0.15604179352033773 -0.9206796461566465 0.8439777253182175
P 2.2538102219839495 5.996312712566683 3.1324867136006422 0.04798064164433672 0.4532487205594968 -0.23373153219333292
Ni 8.471991605452388 3.30472669361258 7.243086989233094 -0.8811252809027922 -0.129577428681222 0.9373054276387859
P 2.067954148442887 9.449656881773809 0.5212561422033611 -0.7816120185968023 -1.4231806759840522 0.7140033183088929
P 5.796483975860466 5.1705030507916785 8.089867812173857 -0.08143660730993717 1.8652250431872974 0.404060174649988
P 0.6600599978414553 -0.025444659486552206 4.410219844754884 -0.8390900582086128 0.6275319767885257 -1.3697716642352924
Ni 6.9787884034004195 9.146020522945758 2.5924484295981194 0.17752001799877168 -0.46454537651923866 -0.32239628182059316
Ni 7.671843726931808 3.259673511779322 3.2160419290986337 -1.058569708468622 0.18877399364603617 -1.8075426008741644
Ni 8.120906216318021 7.134967775738063 5.086863606245807 -1.4175926403733132 -1.1650156933387033 -0.7610071978622572
Ni 3.802763694950068 2.024819517144697 9.273073490526137 -0.9933554765548183 -0.7814585237380736 0.9125040523243898
Ni 4.3399297684198475 2.4694553021256063 5.777725231019049 0.06194918800928686 -0.8259190680442937 -0.6108066936140448
Ni 5.043794486429302 6.54623480739889 12.515455714653791 -0.36535915853536427 -1.3337985885747932 -0.3653373041584934
Ni 2.278068187773689 1.1634464795976989 5.3768539234388175 0.9078452133961397 0.565201237070104 -0.2535259412114408
Ni 6.870423053909914 4.0431159624701625 0.9215116418557504 1.6021754787561375 0.6155578351457851 -0.6155177259364689
Ni 7.824616502221818 5.596018841903592 13.209454403521448 0.3320967969378087 0.3703707528173428 0.6381614314779139
Ni 7.1936379869787554 7.699311755324125 12.658690954088739 0.14802380831186765 -0.20158091560271735 -2.2353039757958344
Ni 2.919200982677965 6.433517623767864 10.571776846967829 0.3221324866362452 0.44239557989507683 0.3316468538845837
Ni 5.3232290321662 5.331586425472618 10.204190051475257 0.5697726584908703 1.8879265985498714 0.0757027901499535
Ni 8.675807183758307 8.746063568474192 10.791992756774496 -0.4811467325213455 0.8487147257825706 -0.14223059866885826
Ni 6.8156180200886505 0.8274680381399504 12.271256987280465 2.2314218671326085 0.49125836703405074 -0.9457918678432421
Ni 4.478449117051766 7.194863987564579 8.874790822350784 0.5496458058340081 -2.7762861924175737 1.728829048922345
Ni 3.8830807714961875 1.664983665813799 3.312486060679043 -0.1974560948010664 1.1436200012717466 -0.5971893599409264
Ni 2.286481733778695 4.337983141535486 9.675301821655564 0.5386139734998788 -0.8543531550152706 -1.3687367952128748
Ni 4.700542398747871 8.740598039145024 11.802458696097412 0.03632608812454389 0.5282652832757031 -0.5908567328546792
Ni 2.5549290681586654 6.087579565337338 13.124544036230882 0.12121131610471382 0.2872004506457505 -2.2717051401326875
Ni 3.4033776262474724 3.99546103893569 13.3011321068701 2.8426047131391496 0.04325238293073196 1.0343712568455476
Ni 0.8745464606355927 5.905822638793152 6.231976229754733 -0.13518346201408976 -0.7566972576329936 0.012647770670997571
Ni 4.15894026208969 3.810138416031208 11.195631456516775 -1.592649027322941 -0.9678611889384557 -0.06346485332286489
Ni 6.781514614479928 8.423485032656007 7.490286142467608 1.565100428280711 3.1508239321284126 0.7363423481257254
Ni 5.624712870881733 2.0795964746166664 10.842659336709872 -0.3273024608729589 -0.06474166315275946 -0.9134998405787558
Ni 2.1514064173268013 2.131275674883233 0.32061225548931765 -1.155333947274565 -0.3052979315774097 0.15834807305601117
P 2.989251474165696 0.2982578661816898 7.896911229896423 -1.105648921344612 2.4371900813437963 -0.6875649216117061
Ni 0.6731155002630164 1.6015123988438869 6.779576410500353 -0.9695066949616786 -0.07231356196274642 -0.429299408832751
P 1.3648006979488725 4.336785217298956 13.715194619226812 -2.4882033391668696 0.8501146914538907 -0.568554212702737
Ni 2.323673537809723 8.474078614083218 2.724246300209131 -0.04581114479684368 1.2724428111751311 1.1269726225230527
P 0.21077383353920315 4.732586872075058 8.732747891882509 0.20664676016139896 0.07721768413258315 0.37048182447391037
P 6.401201745730838 1.2463652978450332 6.7540306761563444 0.08199196559277493 -0.10044605853290442 0.032123877117738224
P 2.4531148668366844 4.300454421312933 5.6638578529452905 0.22424673263134928 -0.1095909582569661 -0.12414134526731524
Ni 6.42256784754333 4.046672300047362 12.033289337693711 -0.4809595562112039 0.3663811720419755 -0.19506908262612857
Ni 6.2270441510621435 1.8517381825322592 4.534017827573817 -0.6493236187423204 0.7829155678995742 -0.277771958242999
Ni 3.652976371468286 7.0722358526328835 5.047825314309565 -0.4783974519109826 -1.0424391214553468 -1.0754687982168059
Ni 4.324029195936527 6.841466979005032 2.2292172117593054 -2.651236733513692 -1.107744113310744 0.09186294484958372
Ni 1.7841022570837846 1.144504302607563 10.751091131123465 -2.4509179724528503 1.2319165689263105 -1.2730357075641239
Ni 4.256075071862724 0.18297824773846014 4.974831485537546 0.7269701628822061 -1.0583802181656352 0.6344127630687589
Ni 4.107588619231549 8.171939660550832 7.066278987191074 0.4774219753715907 0.9460708325362415 -2.816450166230969
Ni 5.17969337579381 3.2958826435850708 7.786714366553659 -0.03650529401488552 -2.831206241494221 0.7758198373950574
Ni 0.243683058424635 0.8408510979699377 13.075013612563591 1.964933452223229 -0.5386170588236724 -2.118616772813719
Ni 0.6589154186685829 9.311886235789721 8.378283046171491 0.4912802214109217 -1.4587398040355846 0.617235479958524
Ni 0.694018342312161 4.233473610681312 4.204524086924598 0.7851040909104609 0.7283459601838101 -0.4319702707966947
Ni 5.277361636203424 4.6153493962077485 5.927398377347036 -0.028696339493427998 0.4439485262044935 -1.380721221268261
Ni 5.2127673152617655 -0.08622527631582001 9.302769845174064 0.5731096932839033 1.8621831710371801 0.009079079483132751
Ni 5.147789284213092 3.5325849856969875 2.220081167699142 -0.7160419460054764 -0.28653324937539687 -0.7844183776973458
Ni 7.090288945228719 3.9083214095112058 9.426883218983393 0.5336445453097455 -1.371877911945018 -0.6620459514049953
Ni 1.5373953758402201 2.138734625012254 3.4920474167084623 -0.35566661383794873 -0.24662972831223973 -1.2034081770739726
Ni 3.4993893820487596 1.3765553295198265 12.104913976498507 1.337891527697244 1.2190798221729586 -0.025743170402375018
Ni 4.207662086897322 1.138889032748827 0.6496137241475868 -1.3277066167444425 -1.3413676591713026 2.1724343328548072
Ni 5.381693350178739 2.671483352859828 13.558988106418184 1.2681920063185772 0.23066060657749307 -1.276349345318389
Ni 4.713672771434215 9.047107544384126 2.5574784006745315 -0.14588105093725198 -0.06834172179919197 -0.017813631142653195
Ni 7.635119862055674 0.12133943049911554 4.801694934104831 0.8313170991314135 -1.7930222957708022 1.0500045925074304
Ni 7.84579542837235 5.531293497998562 10.789362002845678 0.13441187395538787 1.5182919525676046 0.13778233308951754
Ni -0.11550984450743781 7.530994041308514 3.0549866307669884 0.5044496689133441 1.222665739752004 -0.11167997957551089
Ni 6.481303570265707 7.019686285538213 1.483578629514095 1.492207596775727 0.12474658295148193 -0.6522338504105799
Ni 5.928489611456251 9.092984299129997 0.15811851219552628 -0.3892498491100329 -0.6963573230923555 2.8913168336328723
P 6.133016457277609 7.750139306328783 10.486373271808004 0.4717483220255811 -0.9649309026655382 0.5682271683806213
Ni 3.348170164753 5.363172318428007 7.411826784366419 0.5509043608314577 -0.15178378957493216 -0.09871956276010095
P 8.957712448233048 7.628886912512478 6.854214577462672 0.7935226539914592 0.9489365841198109 2.724165560462934
Ni 8.77911879037595 2.0176038953762214 4.651926328189244 1.4456014668814137 0.1291423980263324 1.2421796414152155
P 6.319312393624274 1.7364660511155077 2.0364796250063626 -0.14604251621578074 0.00711424244727807 -0.5083762576612599
P 7.8246820137035025 2.1116035128114614 10.583296573083027 0.2830933704559125 -0.45615715245554345 0.5058874298011352
P 5.154200050635148 5.479810832177051 0.6925387187043841 -0.2725621319072854 -1.043441851688248 0.0010526096342304452
Ni 2.121439593847347 8.756919756867749 12.138486739105582 -0.4936325236931821 -1.7673470024918854 0.45130856611399045
