# total energy = -340898.1411781658 ev
CRYSTAL
PRIMVEC
9.00781134395914 0.00000000000000 0.00000000000000

0.00000000000000 9.00781134395914 0.00000000000000

0.00000000000000 0.00000000000000 13.18384242541179

PRIMCOORD
 96 1
Ni 6.277615602083126 1.8484568798766408 11.276495855385184 0.40548765112513396 0.43533815882766314 0.6637973868784632
Ni 4.658713779693969 0.23129626736867573 6.123973872447464 -0.6620099559607373 0.6699168695126398 -0.6997262395645883
Ni 2.594429746411265 1.6625897061128396 4.770059332417354 0.6776137239362652 -0.4582286902725915 0.501582117557562
Ni 3.443632127888856 4.36714895075209 4.7909556525538886 0.023690915859036616 -0.43766732118147206 0.5563360733699902
Ni 5.057048193332092 4.489204790846085 2.4756482456437765 -0.25102065829108383 0.6363614021546976 0.12307536589664611
Ni 7.205203955553186 6.012596792385308 2.4974543546990935 0.025206066951982395 0.23974714225979354 1.0334657143121426
Ni 5.12884945542724 4.612683865090254 11.53980408175947 -0.4486808986831563 -0.4892225675509445 -0.3240836968253451
Ni 5.591031233979477 7.815573234133934 12.312693188573421 -0.3167473110649319 0.40289263670444814 0.1605435380454332
Ni 1.815191033569104 6.407454190947691 0.23209886333564064 0.23771777053459062 -0.047319096800937856 0.6651621284364738
Ni 2.7691542578727586 1.6007330674467533 0.3502579243577056 -0.322863965485631 -0.2887883639581607 0.12494764321869449
Ni 0.48673256764273143 0.03013833430158604 4.803255818579598 0.7597555848433432 0.6218143575784582 -0.29348062722750745
Ni 8.687042924593987 2.260879510039268 1.4308295364736958 0.12177798724146124 1.1864083000818666 -0.41185473099374237
Ni 6.835027959341913 0.750886627477154 4.69955159199287 -0.5577357819309942 -0.3847583889975825 0.769422675619462
Ni 0.8990597150079417 7.4235893273051285 2.548133200599671 -0.46598236607608134 -0.43126938807492826 0.1718669334780524
Ni 7.75895914151469 3.9381789716409257 3.797394991536641 -0.3467618551491512 -0.9002139221031271 -0.6403648668871359
Ni 7.636263746834224 3.8044940474464615 12.61375945663937 -0.3970289788348194 -0.626033023645496 -0.14326906723570165
Ni 7.864035257728451 8.757961421203582 6.847133556648356 0.2615585817079302 0.9432300206533368 0.547288104235109
Ni 6.869050461779921 0.6809202564984016 0.39417820960717453 -0.4081145472250197 -0.23923806383385893 -0.00013318314375460936
Ni 1.946966301815234 6.403400675963019 9.119091773531286 -0.661569525989209 0.10327530045158344 0.3379535128289018
Ni 0.059792048367226916 4.969140965031184 1.302373646609458 0.3986688284310876 -0.7790123761904262 0.43027077160708477
Ni 6.297946231684024 2.043340872528567 6.990811746451698 0.07177260185761189 -0.18518113408845527 -0.2631922606566113
Ni 3.4185814052835863 4.167824107239179 0.20702742276489391 0.014891572399851774 0.4239402014033667 0.9515061446191999
Ni 5.994229865599207 5.596516990925399 4.784733056661865 -0.06329876005864582 0.3362164755331371 -0.027588451141229906
Ni 5.2618227625466165 3.056935806162277 9.34747581557875 0.6008344128926814 -0.4701007591198291 -0.3539789417228807
P 0.09921923745146449 5.512203879244233 12.272456197273357 0.5994938397043869 0.14022488109273915 1.3287371148914857
P 3.982614503684002 6.192212545261637 12.656435763179099 0.059117632097762704 -0.10846172974852934 -0.33915833177028043
P 2.426280937036017 8.463730280182897 1.4240655711359407 0.4542941311048757 0.126202341561402 -0.7982306009900898
P 6.301261106160376 7.7694262179862195 5.81232072402266 -0.8626575611159079 -0.35774072275815805 -0.25989533507289436
P 4.701257671410864 0.9373438128665018 12.515051862857081 0.03093448479532737 -0.05437291832392572 0.401446905396857
P 3.9834522301141675 5.9726651658807555 8.224568392181745 -0.45259334636368503 0.9981271869118489 -0.04590061918685643
P 4.677062690857914 1.1043306146128111 3.8913951032500638 0.10885176609809641 -0.2732858974471874 0.49133627145983766
P 0.1910124354510109 5.611046590192678 3.632227767627895 0.4613944895950827 0.4122223987458062 -1.0923578606626607
Ni 1.4902162333424556 1.0354208598733967 2.6195507299429357 -0.5047160352008534 0.8128064419217356 0.17740174725335253
Ni 1.9206364700370235 6.42735244561689 4.85425083864898 0.0996256195141381 0.6808036916284727 -0.8970820613423648
Ni 5.98000653190855 5.602867497734718 9.255083598142582 -0.10211778980837251 0.033772211354438614 -0.4354841974872242
Ni 8.538774354265783 2.1388597011895802 10.310595479842224 0.42125751236488096 0.8827188506421573 -0.23549530896197507
Ni 2.1086745262703936 5.366529558506218 6.934160721807037 1.0924277946686478 -1.2009214060963769 0.4744145560038346
Ni 0.392898199653126 8.975031652538277 9.063310903436667 0.5336203769400294 0.234075545796313 0.33255573885209827
Ni 1.5094749334251836 0.995011819381761 11.414570285917494 -0.10961384107510155 0.7391114262304304 -0.2060124690115097
Ni 4.103247109627825 6.907856111899842 1.6532269872793561 0.7297870635057109 0.5811114805424573 -0.9940553308353202
Ni 5.54760457677703 7.846136737118357 8.077015042053057 -0.2544893335659746 -0.23784246903791295 -0.10392861776486619
Ni 5.466291066184521 3.0780951543822623 4.455018346246474 -0.31862344504172224 -0.0719284107091858 1.5709841407549976
Ni 0.8054379313597545 7.466268336188181 6.95797016804589 -0.03587511663005435 -0.14348324012903674 0.10475497032090346
Ni 5.186778688463733 4.593632344662298 7.06715925079743 -0.3182213245072971 -0.19215165186901745 -0.04181822158736669
Ni 8.196000119350888 6.955651557474657 9.253764854600902 0.3270360945854497 0.23122110706665341 -0.14915920746789152
Ni 4.437373845908753 0.3444803143328872 10.294537255035172 0.01620052101926242 -0.6364529334272394 0.3266586566413729
Ni 8.080718153186831 7.261556821651196 4.603231068146001 -0.3468510724288478 -0.781587336006454 0.269699979868142
Ni 7.345987034876364 6.249529247144892 6.930680103606866 -0.4276816707236699 -0.8725704493542454 0.09704834570526513
Ni 2.394528402989424 5.502502466714253 2.5312318446758066 -0.41293922230717267 -1.3161572213439463 -0.27511292335359716
Ni 2.5549755338937965 5.045536210775625 11.321848382595903 -0.9254400436597675 0.602133591320079 -0.0020861931050673746
Ni 1.2734252441511498 3.5863699022157527 3.6652134710109356 -0.43274828661329984 -0.5260284235253844 0.04423582988992382
Ni 3.624923333625517 2.613021868474292 2.629965561110218 -0.3267944108882888 0.39710559770902576 -0.011004835750935886
Ni 1.075559666032721 3.382433059431394 8.25493102097915 -0.9894047194371863 -0.17214538395041964 -0.8296847057343131
Ni 3.8076557891345058 2.6411352468457574 6.989874934099685 -0.9311738608197512 0.04230416008484972 -0.3022684007224665
Ni 4.128640129054022 6.809463791505252 6.155219266730419 0.16520211986336708 -0.10388876566586625 -0.48481184007775857
Ni 0.8476368239123996 7.211581485795735 11.234004208972534 -0.04739622989577644 0.11511137385456305 -0.06971289111510576
P 0.09564764035941511 5.512329988599312 7.940865580747913 1.3315036218930294 -0.34538631495786326 0.3816396408629427
P 8.243363189994005 1.6251712588987837 8.005229093236743 1.8497097211605174 0.859608489876939 -0.4562952206953045
P 1.7760070553839467 3.1933771205463177 10.397753258261524 -0.322681931381812 -1.3959948595978797 -0.10702731129484794
P 4.082790370671849 6.161360792322749 3.757104854151222 -0.2929090709947536 -0.19608106883041068 0.4294469901542088
P 6.945328605980361 4.000305844639324 10.504489514056784 -0.27010030063035423 -1.048902103471871 -0.913562318385575
P 6.3661623849705045 7.700138135181568 10.142237689249988 -1.0601846183642258 -0.12287430562943354 0.5680916712440216
P 2.4592765490112423 8.371057919822233 5.787522220127548 -0.2699722596929221 0.9017740675013954 0.5489456944431901
P 6.938824966382732 3.9148487409513724 1.5571568805804277 0.1325575943554685 0.08759645626374592 0.20912941737393662
Ni 5.383221032431988 2.8073383690283635 0.34824467858198543 -0.1096423803201918 -0.06367568378209033 0.33691401582079394
Ni 1.2816313600423401 1.0445547803055228 6.942229018188749 0.07207470647906297 0.5649251005905819 -0.0338683706126707
Ni 6.849044113377799 0.6193437607568116 9.214661946715436 -0.8231201651429179 -0.22181009816539865 0.29767229671135187
Ni 2.521241281410253 1.516185752677584 9.002665815360444 0.4576550771573086 0.5843873230802517 1.093760654547458
Ni 6.377025805129424 1.9636938069853114 2.6258787172245617 0.5155534921359896 0.09941401772396427 -1.3331894942358846
Ni 4.091987345781515 6.732879381728192 10.357424387288471 0.3286072957273115 0.9296674514775537 0.24112113978918473
Ni 7.9859469728452135 7.175234968099848 0.41650947404828337 0.4395583675565978 -0.18807053982110836 -0.5659532847447801
Ni 7.494642941080881 3.8934281662101533 8.195155186671862 0.6398830421547109 -0.3121620056870946 0.1147485911985056
Ni 2.959804579318472 8.242507447941685 12.332284276884893 1.1074216969743185 0.28485509034202555 0.276426242848382
Ni 0.08570211614924679 4.66673073155254 10.200009285592634 -0.07180448353681183 0.2718820751211253 0.0885829885467313
Ni 8.489222385530944 2.3422921065536246 5.710541466663099 0.5973405408068099 0.1700010839139072 0.22465785202683888
Ni 3.683780371202946 2.619858797081771 11.38833503615559 -0.05040776302859061 -0.13912213494686362 -0.4616230606661211
Ni 0.9977592017602605 3.386396496305295 12.505664822933689 0.534659359727505 -0.14860127808189247 0.24148649354840349
Ni 3.0905169258575107 8.412944241330504 8.07249312089238 0.23252697036227052 -0.5113106576992356 -0.667821677546508
Ni 5.531633727737425 7.862431867356737 3.6748248054301453 0.10393607396403391 0.19507859570782532 0.25012488594969184
Ni 3.078743716779809 8.406746867309495 3.580164421164775 0.25507580219706394 -0.3465106583702936 0.8256151636506297
Ni 3.2489012680252394 4.150574149026633 9.164431689806497 0.4424917391533089 0.18560099523469323 -0.7810144942221194
Ni 7.175946585174935 6.06128401125675 11.381373799755249 0.4959267190439975 -0.02287767592912189 0.37146732831563123
Ni 0.5175590987106039 8.941117243833194 0.4965060426613282 0.4589221167951903 0.04017220134351146 -0.4028049620866482
Ni 4.460064522011836 0.4941919359956346 1.7577356113952631 0.6884689214832144 -0.840611894169778 -0.812151581946556
Ni 6.061247980012442 5.623702564755929 0.3854217164591765 -0.948576372566915 0.19188708535372112 0.06994557595120213
Ni 7.96710263207203 8.601027336619259 11.4163367176697 -0.3014194224586099 1.0135566340930415 0.013648186911053916
Ni 0.11889950309259821 4.861920989781086 5.647892140622233 -0.6273656264139905 -0.5061779644583605 1.086503972985045
Ni 7.9634184373415176 8.684863034313342 2.6249554165891644 -0.5904468990107702 0.8258964423364744 -0.40910442194211477
P 8.451056289997492 1.6754078212754784 3.511885213200754 0.5625393739672248 -0.24415786973297948 0.9531290249346037
P 1.8843890382629838 3.382685278141551 1.5080075610007326 -0.5984435440630016 -0.2138445634614188 0.13024848660631763
P 4.758412232694731 1.155909340839986 8.298859413258587 -0.5519101763881528 -0.45794201227010817 -0.5842999055727679
P 8.66658618563801 1.5301298442248537 12.491848642303713 -1.0953873915176038 -0.14969219715322607 -0.5203622263785425
P 6.232738687297275 7.810204578732015 1.5633272311682052 -0.08098409315355086 -0.019956131406952727 -0.8252112433439917
P 1.8111645420176634 3.2953635575606515 6.046756213551687 -0.002413237427182941 -0.45650116605852353 -0.25399722442090444
P 6.903793589104094 3.937548424865533 5.988957593775812 0.5090748263901813 0.4664513352926999 -0.9946073466840484
P 2.3168090090166564 8.401765547783887 10.151848122888092 0.31521647624270227 0.03736687068423242 -0.5559717480520361
