# total energy = -381160.40872892254 ev
CRYSTAL
PRIMVEC
9.30647161978876 0.00000000000000 0.00000000000000
0.00000000000000 9.30647161978876 0.00000000000000
0.00000000000000 0.00000000000000 13.62096192813660
PRIMCOORD
 96 1
Ni 6.486238595582098 1.2657825379128165 7.65936683076053 -0.051051567260176595 1.8809331979511734 -0.8510122635674957
Ni 2.6939071701514683 9.287495918109656 10.694471593150677 1.5940299668308677 1.1718779676761755 -1.174940665761899
Ni 6.07399912010301 3.733700653001555 3.2263015725757187 0.6763628822482997 -0.17496099902234383 -0.2164884288421691
Ni 7.0894282597436815 0.6536577301624774 9.817308705252662 -1.5565121723910678 0.37648637879677743 1.4172429703433786
Ni 0.4062414543948748 0.7361856609158963 10.688164597202235 -0.2792981650795383 -0.9445492536853926 -0.5261713768611519
Ni 6.621871115801354 7.652842063371637 1.9689646578342328 0.9947181612302998 -0.5753529807921252 -0.09177449890083549
Ni 2.846403017297945 7.4916167456634986 5.264066184590335 2.029387923152873 -3.8539358003357824 0.9138901340386391
Ni 7.55114093938673 6.139256100463751 0.49937131783896055 1.937893160275985 -0.71160602172131 0.02226498204578746
Ni 8.624819286112096 6.9931155829391605 8.161231352398499 2.0431242989023586 -0.0730506972390871 0.9209951205145364
Ni 5.383747412120158 8.297231478254414 4.776966380485497 -0.13662662221851954 -0.1160634533551872 -0.30899106415828076
Ni 0.017221626092063635 7.817119903834813 2.477775530034274 -0.018937203224135127 1.3834825860634818 1.1202946962822449
Ni 1.5209753015283134 3.745082468030247 7.4178127015886535 -1.5742802950077663 0.357546604469481 0.3499317682367006
Ni 3.1648704827777703 0.11909771174707696 7.3928043505297 -0.6484779829125735 0.9583895020025945 -0.5171010391287675
Ni 8.279521262392109 7.933999883348581 10.567306100987924 1.1042121888980856 -1.1988467829555352 -1.1952978892620125
Ni 2.409464165624134 5.328411130713289 0.7049028865598506 -2.922050258160987 0.43167870769820493 -0.3612621056478552
Ni 1.075241833990141 1.216700205565049 7.1299197879598175 -0.8735299850540374 1.543022879655381 0.5444184959967978
Ni 6.93413116458115 2.03759616487478 1.3255570757278479 -0.1013765407669738 1.954022975958312 -1.1836273949026195
Ni 8.474510459841941 2.536953523006019 8.585034119106652 0.6165819055349253 0.05557773726530428 0.7104945338246861
Ni 3.7573577043530957 4.246645459981437 8.08722814982683 1.073533528867306 3.9095251075653112 -0.454546613435314
Ni 2.367687413650465 0.6349200798118906 12.738936864871473 -0.526933194727841 0.12703409343407798 1.9380224867649976
Ni 1.6044450472293232 5.880387280481669 3.0059689910816223 -0.4701606658234871 1.2373716785036109 0.293985591888384
Ni 6.24876535430072 6.344352126303739 11.499020734718874 0.18198422441771236 -0.7919493959670685 -0.9280288874328663
Ni 4.634790479933719 2.253953021609876 0.5298974760365168 1.3841934960875772 -0.7212818542481771 0.5568955454178861
Ni 1.0247356114548105 4.337346334282032 4.798774235887569 0.5475506138678764 -0.9358473550360206 0.8550218989475211
P 8.481341410153519 0.1397497033498321 8.428297312754474 1.9128318464319833 -0.6005428497941915 -1.3429103210680742
Ni 4.489711890823111 8.71634843640415 9.054166848727114 0.89047432621786 -0.32503911876007896 1.0945890639860245
P 3.6331814509370433 3.798920407475039 1.6266428438004068 1.165203383869477 0.8151533448873572 2.1491329391247054
Ni 2.9076489083067916 0.2944604907880736 4.964676986329493 0.15143669064815854 1.563156931401095 -0.632783197885136
P 8.968069886032973 4.75385748032381 8.357331742582941 -0.2627862834674442 0.303215080906452 0.0600026058058773
P 8.608011798015761 4.1016599355889705 1.6250626048863661 -0.18042922122576666 -0.7570831802175025 -1.0574775038457078
P 3.740745652164858 8.629016504900273 2.400259134352769 3.2651182093983184 -0.4523215807595371 0.47737955216942946
Ni 5.757402255457826 3.653432333604609 11.471955653388996 -2.6129653487373194 0.8646967030331236 -1.7917241457846689
Ni 2.352592316367932 0.8470201563391996 2.610893441569351 -2.518353894608321 -1.6284344124526666 -2.8212794692988123
Ni 4.324661613199361 7.451608223334517 7.024384397587485 1.4076841230103498 -0.7878446297700754 0.7684119749667605
Ni 5.268998614651828 5.5764937498627845 5.912409919346938 -3.3444169444296463 0.4977568302742008 -2.3394470235643516
Ni 3.1258856723483435 2.949174385541478 11.693895462565393 -1.0319101968995648 -0.4053423837965213 -0.9573893428728545
Ni 2.43365168586908 2.7921742060369583 0.27250093989543195 -2.4090362446173996 -0.6730513013765634 0.055120080902595396
Ni 6.3213279150355595 1.6044543537011373 4.951301725038213 1.2399970319415998 -0.6234367236732297 -0.6079244869702433
Ni 5.977658523883046 0.4128546332660017 2.418537975642919 -3.723045823490724 0.4065212345959709 2.214778602148973
Ni 5.6677623189440425 6.357939575152381 3.462557527343806 0.4374426067651757 -1.5814948104783344 1.5201665438824983
Ni 1.3355903829906708 8.491038753783853 8.83170959971785 -0.12359704272807101 0.3314193112548099 2.742416279143006
Ni 6.901967997991487 6.48296271750352 6.981083245530661 -0.12983762432114412 -1.488779030710152 -0.4722669135332125
Ni 8.822153714459093 5.967002613655858 11.983463541120773 0.08626719592936112 0.8379731709953503 -0.7658344440475714
Ni 2.091629540227669 6.460106022727995 7.611652549769441 0.5076771747117064 -1.0111508528650266 -0.2282337423035553
Ni 5.874068186119868 4.649150365942935 1.0735443335312422 0.6147024291240253 -1.0179935868184726 0.27599249774507306
Ni 6.557181830221276 7.430045128141158 9.307611856935916 -1.624840267343505 -0.4249763559773649 -1.2044749277755902
Ni 4.957129437688226 3.3339783821124844 5.139883416644013 -0.8151183778843639 0.6387365872550935 1.7746630765373241
Ni 9.125228275558333 1.2860613399958247 12.962933404318795 2.2039588858256494 2.6009986632937463 -0.23546522705498804
Ni 4.443021321731577 2.4205947059138433 7.468891272140554 0.6175429838966139 -3.070764921892292 -1.0298646272244458
Ni 5.381104374124943 8.983807129870682 0.44727461927059364 -1.0519987401193236 -0.3826223164911862 -1.2952376975824595
Ni 2.6763551643100025 4.587308860737983 9.95768659544995 0.8733993730134442 -0.6797536530974034 1.6602482145291537
Ni 4.275393151415311 6.225080383533737 1.6201590248874964 0.03451320328552121 1.678050532817897 0.14927310733793647
Ni 2.1673842207947582 7.656341296773754 1.4076587700721792 0.7594848476804598 0.6920409551051888 0.26610789164150944
Ni 7.578166933534988 4.098765622854773 12.69270696613474 0.5820581607264427 2.473108135396644 2.8856107843870302
Ni 6.969225869792266 8.632171398845266 6.9264775221612025 0.28531686046979254 -0.3050037973757586 -0.5186606703064036
Ni 1.630335651816257 3.5331368789350526 2.747566425337429 0.266904676511192 0.3693919338438412 -2.640120311885556
P 2.832489841935807 4.833874524981774 6.037818349631182 0.9063434320396326 0.6433977401761887 -0.23015949857135842
Ni 8.210699903326553 2.6830558240161824 11.131704529333813 0.6571657404945586 -1.87589537841695 -0.9278635654995955
P 2.0860642700828143 5.713894499726727 12.040808159145133 -0.21319407436161347 0.3391441907028933 -0.10191235866578578
Ni 1.0398027893219008 7.734087562309068 11.44749266157835 1.3294521386806393 0.21879367993657803 1.3054084674678743
P 1.0705792916112575 2.711124143007625 10.513148949559907 0.05605956199772926 0.8632226895907587 0.7641349448579614
P 4.952904299484608 5.957407641215481 9.481551676436531 -0.3665086987587753 -0.10009741694423406 -0.0657572489014674
P 4.906660441040152 0.5924546489239756 6.112011404227859 -0.6672521781962831 -0.09362723583885811 0.789399375851705
Ni 8.64828090155554 0.6868399554157888 5.364452304107904 0.9296360840189861 1.2819054992499277 1.6903969701983919
Ni 6.088331086696783 2.9455262485903355 9.178662314126392 -0.4119478049281809 0.5030669296332047 1.338554872312856
Ni 7.354309060517697 4.999734465653353 5.000445480099954 -0.18649548202450464 -0.14692183349694052 -0.18552437636048694
Ni 4.819765913711539 1.3212677228687113 11.99579089368578 -0.7247430733239003 1.0992643579745067 -0.23818673975120913
Ni 6.315771951362518 4.16190072764189 7.196907772077989 1.146767545761793 -1.2099637188043033 0.36682828688172303
Ni 0.5895761571918625 4.216185377733761 13.014775105559455 0.6894904207691932 -0.5321070256192965 0.5640092736445319
Ni 7.550619776965139 4.679610448190611 10.389252820945458 0.8120358823042982 1.316306859547933 -2.652070799379213
Ni 8.083768934253515 9.229712034615668 0.6705629362128602 -1.7434288011133912 -1.845517023235409 1.946444649390422
Ni 4.160569902172468 4.5659039755654645 13.12589437902027 0.4962792172874098 0.5143026504480239 -1.5430658170781748
Ni 9.360077091788122 6.230878315473946 5.387894375960538 0.3872104500825009 0.6169084356364085 0.7333110174985694
Ni 0.29121904665520915 7.208392888943817 0.2557921004003274 0.054826718031892666 0.2598709095928621 -1.467210560510757
Ni 7.930128391073899 7.96779168250572 4.942461507461962 -0.6856152540845031 -1.1680881616164398 -1.5423096556384406
Ni 7.903558414044533 0.6382657564290733 3.2573442399589596 0.9057780464544659 -1.0419927779465474 0.595285200939678
Ni 0.8924887856815369 8.311461073658233 6.7669487742647805 -0.9464809234904668 -0.7469689746016361 -3.559140568061909
Ni 3.583056793746092 4.681425210194368 3.7412016692837513 0.38288636878585025 0.12603727673844745 0.1171955100771014
Ni 9.099458655104982 1.8422905473832656 1.8548477698020829 2.317504714965305 2.2436520906502135 0.1496564588192842
Ni 3.4525707524400535 7.578520579463927 12.882052719076478 0.007877088755231595 -0.7814664941578735 -0.04913609540501861
Ni 7.6202787184939655 9.325457016639527 12.010337839778462 -0.7205709442240816 0.8520754147246873 1.0652080397207462
Ni 1.0857395341964895 6.025903273767541 9.81627289493975 -2.7438872072615776 0.9187343495048178 -0.4727813912757858
Ni 2.6372121438597356 2.5014586395068945 5.674057216479126 0.8843674419891736 0.9640173897123334 0.8750279097558027
Ni 2.561857641580654 2.2618821355955223 9.072923112021329 0.24611036547366 -0.8605533702887115 -0.04629194108800414
Ni 5.50506657868927 8.649611727024961 11.752561599587361 -0.46447467118230323 -2.7263481699365495 -1.5935849088736491
Ni 3.9248276646485216 1.96244640497561 3.4028434815955664 2.4635112357368283 2.05719903182787 0.5283645278577287
Ni 3.234026874828635 7.086775915276652 10.410447379854977 0.4992436992323724 -1.3490215761721347 -0.44393361380615803
Ni 8.54482085439776 3.1771084932133626 6.3106329176267515 0.3378411556207536 0.615403826066424 2.2855998958369086
P 5.726253494295904 6.760686449381047 13.44273228128544 -2.493392339566977 1.1753749250858403 1.1266103540876273
Ni 8.432715094924644 2.8963229321089847 4.2602422153018935 -1.378238564055723 -0.06678311906282046 -3.2463944077365703
P 4.555266678281904 1.4264494673121066 9.775029403801032 -0.18704235566691013 0.47860185461230476 -0.041632073718489586
Ni 8.394688851092075 5.80096585001981 2.860810366313413 -0.8489934333652541 -0.7370889964837628 0.8643321206048534
P 1.1276186573601135 7.943380806937233 4.449968602940832 -3.2894369886493413 0.5132379566289353 -1.209113454988866
P 0.8762257261863295 0.25253483526537884 1.0033456166371941 1.3565456524633217 -1.2109157983049275 -1.1153946878774663
P 6.556576909553357 2.348413710523384 12.775236758182519 0.2686239731951438 -3.134010717225815 1.7916475269104628
Ni 1.1826292122534874 1.9017589022756118 4.100032233668677 -1.5618698371585553 -1.1192369444416919 1.8470334598799352
