# total energy = -381171.2343258763 ev
CRYSTAL
PRIMVEC
9.19260208036154 0.00000000000000 0.00000000000000

0.00000000000000 9.19260208036154 0.00000000000000

0.00000000000000 0.00000000000000 13.45430234706247

PRIMCOORD
 96 1
Ni 4.081331380424115 4.1440708882204005 3.0128219474120392 -1.1576625954077417 -0.9465629416813116 0.41798835469530593
Ni 2.9998309624424118 2.058471760043765 7.289823374304815 -1.3295662956610006 2.4053274283072446 1.497206849762531
Ni 4.421531190610916 7.902466164778803 12.952846702969179 -0.009498169298422352 0.01985714393524322 0.2819726265879079
Ni 6.483385828144649 5.946326448806575 12.021701400513749 -0.40417484585098135 0.7954892907995267 -1.2372091847838176
Ni 1.302793922916497 6.20634838544038 6.143880059399404 -1.2813532262908836 -0.21059854572029538 -1.4428064206347797
Ni 6.15046655864278 0.8200931562453495 12.770755967990143 1.22139021547369 0.08801143231397746 0.4321939567717266
Ni 3.5554410123640614 9.152283123090173 8.229498492039976 0.07426991435816886 -0.3437145836823951 1.7704852910105509
Ni 5.077533645608496 3.759728203830265 6.866793624924106 0.12693484885205233 -0.8209082450932635 -1.08050790330261
Ni 4.851892039986868 5.867067835441071 0.9334287447611587 0.4457485555277097 0.48387724407863114 0.1964417946039391
Ni 0.6867553853099161 1.3111040350114191 6.299869320614812 -0.25745227284904043 0.11732200835263665 -0.9282003800137241
Ni 0.8789276467651712 8.512735425448689 7.583005783681995 0.3938325833847089 -1.7273159547119286 -0.6282274601936535
Ni 0.04012478792381013 2.911958881120113 7.76607920780146 0.15480586423070758 0.9364981012461421 -1.6703148547365363
Ni 5.494546837062074 1.888491358774739 2.6369355374866372 -0.15553322931503535 -1.5668906874119144 1.543329869372839
Ni 8.920169925748606 1.9487029010554227 3.6943632889385043 0.3169861665486154 0.6300352028263537 -0.636980009575303
Ni 6.9685161994913365 3.89210167082902 8.590908392532766 -0.10835117231259403 1.3137735516031182 -0.7245188731282362
Ni 4.185171011203138 1.7229050212019212 11.964157551297165 0.670794901242219 -0.2585725024964128 -0.8036844250158093
Ni 2.080717856581056 7.723348317246112 0.9244962935193051 -0.752716932829007 -1.696117674732253 0.09328964999378127
Ni 1.5837841844269795 3.3958114808061874 9.571834391921415 0.17960415422131004 0.09346011413337453 -0.3955163988450349
Ni 4.5290754399455295 5.542642530071622 5.463213853571432 -0.17950362408770376 0.3139036709685497 0.28335870830215715
Ni 2.7303130680718217 9.015322547755837 10.989850225258454 1.9391537721559637 0.03451551727836637 -0.11804320278937733
Ni 8.354880066052672 6.441660608234417 4.939719996820167 1.8810126450388571 0.8995613761207927 1.6176815448115365
Ni 8.324103234975462 0.33785201966794753 8.72126684120054 -0.9876062327758668 -0.34044311201997496 -0.09091780732749503
Ni 6.8670850304035405 8.114116630346812 10.87351141371011 0.38873639980872404 0.4769319231090496 0.39557939087248645
Ni 0.6009847327762228 3.7328490359480178 12.002959523811175 -0.5669177055405785 0.6454191414815916 -0.44051558926354456
P 3.155884571870944 1.9213824882831796 10.050323108413478 0.2521971950976883 -0.02137692301387931 -1.7774365255174034
Ni 8.811301941744004 8.325151191589203 3.3877532460026383 -0.6172059122721694 0.04694217307749335 0.9596177179827409
P 6.520064309625554 6.525019122036133 5.832251775100023 -0.7328932132348603 0.00436547605754732 0.637450007233186
Ni 5.229321887767068 8.182592321713043 6.344469986391519 -0.7547663591588679 -0.5195518146621051 0.2673944716634169
P 7.05591026551614 1.848264532970117 8.07364436207213 -1.6951131447271386 -0.758115735247075 0.9942378791597717
P 2.808735154666709 5.68484288847466 1.8585777130135828 -0.8447853088211773 0.16917498846818604 0.46133921087711516
P 8.298740846402575 4.191578254709953 2.4679626453831016 0.5644288776804538 -0.8153688033322731 -0.38985457257356726
Ni 2.069447726682412 7.464962663746042 9.562443229846002 0.1682154527683942 0.11294187700707001 -1.6972625869699736
Ni 7.936782147577856 4.889793137517137 6.7102390186933905 0.15049309578796663 0.36060570301077893 0.28034588961776236
Ni 3.7007668554045696 4.617407151361573 8.92320256510714 -2.5070078734678827 1.1961188425014109 -1.2757302236771513
Ni 7.030704151175127 4.167521215603305 4.585360821965438 0.06287992735367234 0.6741175378575487 -0.8907815730456335
Ni 4.902570854123267 2.695390373549025 8.803768604507514 -0.14759623385614581 -2.9720078210260366 1.1216830919893392
Ni 7.418503253870229 6.18771498143993 3.0149748547711446 -1.6264096687131537 -0.698585698202242 -2.9006653647273075
Ni 3.771513119433904 6.484966955667135 11.019692168724985 0.7925196666482416 -0.09373573639226437 1.2567074027177454
Ni 7.599799748047274 9.136775203727193 6.256788191928031 0.6419928894088621 -0.9966876262518447 0.858148874612277
Ni 0.7345697847020914 4.917904114050623 0.5908857403564427 0.11553843408965261 -0.03393470507423188 1.2246146359482586
Ni 7.465532605062287 4.6655304221767455 0.14772327360948564 0.7207439794668361 1.1968603486531257 0.9744254724195348
Ni 0.5442498325246313 5.717200847074356 3.1818214980610127 -0.8181126846259974 0.03628160803985364 -1.1531683070818142
Ni 0.936312463969319 2.2590727181581287 1.413320252299333 -0.513529005506793 -0.3410324088645417 -0.2741958108559665
Ni 7.5728746171556525 7.246482094984972 8.003305330305855 0.07716523362809291 -0.15285953913761416 -0.5392492930910325
Ni 2.149901378291655 1.660082779988762 4.2798676801573725 -0.23065315037832534 -1.2654136722424918 -0.2236697770819567
Ni 7.254268228773024 2.3366950483898985 6.0980678086955855 1.1983942687991491 1.1994563915150762 -0.4899643308129755
Ni 7.186537138158661 7.9752439938224935 13.14793393847897 0.6768143679634214 -0.6466877237813702 1.5785933205608234
Ni 5.034319224194528 1.3236059735613015 6.427093092043242 0.7603189135459809 -0.028174919772319215 -0.001213046471494685
Ni 1.1864615461894663 1.0593738252687865 9.096682589909946 2.002264327463203 0.16399472981882723 0.8375939332790606
Ni 7.234550097751334 3.3578828054702945 11.532691751175847 -0.8935622211145643 0.261248249556363 1.919093511070979
Ni 7.354283737172083 0.39953713602917984 1.88785339220462 -1.0194565445172443 -0.78463460747321 0.7310214501334443
Ni 2.7848711601994336 7.948888804247115 4.299725538727561 -1.0164923196825977 -0.6401792332388909 -0.063992957912193
Ni 5.925523590763645 9.041254877644967 8.901030009384849 0.00625035178508601 1.1546371783178568 -2.5269894587961317
Ni 8.790756476553574 0.5349542735087188 11.061037734177784 0.10442329801309756 1.52215349240554 0.4184069302899633
Ni 8.465053399523512 2.749203864924769 9.77849235541116 0.9644953577900164 -2.177191130813502 1.8095866278873867
Ni 2.438392802932067 3.3324560686842832 0.02053719184874435 1.5900943792218873 -0.03127464174356549 0.592933927098682
P 0.7487070871255209 8.583279452236775 5.279144870668913 0.39996389309342734 -0.6681417798900879 -0.04761040278911155
Ni 3.063388611805564 3.4956707149733734 5.348031471338952 0.27364302367629 0.7356229534611975 0.2853423143910892
P 9.077997707338996 6.059616074313009 12.205931253949078 0.17290334516236675 0.1453462614797045 0.7205748008788235
Ni 4.7589088720221175 7.219446652870851 9.237024204213876 -1.001376547087082 -0.0636646280384968 -0.20999665047023836
P 5.016742969409693 8.810447029769637 11.150185748640322 -2.3047998658041275 1.7396060849331911 -0.2700013131586447
P 6.722650869744899 6.347418053812802 9.755109134021941 -0.010921532008510223 -1.7881132885049593 -0.583238554187789
P 1.784274831318844 4.188268918034985 7.299618091602535 0.12310390514173637 0.5667953210301013 -0.36309530220185204
Ni 2.6563402007843924 0.5702281254231371 13.381783618314708 0.6510778824292658 -0.17976947615458072 2.7174274704081527
Ni 1.8744818335173707 5.456278035456809 10.528677612918166 -2.2731213037539235 0.3224235355141028 0.6122521678113196
Ni 6.11115899302565 3.904088823673907 2.2161120125559077 1.8843849039451999 2.601839414027487 -0.4490719634739879
Ni 1.7286503973737422 3.5833497516562987 3.119662043443035 -0.24843901360683662 0.49739739005225303 -0.611109055345812
Ni 0.5419241042502783 6.16206762220892 8.274072499271245 0.004229721810631425 -1.1236415012672907 0.9184325019936826
Ni 2.6740543445973506 6.036266865550729 13.025028851411376 -0.0011695948280689534 -1.19395783029435 -0.3615277006044161
Ni 7.589733848994244 2.5701963286145775 0.8935475607870337 0.20028662227132601 -1.436966674024551 0.5586459524500895
Ni 1.8437785432551594 1.782362770128862 11.773697871571207 -2.5133019340067104 1.0737399884511574 -1.1906907295073041
Ni 6.296895513908279 7.967329163608193 4.004767118668148 -0.2947286407019956 0.5580887943950388 0.28388372756769176
Ni 4.225544918637759 0.49935959978886607 3.946106368323762 0.5665526088916759 0.2011255732328536 0.6885995335238075
Ni 9.17225864696436 0.26406208515782903 0.510586524458698 0.3049845141020489 0.06978822443773142 -0.691293535416203
Ni 5.471767569616039 4.474057717724172 10.22280757443323 0.8894212023629973 1.1673278864116476 1.7791362818173295
Ni 5.0579901740224305 2.556719974265954 0.5625486258168343 -1.0031058710733627 0.4668850803960088 -0.8720125199682465
Ni 8.485130042018323 5.0496065211125085 10.28410476299534 0.12204435352897045 1.0347067858080954 -0.21218645903270553
Ni 4.777477927809443 6.322478524926162 3.4001172955243972 -0.2540280776588399 0.8018481431380191 -1.3817038968965043
Ni 3.39241021811247 3.924854911309337 11.351219678302993 0.4189178084881107 0.14222339958000668 0.3577119264027517
Ni 2.4379975210514457 5.6084891373016275 4.211412212515267 2.107068148744171 -0.09282222343905949 -0.06302210935849147
Ni 3.1106477780444948 6.786530260173674 7.235871993900947 1.0475957259556217 0.5606010192939312 0.9753266440775656
Ni 4.020347659585939 8.28499790659958 1.8944196677238707 1.073779840550157 0.5532268383170472 1.2120010609493062
Ni 1.4320419052777817 0.02925177842616239 2.4330353545593675 0.9454442546958362 1.2726451569939243 0.552058529040559
Ni 8.98255092207177 7.0142585864209055 1.2401408255778366 -0.4948278295528639 0.7287390818571708 -0.5944048552172537
Ni 5.357623032135237 5.824965718853967 7.6184717609755985 1.6460256431718683 0.7149546264785687 0.4540478194220245
Ni 6.430418056141397 1.434147011107137 10.410212552556155 0.0605268537404635 0.4551338533973517 0.3641574249177793
Ni 7.002032425927271 0.8976456227028702 4.315951400296971 -1.3451356108541672 0.8626513904683207 -1.2756798300551901
Ni 0.525837970229367 3.7060158310751454 5.299003648499288 0.09037710433267662 0.27803035411070826 0.4151513994671431
P 3.129078944803696 1.6200765766291383 2.066312130182879 0.07358291559347327 0.12288484715239481 0.23309518416091468
Ni 2.8792516036491707 0.19987750034680765 6.148642746430798 -0.4480972582655444 -1.4368347764323772 -1.8461749685343816
P 8.65702250447733 1.9275874945487461 12.596859518322402 0.11259683496282544 0.5903124303154349 0.4683835193184062
Ni 1.0075275506942742 8.152339468942703 12.306717102385257 -0.3006691745561467 -1.601670771205577 -0.2582475150568262
P 5.284909551304671 2.9186327100813005 4.86679784392704 -0.2549737294015609 -0.8961909169866631 -0.962093433216743
P 5.2237879414383706 4.382949840541904 12.896203728736337 -0.27435727613449523 -0.9472545684316976 -1.3064567062267305
P 6.18406551849559 7.693343664726395 1.6550810853086215 -0.16163934221277323 -0.17239272407453538 0.3328946102487557
Ni 8.91553685440365 7.738185176672222 10.239706334459884 1.9816024282384779 -3.1274677739009755 -1.4306116783408007
