# total energy = -340869.13434868865 ev
CRYSTAL
PRIMVEC
9.22628019227627 0.00000000000000 0.00000000000000

0.00000000000000 9.22628019227627 0.00000000000000

0.00000000000000 0.00000000000000 13.50359366809353

PRIMCOORD
 96 1
Ni 6.809373138881073 4.299446619792912 2.367355577496587 0.33930617020205434 0.13208348293252736 -0.025063884947163287
Ni 1.4478986200372126 0.6088689932088661 7.171029487220027 1.1751810639074793 -0.1252392063171843 -1.0057661915143452
Ni 2.0315531118142505 6.99301302197197 12.146577004767794 0.33868396323702316 -0.0304194928321218 -1.1103334713044748
Ni 8.98888810786618 1.6197196380638295 12.795357041298335 0.2417901408317513 -0.3773014184989051 0.9138189144810714
Ni 5.366927250501151 0.2072360949581083 6.5182655428559535 0.5085868310101693 -1.3435494973139699 0.29914373905055575
Ni 4.522870223537343 4.121351731162305 1.9629630988081035 0.14839147606393152 0.13486644499430323 0.21778477905608945
Ni 1.843207825770361 6.457971801095552 5.381425427364547 -2.055865143507795 -2.2859768195603536 -1.1573856875972715
Ni 5.896340440394578 8.380322659279182 11.427024939940159 -0.42886772061197104 -0.25584019116691425 -0.956802360021133
Ni 2.08627418027346 3.211944960833704 1.072236778202882 -0.586777420578983 -1.1166930949739156 -0.6703709263309229
Ni 5.9056497572172635 0.026209094448166787 9.232542176424387 -0.2862565986752425 0.501250445249756 -0.6908083682496683
Ni 5.956292809783879 6.709710859080637 6.733553412631858 -0.2577230100119239 2.292375009777213 -0.8143200503527847
Ni 4.011826557721186 2.393961401997653 3.457716460720759 -1.1446579556179577 -0.3453287222470504 0.912104502893126
Ni 2.1238435936549984 7.723060903268867 8.829108308259073 -0.6261376675441603 0.16936884964654703 -0.23002168744191354
Ni 6.027418204616462 2.8405779524790167 0.2457521246984248 1.0925139266245507 2.237390683121534 -2.2820353184141022
Ni 0.2951819214055933 6.737592678147192 0.13268405962211124 -0.27784034958708925 0.9191935485294234 1.9329514999999937
Ni 7.773390262305284 3.542550262823059 7.301285189867182 0.5675643379856419 2.1470287482975086 -0.17361579784835907
Ni 7.971469274065657 2.440535664951976 3.395033112362662 -0.3190924142583408 0.20203754352416173 0.25575534476259176
Ni 4.104338470289133 9.181154563037563 2.034222274705036 -1.0878394039670167 1.0720201775465732 0.9463719087164284
Ni 4.892152092544234 5.995679800384514 4.369168697391866 -2.059943941562859 0.25262117000898426 -1.9164964397677637
Ni 6.111266639982723 8.60690165088621 1.4230762355181337 1.5207360432327228 -0.8407563901674424 1.407310541721015
Ni 3.8341099465828785 6.001187889723606 7.858983387276272 -2.3394835332292416 0.9773655288844653 0.3373297632019739
Ni 3.991602551303619 1.201538483467019 8.052206607714764 -1.1048598497844133 0.1441851512920678 0.20943100777475543
Ni 9.151805765403312 2.623502029580975 5.526899879366527 0.12931414771750632 -0.4463219115326764 -0.038816972867197666
Ni 5.853918003575249 1.6392885785800972 2.0387726761489886 1.7793769370732258 -0.3151136321162509 2.381376316808286
P 5.958959204790575 1.6489300414935812 11.298038773462283 0.36357892670648995 -0.14886558748687267 -0.31964263033485596
P 1.0897620976327032 2.8728976123698633 3.565704535863901 -0.5114690376539708 0.2416163342580484 -0.04409184811289181
P 1.1185849972898558 8.505274173381878 5.497420991180046 -0.5095548513503934 -0.319652657637185 -0.6454728775376625
P 4.781519765467117 8.799546383549892 4.557854433178825 -3.2638820229983723 1.2466443620547885 -0.9599087668605985
P 6.8642602803856825 7.334902064768206 13.1853952730961 0.10750167982810518 -0.806212847864618 -0.2583403318809486
P 5.669484660378552 3.783466894016262 4.101838148327837 -0.6503410042632413 -0.33692815688818106 0.4072349728335438
P 4.231707269830423 8.077691439159382 8.028386197236262 1.2005064300461452 0.9438738248849229 0.1822585611250216
P 7.146584457565217 1.5704420749816108 6.732918644547219 0.9559392406898891 -1.0221356340113041 -0.28354485617103425
Ni 3.1378025723430265 5.134378855540034 0.2981887661553584 -0.5795904159122405 0.7888913258670349 -2.0016382638434305
Ni 1.357324226332262 0.18227531623452947 10.943933212920836 0.06729451148160023 0.24947388262925418 -0.7082113942174642
Ni 8.78175811513152 1.341049067883089 8.336768157867045 0.05806116580879033 -0.9361705427033941 -0.4496864571295352
Ni 7.954788159283284 0.8092591881843857 10.548454243630168 0.18234700707376983 -0.4069747771936217 0.8000411718362673
Ni 6.897936203480627 5.238654275490463 5.266928211469766 -0.14157548158336264 -1.8453406455585444 -0.33787200885868907
Ni 8.826293370139547 7.920936936862641 11.860948896612834 -1.0016303149691008 0.9520033959705926 -1.0066840753429245
Ni 4.984774720475781 6.460518254458348 10.048065086304433 -3.243826132788761 0.5476503726705342 -0.48399088683836
Ni 3.6771616923998374 8.985778851405085 9.997844597375556 0.3144302328959811 -1.291305452407589 0.03384548779453526
Ni 3.292056752678472 7.90220758785367 6.0087617432218625 2.0730557963544687 1.8153356145560218 0.9249877866136973
Ni 2.33492243435805 1.3002873615177561 12.988364366777805 -0.11504889604774379 -1.2442370381648764 1.4591164706487127
Ni 0.27308036694697974 3.3515385817724743 9.568376934087775 0.9939362887589527 -2.016703642816985 1.2549150867040129
Ni 7.421260048376064 8.54633112071681 7.322930966078976 0.444159613774035 1.5892803679610241 -0.761308788263076
Ni 8.928944964757179 4.576991583777054 4.157419106111005 0.7141113046416668 0.38166483767392334 -0.21001284842015444
Ni 4.0083759288889915 3.106737686572978 12.424251136676135 -1.0966865699450015 -0.43362323301908545 0.9191051025806751
Ni 0.2665786072195805 7.510459726316317 7.3040669133776275 0.9438157179534777 0.1636581724150149 0.362507290908866
Ni 2.047579160695324 4.672492811162196 2.8231015323347854 -0.24179194060396425 1.6810749214665177 0.08197473920159432
Ni 2.3308997761472567 3.973814282885248 4.947649091176673 0.7474274022952934 -0.690272036130224 2.119116852378589
Ni 8.352551555576229 7.034475925640102 5.034882648784998 2.061975627280907 1.1508273176534631 0.1365785425894035
Ni 6.762023868381552 5.91335370126775 11.19695011072747 1.5068924524814113 -0.4392590911486241 0.6406052650327161
Ni 6.364546486777907 7.665507366757561 4.157864735449495 1.7519535507549504 0.33895032952453236 -0.9319541906292015
Ni 6.981535529278789 0.2346446058452731 13.078001370404278 2.5516165133161928 1.986951865475849 -0.4391940422386436
Ni 0.12762344487756958 5.430007328912147 11.28042949488173 0.0033252077184910476 -0.029480268847304068 -0.061393572616132985
Ni 1.6789615838700318 0.9596069614408179 4.280315004962863 -0.2755700654956738 -0.6850048741940138 -0.41015086092875813
Ni 2.849739648816901 7.889226211471593 3.449857515161232 -0.29484305479267287 -0.8545210480517025 0.6586240702076399
P 5.251977024243641 4.948183292806041 12.707138116953969 0.6574429054153451 -1.1110580081753252 0.024761266105079935
P 3.5392472544756646 6.063289982422803 2.103185029435302 0.633758931534844 2.769294591591089 1.2798871832683183
P 3.971544617931452 2.033675156283247 1.199711679967622 -1.9567187776229202 0.821412695533508 -0.3389089347636357
P 8.013365812907889 2.8132866153516614 1.2368779049000507 0.4542298535258435 -0.17157048528355612 -1.4153118147589367
P 0.39049862318473616 6.430828084452997 3.266478735802824 3.0639134461880975 -0.2560898452838751 0.4391305359905599
P 2.663267297673909 6.196701995560583 10.268943159314098 0.06983707539779586 -0.14723062298661097 -0.1020565975531339
P 2.181692371135903 4.926806001350977 6.954553272541483 0.15590115417741537 -0.06332344264899417 -0.22117066480918682
P 0.644130913887378 9.059266173994464 0.365750048908057 0.11811647922947399 0.5691342535759231 -2.014887929764485
Ni 2.7460454845253723 4.231817985194023 9.378704908936747 0.8037273624386029 -0.897108543704926 -0.08492430874822149
Ni 6.130826354218692 1.591570256868576 4.611923203620826 -0.9955892509813433 -0.3998579636431823 0.15898904907411973
Ni 3.456192279215202 1.3432264700338854 5.67737036215095 0.17610231171563864 0.09220541579066702 -0.33476277380574604
Ni 5.2195005175876945 3.9054475458623608 10.688364325983228 0.3158803350789463 -0.02440156877281604 -1.4938747000655046
Ni 6.765843548425744 2.233903891353517 8.937691478481565 -1.5934082740864688 0.8419460396001694 1.036203682068596
Ni 5.789158742149655 6.364435771414306 1.5662957846147973 -2.2999389381674002 -1.3227320463479866 -1.3500443610096942
Ni 1.1205871001149523 3.1169327263044613 7.374771589828531 1.0607929413721862 0.11965888401592942 0.3332576500151293
Ni 6.880969074008956 7.183886308818056 9.014269604971439 1.9557003636607353 -0.9954984910397501 0.8500113331068071
Ni 0.46554334188875246 1.4261707299307484 2.143061012891837 -0.027940692274326072 0.686176783014928 -1.8429379496543228
Ni 0.8844459916050218 5.54361974452616 8.884595157983181 -0.4520151052627119 0.8533532529958465 -0.9688783173490604
Ni 3.4112602941542756 1.9780406860743387 10.160981840383828 0.09920267304410657 1.733989510077362 1.4254360476771322
Ni 1.5098530922516105 2.998153593722457 11.800723429326654 -0.3530556585776629 1.890045701775403 -0.7201346280176114
Ni 4.61541904122649 4.651041709464732 6.154708580775202 -1.5121750410365893 0.771572117862297 -0.8268397800863502
Ni 9.017148204425032 4.836499169774726 1.553386373219059 1.8513130610918958 -1.6203763180348805 1.3888307377492728
Ni 7.4688676547239865 3.25680313565223 11.603003319869948 0.6294626181523353 0.10841930654636812 -0.6051937183026416
Ni 8.37576487681099 0.45632444261300764 4.983852092445783 0.10109011987480655 -0.9041973322309073 0.46722780844740824
Ni 0.5508855120355817 8.420023343410017 2.3056437564540784 -0.4670948824139697 -1.8106613490088042 1.6397796622621568
Ni 2.5575987093981833 7.900242390149775 0.7475482897699075 0.08762319573662329 -0.021592124348478944 0.5048232502026789
Ni 4.430967245469194 6.931132359999972 12.680981612303512 -0.005445596495603524 0.5047178349730662 0.16371782200835677
Ni 4.776888172756524 0.7862608392806136 13.166125264061552 1.3367561285412206 0.9981600970323133 1.0624618444341767
Ni 7.701812779738002 5.196886904572432 13.297772289777946 -1.81565983066466 -0.07251796466406865 -0.2572589258913118
Ni 5.780605980311569 5.079639334520225 8.200422187593869 2.9371122947004316 -1.9297481625713475 1.8163198328461623
Ni 7.764809821626298 6.502543961224779 2.5257661971071754 -0.8380960697264599 1.4407004300353703 0.03320425466611056
Ni 5.240720962277659 2.685548764598372 6.642917202848897 1.2280658277216527 -1.3330755943658397 -0.15364552537401927
P 1.6185479004657315 1.5982962152072648 9.07324029813682 0.3648698776037716 0.025423068058794924 0.460315140487975
P 8.247796369050201 5.900381551165971 6.840164004126213 -1.3426694087018618 -1.3032718807408457 0.9248412337335039
P 7.378606954549234 0.3371190558811442 3.0591310028530865 0.2961633162659932 -1.2406930295673602 -0.5595674358230943
P 3.5149452321655046 8.981101127292993 12.065541662264996 -2.21732039473422 -2.8278833477685748 -0.8973576836012546
P 4.685557224066975 3.321064177941625 8.574727766224102 -0.9523867474519404 -0.6850503827199685 1.1598050956720412
P 0.8418325707834821 4.7308029026581 13.184382227519162 1.4737743297712038 -1.4681544124812649 -0.1999418373373976
P 9.016483912243434 8.118084094312715 9.475984963163727 -0.2329422035228182 0.5807384134737548 0.39999680321389175
P 8.080717659097777 4.733100246452796 9.543826724837546 -3.190598898033505 1.5286887224208963 0.4093440487567466
