# total energy = -340856.02244445967 ev
CRYSTAL
PRIMVEC
9.45036677086382 0.00000000000000 0.00000000000000

0.00000000000000 9.45036677086382 0.00000000000000

0.00000000000000 0.00000000000000 13.83156702686694

PRIMCOORD
 96 1
Ni 9.337000139587689 4.792545583609809 9.942794163547052 -0.4469582595650947 -1.2720576599215705 0.4261225537666661
Ni 4.894401636322628 1.510735626894717 0.8908577213842379 -1.0783726021271622 1.6962667987156075 -0.13564394659027607
Ni 4.233896604201237 6.158416538762569 10.445751186726092 -0.4744991452978408 0.9959872577507105 1.015843116134373
Ni 4.037092716861799 7.120114209222266 3.0668037179996883 -0.7431722265633653 -1.9437863858319688 -1.759152896716867
Ni 6.668358327998393 6.917073079835095 3.5114756043160145 0.34620803952821017 -0.05079368561309962 0.8247613002907667
Ni 5.829005105341643 7.299151407092404 6.305313039353408 -0.45373517327761204 -0.3396321860829054 0.22482368818074183
Ni 7.639232304561648 3.606439504566089 1.2644061476229358 1.125807398570358 -0.06393048010537376 1.3872963033826173
Ni 1.2118488780407246 5.943978267088179 5.609045929418336 0.38097835312986 -0.791308677059276 -1.1681398407899817
Ni 8.902888093065508 7.983083898359748 12.61401592525609 -0.05904358432671766 0.6149911640090376 -1.036171286168764
Ni 6.8970761038153965 0.509284043710791 0.5867364143935199 0.154208854076657 0.7705287641994473 -1.6465383211422289
Ni 6.961187391772694 6.903086537061393 13.128370090722349 -0.38309668502444344 0.6850886921570717 0.23388271305921657
Ni 8.618526557889341 5.021603572629414 12.827838033019098 -0.37005887800387877 -0.1185885337698861 0.35609933049999315
Ni 9.329298090695412 4.589712362290896 7.048165732128323 -0.27317559712156825 -1.1849021478499853 1.3746703870884907
Ni 6.934754716003743 1.9863725848680127 2.5689366623462693 -1.5990629012690847 -0.8655996744633672 0.5827369319610222
Ni 0.48640281576235184 0.3184027012066777 6.126775765883762 -0.954965049702078 -2.057174349237522 -0.20453279914218966
Ni 0.22149675059174082 2.229048552358501 10.087445257000708 0.7267271936334646 -0.1416096772554077 1.784370019412443
Ni 7.145771954918619 2.7457662545461807 10.264419439811725 -0.564641507911892 -0.09063472886943745 0.7704156356603505
Ni 6.254800829133513 0.4073401025872993 11.072736713060962 0.32843965980119566 1.6289887422942395 -1.8028601077968305
Ni 3.033511021014905 1.5873213989474804 10.059048795023394 -0.04215143655706934 0.23802476025204813 0.39666053975180715
Ni 7.879479527800217 1.1647293494801274 6.862891292210453 -0.23945840737478113 0.31795367266820723 1.2376084771047653
Ni 3.6132815700851166 9.304245168470354 8.415775554761058 -1.271515157154539 0.050829166836725365 -0.7826875110491681
Ni 8.835091162080005 6.68773157981332 0.894079351405559 0.48782337321057273 -0.1714092771153435 0.019138777711979943
Ni 3.6254158409779778 3.7118772462729845 11.638530169724211 -0.7794718323253479 0.047409342521898996 1.5918373300549231
Ni 1.862638933154435 3.108102765685742 8.551449744849348 -0.054044588450229504 1.1880612623042572 -0.4158898202950644
P 8.472008071968062 2.574657914370053 13.58439659267557 1.647146387039873 -1.2592569086124765 -2.0668352693660537
P 5.749272361164797 5.21515653381064 9.044212657427039 2.229167266770477 1.9895358241529417 -2.322106218293059
P 8.510830178531828 2.7773210290876635 8.534685739291056 -0.669891158481027 0.6241520045726993 -1.7225732978206205
P 4.768834613461687 1.5982554732644902 3.449302586576882 1.9047688669181906 -0.40931190996723055 -1.137574566408615
P 1.4424000250050901 0.9236760099587236 4.358464723297867 0.8416889292840407 0.4808253446261848 -0.591766132042826
P 7.213464931869995 8.321548783116626 7.604540008262821 0.6335355026701283 0.9743737932459929 0.5416812995712929
P 7.495539478295326 8.28635561738063 1.5996626328719257 -1.3365877212841561 -2.173165811704193 -0.7557174102182275
P 0.6387975397219341 0.23006917826067735 10.80887207830499 -0.2612155965462147 -1.424065906802483 -0.16555770343057294
Ni 9.196926803782398 0.44972121726496755 0.49495728773448433 1.1750931321793632 0.18321346883912318 -0.5400154818330958
Ni 5.684187685433382 6.550153140827125 1.2689215328508245 1.0014390248939011 2.8247304039618903 1.978649773368057
Ni 5.608499698220823 8.912262856870585 9.028582695877425 1.9154746833714689 -0.7409477081082207 0.371095032577877
Ni 3.532131270897421 2.5930577784108637 4.768654111456971 -0.4266028358371943 1.3159592464005272 -0.41734635023593286
Ni 6.310312283358333 2.83668823294199 7.971588472258443 1.6317282527125896 0.6371967535717994 0.3398769551038598
Ni 0.5215203785644335 2.3390697219338064 3.0700688197080086 -0.8852930391272366 -0.6916825433245055 -0.8421640691482464
Ni 6.424916880802048 2.5420541491205424 12.681333722647928 0.9310707595829836 0.6861752403530311 0.8382145975821952
Ni 8.865691449580849 9.258080126950395 8.969231557646557 -1.6416992478823726 -0.2935425908136945 0.04651614128366828
Ni 3.675190922592231 5.777415553313505 0.7965241605956538 -2.13221199499965 -0.9039862446613657 -0.5635372191041198
Ni 2.613678478635337 2.209193331839886 0.27745426212664004 -0.06329721739674907 -0.02740178905172055 -1.501017995978505
Ni 1.7023890643614055 8.331235409024087 12.889415677653675 -0.33056827610842426 0.1958483839943143 0.32999800542725105
Ni 7.067504017586317 4.929282939956234 6.805061663024559 -0.9800199357881767 0.42816375256641104 0.21300689805147183
Ni 3.3745369551580477 3.503591163345676 1.9413982895571662 0.005283616996442513 0.7491312723602775 1.9687137452012675
Ni 7.474219450932169 1.0218492547533589 4.572356763774744 0.020297831017087622 0.4680081382568585 0.6402846484685037
Ni 7.546722664553689 6.519864715428666 9.137105037287927 0.27500905078588117 0.17676334233840527 -1.1204286507569476
Ni 5.449024759500391 1.375642634360875 5.87155538158394 0.1897175885062281 -1.128980911202333 -0.5931151898715528
Ni 1.4520015976119027 0.6723435065353219 8.565502440190224 -0.10779658536070467 -0.04617881254890757 -0.8355560769134255
Ni 3.5231628728621214 8.609529808753825 11.309021397525873 -0.39910540174787396 -0.4056601721472562 -0.915689649141223
Ni 5.686021056580746 4.291487139108633 2.756617165635887 0.019510045008469624 0.8380140515356148 -1.4392930081648827
Ni 5.271282261873493 9.056966872377979 12.77233130397765 0.5878508561488199 -1.9163177480980547 2.3535027303264693
Ni 1.6128657402429667 7.676372245845873 1.7424038072076309 0.2476401718546251 -0.0036936468015033156 -0.41427053952408655
Ni 1.8905458661346686 7.723274415971474 6.778491011901219 0.40383648867495614 1.8705649673429718 1.486616990061827
Ni 2.6489850487721984 1.2308535655528305 6.29141249491703 -0.4477977247472546 -0.9664051732182194 1.0635753892133297
Ni 6.356930942481763 4.8618640236402895 13.919258997631543 -1.5787123626371908 -1.6754022965617728 -1.9839012515749834
P 5.065689533466796 1.8120322192671512 9.702913614537957 1.3464319610680875 -0.20857868707678917 -0.4183686208528601
P 2.1468114609958224 7.540088507102919 9.407028302160267 1.439759920498972 1.3722764329350174 -0.028054077923738784
P 4.7214221235321805 6.509554365316429 12.80046504575962 0.2332473934680628 1.2423930429776022 -0.8116921258116344
P 8.29598554108766 3.1232800546685575 5.589156687579461 -2.9872315799543263 0.21433975793028248 -1.353530776896398
P 3.8557874309743028 8.923461541456286 6.234412607930819 0.681748314929929 -1.201431512963576 0.15017659298881234
P 5.132002756874279 5.607195547610843 4.622482453995013 0.924429343007066 0.955590856211535 -0.5286627758244379
P 9.016698859703148 7.657405359800723 4.8956141183752395 0.031965754273319144 -0.00921071996499059 -0.32300331927697273
P 2.6969456599725654 4.0070594513652935 6.687880895607797 -0.7494290061063544 -0.44241383472752194 -0.647433086587827
Ni 3.363498926806909 6.652925879113625 5.178787742452315 0.06798999488672806 0.8352848255299098 1.0255752558204725
Ni 6.3887314265584605 5.320584825150797 11.127329591638752 0.8970308963894552 -2.9016087024771835 0.9292023389156772
Ni 2.4791903095727905 5.896726433393235 12.057171020857991 0.4887952502055388 0.9442702889923931 1.2617025419394916
Ni 5.739935398826676 3.620548902107399 4.903954067022397 1.0673759939063425 -1.3142412352681558 1.5896099833863009
Ni 5.236032393937065 9.08506281269299 2.14089175127052 2.7260496648595245 -1.0117653465205736 -0.5272499546373113
Ni 0.8922856717984992 3.8439744725505673 0.9480570111086403 -0.3336073200450642 0.04477987531885191 2.1054491250835095
Ni 3.6292526898740074 8.237147557770717 0.3605796879627837 0.24714420605481305 0.11156299438167239 0.7460814297903602
Ni 4.274334723477369 4.020942040104868 9.477624431773862 -1.938888948530351 -2.7641066196322464 -0.8251528793022305
Ni 3.9192088421596556 6.855399986496456 8.197886954190263 -0.04224553893277241 0.699917272529472 -0.30113840088308136
Ni 1.9543358416228416 1.248695857956041 12.086341467871229 -0.13518654733788332 -0.007817182051573635 0.3307690792653207
Ni 4.432751221123034 1.607441229734787 12.190659341119554 -1.3781367483705362 -0.27149563831598406 -0.438242991179284
Ni 5.161478450733184 8.514175608357428 4.458882430193012 -0.2924406159987673 1.926606274508256 0.7726316694750629
Ni 6.308649018812271 7.474380107166731 11.01943002939635 -0.4259253501541955 2.6922445433846214 -0.8299029923927063
Ni 4.249300701985788 2.4322786890804506 7.499987765919369 -2.7588489707777324 0.43817691382803897 0.7574598468306311
Ni 8.578816116852112 9.490058279292347 2.775857167279794 1.8318595803529742 0.48604494115391134 1.377754939551085
Ni 3.272340689242625 9.360389797266684 2.9675767573136556 -2.3841991309690616 1.4639239193396854 -0.08429464558402255
Ni 4.554122281151866 5.194195620383563 6.699651327381207 0.3623591953667759 -1.7279710717974242 0.7777988154982992
Ni 1.5781923446776176 8.178800993524202 4.157243734544626 -0.5887026626261539 -0.37387593775712386 0.6417815447290044
Ni 8.510130851393141 5.185132718680872 4.708888102126259 -0.7904843813857677 0.12890688497675865 -0.8404036348137139
Ni 0.6672308581295292 2.6320594419426695 6.275008548331493 2.086651789871348 -1.4342387335704267 0.8809787280225989
Ni 0.9069138944737795 3.5193449246995696 12.591484360876994 0.29703363468608845 -0.750061754594347 -1.8764581928989557
Ni 1.3294964935743936 5.801230477495757 8.434019487750675 1.0434757902499772 0.7174601665092418 -0.7460719167086636
Ni 1.4599588064061313 3.908662232878944 4.436820549040843 0.27871272488971355 0.43200806601316566 0.1282849351220436
Ni 8.281082312740276 0.871300187417901 11.926600973845431 0.8235135439265947 0.7370002934246984 0.8148522687071709
P -0.3684962601800345 6.6558176913357565 6.9388127034814655 -0.6260916447975733 1.070614298337982 0.8853308343437075
P 1.8309896549455624 9.92628720796406 1.0973803658780512 0.433904254594614 -1.740171470518358 0.26080473426104117
P 2.432930764385441 5.201746463408015 3.067758205040326 0.5795400222902793 0.8725437098813683 -0.503717675843326
P 7.702927776382431 5.437013343375136 2.330784585413735 0.2792691116138158 -0.13060227040131056 0.571985349871473
P 8.48249797904834 6.352167957645314 11.156611552979507 -0.8097748541842634 0.9874722783011639 0.197581307525021
P 2.1409711343511275 4.911053182516725 10.241998444723476 0.2453495760482355 -1.4287242315101008 -0.48326789262940645
P 1.3437381962500494 5.71729232012006 -0.0130915930435209 -0.8347832033031429 0.768496821371083 0.6842852224191699
P 4.437948922829478 3.693174970496526 13.884542130379195 0.5001096467770936 -0.9429577408285567 -0.8413677984991963
