# total energy = -340866.1604104234 ev
CRYSTAL
PRIMVEC
9.33686344656534 0.00000000000000 0.00000000000000

0.00000000000000 9.33686344656534 0.00000000000000

0.00000000000000 0.00000000000000 13.66544343866742

PRIMCOORD
 96 1
Ni 3.830728364808705 2.6246950408495175 4.294966555865188 -0.4764292724410181 0.46756462296153667 -1.3703632750727046
Ni 0.6043695735035796 0.748694141357315 1.298824940989367 1.4739872171129582 0.06044020756392817 -0.435867806078888
Ni 3.1492587071059344 0.7699943281045074 8.436060667241529 0.24887353004109397 1.555670907436695 1.9364751968825362
Ni 0.691479709082101 6.99621454071165 3.037868991631126 0.7168850107320621 -0.6500013615356354 -0.03962481348047369
Ni 4.849081395161041 4.553121495317747 5.684974372300312 -1.3359940535642152 -0.7559092145140595 -1.9770045244551502
Ni 0.13305870833102365 6.802063800685735 0.8115769834752591 1.1432178807373214 -0.08947079046832333 1.5602780671914032
Ni 1.1799087798314345 6.179939247513344 12.453523501382556 -0.5437165848337667 0.8136615908331793 2.3564376445850774
Ni 7.418772973016778 0.7197377265240761 1.6813963878992368 -0.9039710751527142 -0.6231934973141718 -0.06141105611762972
Ni 8.131250354468037 6.072630675082939 12.859783504727924 0.6219483120531611 -2.1311236470314783 -0.7035648965843884
Ni 4.746852076485281 1.8418270453242285 2.004379038140866 0.8110871452377838 -2.463631563364777 0.24836290895326257
Ni 7.4701070486473675 0.09261608399601119 9.683182726491284 0.32668153945950834 -0.0391041650903133 -0.9139675242437937
Ni 6.7207957406114085 6.636409168121546 9.212791542375406 -0.4513918698564161 -0.33992220651949845 0.4734264810589524
Ni 8.722133762303951 2.34939761997503 6.278574807420422 -0.8194802543974854 0.5272209011715887 0.17600692378835495
Ni 1.3804739450952928 1.6971243344979505 12.870320155209757 -0.0981156106275149 -0.09361566587463233 -1.7790617198256522
Ni 2.4690401891147853 4.332650137030168 13.662970382644499 -3.0393421846066366 -0.3699922864320015 -3.3996203290746676
Ni 0.7210579590257432 3.446768526293476 1.5497708881184669 0.6555397748553613 -0.8454471107748923 -2.439725189060824
Ni 5.49203649084559 3.78601412541349 2.7064000661365606 1.2210598287174648 0.721409638075293 0.6864940571450305
Ni 1.9457556731605492 2.3746818463860224 10.56677680566568 0.3565171347637021 -0.8148540684793837 -1.240996676850708
Ni 2.0023557398161755 4.6251927448252985 11.236192572564688 1.5966710039981404 -0.6206542758320859 0.04756335160126002
Ni 6.3264159624083405 2.456463433953926 6.072403789299414 -1.3533495141235272 0.21765288146391548 -0.7908124541491477
Ni 3.54542182624124 7.769605619764576 8.903856203298966 -0.6999362986928656 -0.9579063917185888 -0.055620674688097754
Ni 7.436942509425859 0.6463975972642149 4.6402381667007315 0.4753049290285879 0.4189314353348656 -0.3665575497188397
Ni 4.990422835120273 2.9083863020280973 8.376917238963173 -0.1540677005131024 -0.24751855867509634 -0.3050089395820812
Ni 0.7349801562197722 0.33510656752178947 9.377856085165158 0.3654249787762932 -1.1960481371644756 0.7925209521998222
P 1.8209778290850314 3.014023575888499 3.413764581124504 0.481673294448777 0.16707953939173806 -0.4815293126717449
P 6.634980628003051 2.6142844380251984 1.0745562803083792 -0.5330405931771595 0.5911056156406916 -0.34305766682468664
P 5.780190772786523 9.141032144109406 5.663451968201354 -0.6776558900281103 -0.5264878796603062 -1.4695044987512562
P 1.5846431396777048 7.479901418479395 5.273425969457461 -0.21947193695052525 0.13689041740286748 0.5886165306702508
P 8.892158046995299 7.87153615880771 8.476401519764178 0.5401944306131212 -0.38503709658026597 1.147455572967753
P 0.1222428856299551 4.22347419189585 13.015638165341974 0.14487883492498274 -0.36662491262166536 0.1528921921477625
P 3.966691771380667 5.625357565041514 0.5428779240500511 1.3460105572599528 1.3763043231474879 -0.9245126467494916
P 0.08596730348372622 4.343378193214153 7.215053815256009 -0.9126567758521701 0.03172715589995181 -0.2769211802069296
Ni 7.44318887112045 4.661681207459774 1.2409074428911295 0.435641806111011 0.18765659221214132 0.4500582386466571
Ni 1.5158958135831193 2.3091464013421685 5.508404012595394 1.4256229668769578 0.04710492390760274 -0.5408382348447073
Ni 2.7583522421321454 7.253501151856889 1.3958704330390617 -0.867866359010357 -0.30378226626383165 -0.6231163642193333
Ni 9.324118700864632 6.566756166265562 10.393718040330473 -2.5207763880068845 -3.7289043391540297 -3.676234776674456
Ni 5.973678595502548 6.479269755087202 12.508827611381665 -2.05319171044069 -0.25477035514150315 0.5200449522484398
Ni 3.93284564112223 7.293883086579024 6.133543438998255 0.17258709947352857 -0.09618779747718273 0.35057094448259624
Ni 5.1448825683245 1.2126718339216014 10.136711535090821 -0.7557410643673114 -1.2117187538221972 0.0636484300885807
Ni 1.9099768121535614 0.46532780302921617 3.7675896926303247 0.6452389071499856 0.17077729995829946 -0.250747092914723
Ni 1.8850100391022344 8.593695867728762 7.201046652603951 0.667821677546508 -1.5524094630766039 -1.010866231745072
Ni 7.495475306830036 8.824745892384012 7.159544294259469 -0.07373486779030526 0.8785199820694612 0.020702008434041765
Ni 2.8475379624710673 1.8510518664815625 0.9062322384639442 -0.6512306059570462 0.4704969661169832 0.5372656870021006
Ni 9.069642485638784 9.056682919073621 3.008324354396154 -0.2559412355211527 -0.40038298290871693 1.4648963105552837
Ni 9.322326023068875 1.9745225496643408 3.3779203620728793 -0.22129073532681887 -0.6983542989177264 0.12731382945802588
Ni 9.179910843804892 3.6140571099735905 10.772769489693465 -1.315996784506682 -0.7251356807766285 2.490263564130008
Ni 3.0376645143200474 7.389576600791085 3.666875746903792 0.24488292082446214 0.3086488503275136 1.0976584469399677
Ni 9.052443983035738 2.311023110909602 8.659627195785845 0.5245433543394257 0.02243313219253556 0.0900315480677998
Ni 4.088042986544503 5.2053574333407475 7.95531023305069 -0.4434281349246492 1.159354638398184 0.10969405949373366
Ni 5.035781318098339 0.12850231893347405 7.544322042019012 2.024926802057726 -0.3217717608627168 2.1172636012199346
Ni 6.000447383213152 1.3213435884258633 12.434993562041619 -0.5936831465598807 0.7252362109102349 0.3051459793805777
Ni 7.411536903789111 3.9456931653251566 8.774444473858688 -0.08633558727345131 2.134295102780924 -1.0945435554600698
Ni 1.8099323195413812 6.46955008016333 7.575097277865863 -0.6169058645332471 -2.1912146987861036 0.022388394997529183
Ni 4.552794705094562 3.40206362376178 11.168547930051766 2.236369183835555 3.363146145408034 -1.9339622006526949
Ni 8.565498539899664 8.780162369078072 13.433008102589277 -0.5681981149148989 0.4497497062673029 -0.9352243767400409
Ni 6.774874854116752 7.263006078919811 5.468732613187098 -0.1010366409290518 -0.4541244382962308 -0.5098687830463864
P 2.0220005006613486 6.771765678564735 10.416771690046641 3.1859387735536746 0.2740186618481539 -0.7180090970341763
P 4.0409011626342 2.571867067055797 6.3981473500837795 -0.4602940574420524 1.2741839622359539 1.3757073129934372
P 1.4002774326202982 1.1372579872740438 7.470652321476909 -3.033052752053499 3.7459826347925556 -1.1879622748325478
P 6.95031451964945 1.7129316444365807 7.963072901380858 0.7351902367991533 -0.1580274564917988 1.4266226117860656
P 7.696385936044117 2.894997239741035 4.284595167867651 -1.319985851061417 0.9037386474269339 0.6641254596418433
P 5.8784425876029465 5.765774655512309 6.934447453784294 2.256980175217687 1.8162884653875946 1.03266430145677
P 6.433537797568353 4.571384400362024 10.741708545822915 0.3159582395047333 1.461560047093199 -0.15812747240477282
P 3.192338995385225 4.06992947131654 9.51128546697791 -0.1051051545714706 -0.5921844505271672 -0.6071575268972318
Ni 8.153640153187963 6.193720458068228 7.258564532943551 0.3598927361041544 -0.1263136703282857 0.5922793242338187
Ni 0.9470567405169069 4.658161209912897 9.201284791773888 0.9189978875788495 0.23523357066015618 -2.5231919394269124
Ni 6.138791689982605 5.806931549906569 3.573937541116355 0.8274457891014653 0.890370196539828 -0.285805627180753
Ni 4.315563676789356 5.887648735033241 10.488501210349376 0.16893639009481876 0.0714895233995543 -0.19026986146527233
Ni 2.0491054154586568 5.063465118433861 4.191260145380633 -0.7700952762064543 -0.14867326897040847 0.5630481952828432
Ni 4.679635996007905 3.475348665526876 13.672959892924084 0.5674041582586938 -0.3864087801168119 0.10051984919363334
Ni 7.43928606216927 4.831219975248104 5.426547730119334 -0.7002854545021682 -1.8935732553126872 0.062981228818227
Ni 8.579102350047677 2.0173880900826817 13.63137537018063 -1.277077481733665 1.053617249559353 -0.7516031309395378
Ni 3.671758926524526 0.6212132752928818 5.745061757480498 -0.8108143511923713 -1.1517022640592487 -1.1395216628326568
Ni 2.1586828457243166 4.070433661946596 6.847152448308085 1.3527789863320379 0.37469611966557403 0.47989331973021865
Ni 9.036533967598393 4.377877903918959 3.2217099669587324 -0.9650350323435704 1.4297549867674602 1.533382785462456
Ni 7.18571552270482 7.18116847017079 1.0616275253928324 -1.320781607489835 0.7207213537590168 0.5574282779929045
Ni 7.102066562433002 2.4618881516587954 10.466322424744993 -0.085193246138892 -0.8967552741305653 0.8480963754722813
Ni 0.7266591434511325 8.204992902545593 11.394506563029795 1.180811265610063 4.787670222793858 2.429341788943971
Ni 9.077634840811534 6.282878167816591 4.984101778517525 0.5601163663480289 0.8065787158444689 0.3643692838182693
Ni 3.2513012885113017 9.352642818916916 13.201159776103104 0.9784438495503084 1.1476610041103397 0.05896310879776941
Ni 6.9613320186025405 3.6621793045534488 12.762854723472223 0.35084888073433124 0.7480907469109052 -1.1717234443761821
Ni 3.362241900850819 7.171551500745634 12.581705565897309 0.4196186912098773 -1.4241996041668699 -0.4076219238593173
Ni 5.7663161935964435 8.532716812082457 3.3970105132249895 0.533325728517746 -0.12464605281787566 1.1775022558414883
Ni 3.0567117158999677 -0.016006185131596868 10.81144277839152 -0.08882775756768574 0.08763425148021682 -0.2504827835097428
Ni 4.807868479585663 8.446406845707564 1.2755966919253838 1.0570566142582052 -0.08630653380772878 -1.8212221552437862
Ni 3.282402380894986 3.9900992882242257 1.8955747001746264 0.38152008456594294 -0.10175809247610862 4.284349782388951
Ni 7.6630720070062965 7.608105891466594 11.327969272530291 -1.8070000981071332 2.3073946231144973 0.08644305938559305
Ni 0.388561978544025 0.28366511796072497 5.528997398774155 -0.6201557389291126 -1.6844158129142925 0.13530558941425086
P 1.4426481192721017 8.375157240189733 13.662874212950246 -0.7213906119118995 0.02550637180122059 -0.2560898452838751
P 7.784441895897172 7.434188134687585 3.1432980534350414 -0.5863943262079513 -1.3287815949761759 0.7333346716476532
P 3.598333831806637 1.9996293756684613 12.002891921533141 -2.472488499534774 -4.807250458918631 2.7912199309092705
P 5.441094563482822 8.40924612889968 9.65768281853299 -0.03864650872760441 -0.02175616073016898 0.08775689310101015
P 4.008324845814424 5.5126616223603175 3.6928807791784948 1.8564758362397578 -1.1208485119031857 -0.2758212622745314
P 6.205475569239365 8.680071192148294 13.072636916069886 0.3829359910768631 -1.7076670701327497 0.7536330168853731
P 8.882345003436233 1.1340647799503514 11.165856112299073 0.6085603207820294 0.4711284290533951 0.32039467800953203
P 3.7417667291942536 -0.0904219210689125 2.909686927116373 0.6237745666286225 1.58017017812964 -0.6980933319468557
