# total energy = -340894.3461739441 ev
CRYSTAL
PRIMVEC
9.05913554189101 0.00000000000000 0.00000000000000
0.00000000000000 9.05913554189101 0.00000000000000
0.00000000000000 0.00000000000000 13.25896057701608
PRIMCOORD
 96 1
Ni 6.523646498604778 1.8312679937273633 11.400160084629992 -0.4949417294229089 1.4975878872510338 -0.8342743819875245
Ni 4.632570092667487 0.18775148801756641 5.98144818306761 -0.46226943600086834 -0.27838439501601736 0.004958115336223719
Ni 2.8615181722450904 1.5186553477806524 4.80393360466449 -0.2541754018699816 0.06357592497943244 0.3519395426953488
Ni 3.458406488465587 4.30260920234301 5.011449408483086 -1.3282984846921706 0.772294083629986 -0.36719775440599983
Ni 5.117587145273867 4.532566296486724 2.6949369778496655 -0.2641983333236224 -0.018704004167406498 -0.3945902874863398
Ni 7.211796545301314 6.013417872054105 2.528085821217971 0.09201566837736411 0.7091606455046109 1.0720569443217796
Ni 5.041109923844572 4.554906124494856 11.418457726402426 -1.0744699246386462 0.5330228525653465 0.8642742707837244
Ni 5.567110505205528 7.797243173454387 12.321114511740703 0.031164341417946332 0.34413958703495573 1.7773799612478551
Ni 1.7773751969632223 6.532343268632275 0.3813008227201304 0.14884604710284688 -0.46260110830867424 -0.6256694696584902
Ni 2.8042825545016306 1.5738798374552538 0.40510007744850074 0.008862335486636348 -0.2427674171433561 0.4094152683143142
Ni 0.6808302652567266 8.802562611226623 4.620217055574264 0.5932128917916815 1.6072402948735547 -0.13631320474315878
Ni 8.505314258995156 2.275908479654003 1.500741813351099 1.0361386331586155 0.639327426761557 -0.04288111563424228
Ni 6.83436578524342 0.6458031180574408 4.792411290291602 -0.2923133463922837 0.07060814923586549 -0.7156537094281223
Ni 0.8189150431953883 7.248413570771252 2.584290509347755 -0.4556958965484087 0.3931774662992132 -0.6451013531308568
Ni 7.775546544062872 3.6338910011766608 3.805918547801805 0.0009304822340693653 1.2242233140471108 -0.32334347622521087
Ni 7.6956540285706945 3.816505053483193 12.789990902724178 0.6303439923160241 -0.8127192815245681 -1.1942879599402594
Ni 8.176757534664702 9.04931534248594 6.663979753960965 -0.6219711948712966 -0.08032151986888747 0.3122491660842623
Ni 6.866869963221188 0.8325109936717077 0.23467599779717618 -0.4434294204762299 -1.2380867022927646 1.497512553928408
Ni 1.9401406835090829 6.711206838864449 9.238989179045003 0.09995549204973107 -0.5485425454675004 0.34328006724813787
Ni 0.022046312019703144 4.974525278321552 1.5188537428469047 0.5896259457713716 -0.8320184960738122 -0.2909717447627247
Ni 6.123848733132417 2.0513868667774733 6.74032471201276 0.6831529085869396 -0.5419682346840925 1.4085649829534064
Ni 3.3679057253669535 4.055457869124099 0.30885672839108613 -0.40539971939701797 0.5184225861536685 0.3981690059765336
Ni 5.996477288771377 5.777572339870939 4.805404808260808 0.15370543207767723 -0.43746240425951755 0.07140364855396734
Ni 5.237992114477465 2.8513175857336726 9.375596411992534 -0.23532201660890442 0.1363790249840877 -0.36804467578732747
P 0.11543965706602366 5.474988156862184 12.494236401927642 0.44568376372804536 0.06024146128956077 0.3362936086279757
P 4.123972110496969 6.038928397468093 12.916123057356298 -0.292443958432877 -0.1896761937453314 -1.1183949081563704
P 2.4192421206696766 8.309301745365012 1.4474804383274957 -0.6060313837125885 2.0512623546284607 0.6008300420173073
P 6.397661101966871 7.713708885513195 5.843157762754339 -0.565065225712872 0.27746676829775435 -0.23544311556780098
P 4.83928144525854 1.0815701808154004 12.631812056454276 -0.6305843904616043 -1.0422899974719921 0.45318572853204525
P 4.037330539098036 6.400143305078886 8.281705806971512 -0.8149278591401127 -0.3841531513134158 -0.8486638179399771
P 4.782698085267143 1.0800573051960338 3.751688751199098 -0.40852309551734806 -0.15719133374374866 0.7057832443919457
P -0.004233333993592735 5.61501521344032 3.877264674914878 -0.014853262962748612 -2.0492196131668194 -1.0323989636105253
Ni 1.4080614222643244 1.067818413209422 2.586028051526165 0.4786273085336015 0.04294050811726798 -0.37281330082056435
Ni 1.6984248315573574 6.603828906431205 4.72081331921315 0.783652960286231 -0.7640989494137034 0.8666913648656492
Ni 5.844428759457316 5.473439044701037 9.169631532162173 0.21782026027971516 0.9530742604372684 0.04198174374842447
Ni 8.675444822658053 2.1850815876793384 10.292029424602491 0.4162600591502895 0.9168795556842662 -0.44760463489984204
Ni 2.2349611874412076 5.444893708912868 7.055941367273135 0.41925616566413604 -0.3994383596072605 -0.04791430718277554
Ni 0.6218045623492736 0.03487585963734926 9.189215571167843 0.5839700330371749 0.10359925944990546 0.7401095284776416
Ni 1.4959169178129277 1.0334118167881394 11.656111462020476 0.16982907711241718 0.5475922657390891 -1.3126211831662298
Ni 4.1532965319334325 7.107263181397898 1.5579810547487372 0.7340381254725811 -2.3084492896312567 -0.42583844686734407
Ni 5.694826196713489 7.875006792116915 7.898097622453463 -0.60669010034251 0.19930857462877288 0.6726761774253318
Ni 5.359774072268749 3.2228236712103353 4.753642720153404 0.8001501866103058 -1.3343668023734374 -0.4759258504420384
Ni 0.8107862809603129 7.534854374416466 7.219331934164721 -0.003881851552909443 -0.05431404006153226 -0.43897858379372784
Ni 4.786865287571985 4.543799624438908 7.077116190463 0.7788455115952586 0.5160988231164981 -0.22330725153621542
Ni 8.124893984240309 7.362975397612625 9.269684247674341 -0.2726505778560337 -1.2848810369384838 -0.2720779931820153
Ni 4.626971546962286 0.3845385577282837 10.404544792746771 -0.2305032550640224 -0.5486302200853003 0.2656846880611618
Ni 8.118398584126023 7.288509304252188 4.60699796513247 -1.2526049505135974 0.4400995847720485 0.43102024817859963
Ni 7.200563217349131 6.073289698212149 7.146924076377459 0.43434828411056803 -0.23068708894005432 -0.346363591269468
Ni 2.510739388667294 5.238381657301613 2.249038178009673 -0.40645952812010006 -0.19262447774037794 1.254287480422343
Ni 2.4142324187684205 5.206330436096111 11.616520322383844 -0.5043529954344798 0.5693548542271615 -0.41637370191001843
Ni 1.3141816016445906 3.34976027707 3.897047108986799 -0.9525253299123336 0.3916643720887964 -0.1531297620798653
Ni 3.4779379844856724 2.746612098256795 2.6235238131342977 0.8661961703967855 -0.4297586078573566 0.26912842363538814
Ni 1.1858227115200122 3.3877180545858434 8.253782833788438 -0.548113685460198 0.32722327089559133 0.37826275397090986
Ni 3.5981617709803633 2.4643566151873135 7.092271218149457 0.1372164332837185 0.3874130530116102 -0.11411584271051316
Ni 3.9295902412469808 6.785500808651425 5.753500405165664 0.24102498053095264 0.7148908631201688 0.8419807494928466
Ni 0.6707057754830498 7.24922889296133 11.347349854551565 0.40446280940504536 0.29979499948130944 -0.519291361911867
P 0.2860077769709286 5.6580461068055365 8.28653160842323 -0.8396112208194056 -0.5169555146898387 -0.5220275298961075
P 8.550754882388825 1.5916810386052853 8.05668775347258 0.20286183919767 1.0431911691300229 0.10774696306969186
P 2.0152318572152463 3.4219978231108916 10.510312010897838 -1.4786655964252342 -1.0544245759519968 -0.6247896381566982
P 3.894268672145722 6.075092466165765 3.682914512638949 0.4486438747976338 0.7370131489405048 0.4481725915881701
P 6.786361426518729 3.9558526749029306 10.478078701069885 1.9797147242974615 -0.7925569476440801 -0.5337522745322033
P 6.254617353285447 7.858220214136758 10.329644766798502 0.4032171099234023 -1.081071489115564 -0.8114015911544091
P 2.3161763367084 8.555538105903947 5.956654235267345 1.473956363875023 -0.3192469375583341 -0.059672476159968194
P 6.975072276979954 3.8871210142793737 1.6896021395471712 -0.05047461171078404 -0.2070239409951596 0.03011044623213524
Ni 5.397451016585788 3.035036852564532 0.1392552182381956 0.6219436840674708 -0.3360411262975374 1.015920763449844
Ni 1.4637751052529726 1.2029173001053097 7.145730988239311 -0.0939167420548189 -0.28847674625501285 -0.8591824580831139
Ni 6.99315431132879 0.49959682519205983 9.15224976898326 -0.8161990125430524 1.2764681302844403 -0.596560982328308
Ni 2.6931631991294744 1.6695533668931586 9.369709785780172 -0.13253753975081045 0.16448992428769088 0.26151641561608513
Ni 6.34805327626836 2.0067525064384375 2.654616577809686 -0.1423298432508839 -0.2741937539734374 -0.4957811946050687
Ni 3.9452263090255837 6.796408007727576 10.599995639979303 1.3173846659931443 0.3854939816120264 -0.12032891349976049
Ni 8.050427890879872 7.288210352782492 -0.2154054048779156 -0.4266874251312006 0.15756131548865768 1.7276954495385344
Ni 7.755924456688334 3.9128217815377146 8.291132743315902 -0.12807127644934072 -0.7713080655676329 0.15082245410292736
Ni 3.150731071336569 8.337774608069617 12.465504447949302 0.5212837097515475 0.04746642101207954 1.3813902223108274
Ni -0.026602151235148867 4.730508405966719 10.385001519850604 0.49269921324563537 -0.12025512283903161 -0.015867820270192026
Ni 8.621470493674904 2.553181438228565 5.715885062969654 0.10999667833581703 -1.407818334595369 1.8785986362807259
Ni 3.7151152095792983 2.592516204332095 11.530005578881145 -0.08442011541829332 -0.10700699957987377 -0.09165108594909376
Ni 1.1547861134843849 3.323688085258402 12.712201012568855 -0.8621412836011216 0.21540265197715802 -0.34469777353127085
Ni 3.2070335981291627 8.63294841828411 8.266458376103515 -0.018932318128128685 -0.7716016855486518 -0.6335637848049024
Ni 5.668355402942297 7.895435142546087 3.307010216903589 0.6364256797337298 -0.13969600517246264 1.2083963743171835
Ni 3.2559619886692746 8.362243332907397 3.6166596196461396 -0.6685603554847452 -0.0986686549175075 0.2914949642560464
Ni 3.304917556615722 4.489363279548048 9.128237624571923 0.663345129832393 -0.2960833549576772 0.40999119542244233
Ni 7.080810505897596 6.018101445079329 11.349909060314864 0.13751853790516963 -0.4062150162094617 -0.5323530801918315
Ni 0.680503230467151 -0.14953914879570998 0.2646091931355651 -0.17003502247563618 0.07985615019669472 0.6323401968104464
Ni 4.573169341552598 0.30070441240385287 1.6237186711076195 0.3441719829347879 1.4140620015122356 -0.6869118614087396
Ni 6.24397286913721 5.428958689664571 0.4485703388828143 -1.5191208762268031 1.9437167089362977 -1.0598022953241426
Ni 7.98518399740276 8.99895560854547 11.295520728841865 0.714539393318021 -0.792036813474552 0.09624976106336973
Ni 9.110319560574649 4.835096124682807 6.087838669737315 -0.08068455963526104 0.5002981086388157 -0.3868816059881724
Ni 8.149969671152924 8.98881843598217 2.2749065392737515 -0.31212163936746246 -0.26133515284321446 0.6298012324386766
P 8.683217560870128 1.5004917812128085 3.8337889779992973 -0.6036022054458056 0.23340371654026898 -0.9769536381580272
P 1.6213315889177806 3.282749852181052 1.6503561529710051 0.46530128084865674 -0.8250999145771081 -0.538894223744459
P 4.825864865664038 1.0450346875644705 8.255585601742055 0.2573406869718407 -0.3225217516548639 -0.41153822819458796
P 8.630112908889728 1.6321934923167056 12.554909961572596 0.19305025242388688 0.419538215680929 -0.11457221352164139
P 6.520176849729225 7.834675521114401 1.2873973617869912 -0.26836274911395713 -0.20642307418636707 0.16572251114321138
P 1.7771849551188708 3.2642239201953958 6.064529514236535 0.2704491993293407 0.024851511826041072 0.3088437399471391
P 6.829754685301758 3.9744601391075944 6.207990889061988 0.3138136823579047 1.520228507468685 -0.7089382450811597
P 2.4243786504671663 8.465046401940759 10.486923135005139 -0.40782221279558145 0.788311542104165 -1.248224819168031
