# total energy = -340859.61181293376 ev
CRYSTAL
PRIMVEC
9.31831631694899 0.00000000000000 0.00000000000000
0.00000000000000 9.31831631694899 0.00000000000000
0.00000000000000 0.00000000000000 13.63829783970186
PRIMCOORD
 96 1
Ni 3.7881006145171874 6.2520405154082095 7.849017305240498 0.24688863840058128 -0.2562610807544167 0.3067819723221039
Ni 1.9983595409013126 0.6676256868953393 13.05371912744369 -0.5753617225428737 0.7609064106183347 -2.1370541535833003
Ni 4.11254575450041 3.5620289406377874 8.17645921577397 -1.2057447956269494 0.18344641078553567 -1.5940268815070742
Ni 6.481448146554367 8.492881285347474 1.9117616312164922 -0.6132798377448857 1.2966813720075216 1.0253687962366211
Ni 1.912714894982943 2.989520900100445 9.574466654940172 0.6939445998858049 1.9288230796539165 -0.0020458267854351862
Ni 1.4618108833036925 7.210671632098253 7.622799333793812 1.1062906686936689 -0.5143000793448627 1.8469923222293545
Ni 8.312497316716444 0.6075616831241907 0.9835436355522749 0.4155244665358457 -0.8931788696332166 0.5965118742579276
Ni 7.992366557220677 2.8344454787781177 2.6614863446447217 -1.0294108275164786 -0.7969208810397308 -0.2383456339265766
Ni 8.747960878141452 8.224690821396152 12.575369878508061 0.3077271098441926 -0.5848120693224961 0.24376269117708987
Ni 3.2138220938662023 7.852908634163956 13.057292701778334 -1.8936542450622678 -0.2611196943982987 0.9644881587011649
Ni 1.1075378125637845 3.8397613605700043 4.557755343035201 0.31494291086634146 0.769268666540101 0.7458631431319671
Ni 0.2604953982784471 5.367853428338647 12.246577743930029 -0.3248887092251437 0.5875996593699623 0.007596324290019176
Ni 2.2992572953730863 0.011276094660626604 4.1764973598684625 -2.1718090405659822 1.1749995440242926 -0.2379861937046288
Ni 7.728229560897958 2.1579450273552347 13.037203343478321 -0.2665004990942378 1.1732987592831017 -0.5277922002940265
Ni 1.6340040518300285 0.2677478439229109 1.525975878117021 -0.9934182114719536 -0.9086070312628287 2.1199851139161554
Ni 4.505079832327775 5.91585429677662 1.7896721180746065 -0.5698047972803864 0.3572414145242364 3.708965691248574
Ni 2.291066495268392 6.506188276563428 3.3446018688711576 -0.7651155636036759 0.6008171865015007 -0.6369872086641545
Ni 2.0814323314967065 2.2785985879417923 7.110435434548552 1.0785029570574394 1.2017001932439304 -1.252818094965668
Ni 2.5693580141838646 6.044204786699329 11.4814833994521 -0.39843614359499124 0.9892543099022513 -0.7499100595078311
Ni 6.507073516620249 7.276943498246816 7.690540698436699 -1.2799699727901117 -1.2096801261256134 0.5143011077861271
Ni 8.508508101929468 6.407870720357932 7.563881482938338 1.0190400258051158 -0.9125572741598285 0.15197070877475763
Ni 8.022259716192076 5.259621183496752 4.11366488429856 -0.5719501257581634 -0.43149435960154076 -0.5085418367048468
Ni 0.21242034037157595 7.150316896855812 9.897326749305865 0.49097168903156735 -0.796197629720461 0.5659360583535995
Ni 4.363329603439706 0.8504296222922276 4.8774509371556665 1.5817166966811533 -0.24794047670386332 -3.091773662933475
P 2.6482002891392913 2.140314772749908 11.319432286482023 0.9499794235620285 -1.5893914396175919 0.7297099304108723
P 8.539556732132928 4.592327228664811 6.183631959311971 0.0009590214791596385 0.7924193936249514 -0.2513675001075413
P 1.298572616825834 8.401599058014611 11.372608190779461 0.9250798321068713 0.16894127519082516 1.295122255050518
P 5.9987873126262 6.846064548484505 3.7049663230336356 3.105145456254691 2.097830432195987 -1.66560793617917
P 2.600639602297015 5.142303580176954 5.487696295399484 0.4104395958137706 1.0569128895914894 0.4212120038389262
P 5.948179536325181 4.726035750510387 8.35029333981616 -0.38828234299044095 0.49445193427068396 0.6403934061322262
P 0.6571276716530767 8.479248588472425 5.221449632246615 -0.03409102814643806 -0.12628641663477605 2.5440150468198506
P 5.630275854446049 3.022302737151998 11.616870150079084 -0.11201396587616193 -0.9251399959208454 -0.20244866291965136
Ni 7.403775102598349 0.6567521435026568 8.03678976693525 -1.7920781866899784 0.3413478832224315 1.9384222933065778
Ni 9.176771161665718 8.93195103521448 7.681730230292229 3.016562724818276 -3.093444108657363 -2.615160042395793
Ni 5.166298244875006 4.960428680923908 12.091155681238083 0.14237612310778705 2.1151619814958993 3.2667518883469997
Ni 4.715580599523507 2.134574689855151 2.2784001078027365 0.9386390588485447 0.36975291672768584 1.5471541282149355
Ni 3.838941348727896 3.594410090084674 5.375398469117682 1.1661408080820819 -2.879653281252015 0.8657971351861541
Ni 5.236642215284947 7.124253565919713 10.940901774521931 -1.2104242033804895 0.3565004225931538 0.6363248924898073
Ni 7.0244916706741405 6.024515184172345 10.037746322613787 0.8487260386364803 -0.07358342981410552 -1.7455157655494067
Ni 0.8434623171292241 4.599129599627754 7.702242640156239 1.0203867696409976 -0.44518445549412367 -0.5583893563545932
Ni 5.737511039434473 8.902290834152772 9.392641142763983 -0.9632008073483088 0.257015442421938 0.6934126386417349
Ni 6.235230272644991 8.842075873656142 12.388007422734363 -0.077575324582318 -1.5183413177483012 -0.5115047759879127
Ni 3.7819691623341507 -0.01502858066991041 11.511841542411243 0.31730935421598905 1.1650159504490194 -1.7417365010126324
Ni 1.7086717210438134 9.012312195741085 9.383285553110838 1.7127655677015794 -1.098367042971218 0.056547043157109074
Ni 4.144880312365358 1.9875037023097666 13.204409349074018 1.0759529369420762 -0.49992427023916486 -1.8449063862346033
Ni 2.765024021690548 7.257747766488375 5.562161757147659 1.993643932784044 0.8244946768929412 -0.3408999970517355
Ni 9.323068728950933 4.615623019633794 9.941473205023726 0.18070612903623717 0.9724634635971574 -0.182495359726176
Ni 0.8251089611722204 6.209111031810568 5.71199189817541 -2.69388567853247 -1.3607110966949212 -1.093054629619369
Ni 4.156220703409059 4.4547702421511595 10.292401000180488 -1.1092569504108445 -0.4289800778201192 -1.750055305290973
Ni 0.17660259584094498 8.028512306488151 3.2627041179722385 1.3663168729174728 -2.0247835916116417 -1.565022523854924
Ni 3.164332515531694 4.3631059638464045 3.246474406319968 1.7165643726223792 -2.535365855785285 1.520162173007124
Ni 3.7245590150701884 1.218593507271121 9.27990721927524 -0.244132930032315 0.12221456055824757 -0.36392782540547647
Ni 6.9419127508472895 6.438937987194167 1.2423291227735986 2.2842017299378017 -2.792179466609062 0.5738553132006763
Ni 7.806074775999913 3.3721961991897373 7.860637245775826 0.7692774082908493 0.38576857542965176 0.9050743355192218
Ni 0.612821872724987 3.003684741009587 11.938707093305418 -1.1875845797781548 -1.0370742575990075 0.34355697505860827
Ni 4.218644104889546 0.17993016662295455 1.205491954430165 -0.16882120467319311 -0.2862046623913845 -0.91064514473878
P 6.056169504940999 0.9390067423777728 0.22271987547478278 0.5635058516455521 0.4023203091407458 1.178885252231944
P 4.141861177855778 1.694796747942687 6.57866520959449 -1.496654833913803 2.0358645320161517 4.680538010490029
P 2.1327389815267948 5.536086312400256 9.365446568218427 0.05585387374482638 -0.3716922998422437 -0.4786247374304402
P 2.9897631763265227 7.877005800342272 1.774737652400211 -0.7086263702676957 -0.708006991516142 -0.35008654864701
P 3.8922234818321546 8.494977906534682 8.269731835487223 -0.15602173891567966 -0.7345587738627414 0.4723489317240575
P 6.38069850977171 3.9429523962462123 1.3809046012684143 1.183266412018775 0.6869630263616492 0.49850322152192206
P 3.2690238001463046 5.721818994637766 13.510329676078703 0.22345997506399579 0.12217368001798314 0.1214288314321586
P 6.356256565887052 1.242168847731732 3.5790982325965808 -0.8723418782832073 0.35355008171557817 0.5536279304102077
Ni 6.952927000817423 9.294713092183486 5.804173343039675 0.46020226905919454 -1.3149539450644643 -1.5742183314215792
Ni 6.111073025096698 4.424411167360381 6.172421092866058 0.19653281165584863 0.7106032914884085 0.23991452107559325
Ni 2.4778894205232493 9.17049061642048 6.767445913122381 0.14980429725105812 1.675856867600688 0.1474432532180493
Ni 0.7245512817071464 1.4419535510817314 8.572161521173118 -2.3384512353099853 1.7230515230086194 0.033765012265587015
Ni 8.628826203126073 0.3489737442102839 10.371925375895488 1.4722648351052128 -0.36976705779507285 0.2230246872987901
Ni 4.113924865325773 8.372973190071923 3.5117528964001665 2.7405573715573963 -2.464948225293671 -0.4538351891905862
Ni 7.670567819091532 2.949955328718724 4.991958136252968 0.0757927787605985 0.2598989346173201 0.25376325403322747
Ni 4.655421548925205 5.690742409485142 4.5005977221453435 -2.668357966575011 0.93440290928001 2.4711857215629505
Ni 8.649345135811553 4.173804366432448 0.9242921889701243 0.22188671703960497 0.7743756487493632 -0.9269122573299197
Ni 6.641630005257096 1.2317323333776273 10.994513776026311 -0.9261494110219664 1.6239447521124293 -0.9731718025180918
Ni 5.167621445802044 7.011119886657944 0.11565335201297498 0.9042191866077783 1.4954374165669342 -3.2930753567328774
Ni 4.345252069647776 3.951823433447201 0.743927788803508 0.6391883300805313 0.05719187582995957 -0.5708854319390749
Ni 5.892884646881202 2.1218924612516363 8.388589756505892 -2.4572477713256196 0.9376751522733786 5.145282390393952
Ni 2.6057739946265794 3.8414666124689334 12.660159102982051 0.3732354759596475 0.44820832992211196 0.22204226878086272
Ni 8.235378930292722 0.4346351630981512 3.4023185887442713 -1.538321874635286 -0.5825147886478871 -0.5354636007963551
Ni 2.5981888850870787 2.42604230814268 1.2544261611079721 -1.3444406416696715 -0.5842466837373292 0.7625529450828221
Ni 2.0148343242745774 4.691753664520431 1.5405003378703628 -0.8796186144502787 -0.11917448818034314 -2.916343951804829
Ni 8.090702750058949 7.2976860705256 5.166801433959936 -1.0441553328155049 0.8724367519898587 0.4060550935928297
Ni 0.19529979767265085 1.8563949907363293 4.319440333254143 2.5106562688537473 -1.4530952041552976 1.3343709161384956
Ni 4.981683760604008 7.985088952121967 6.403262812904266 -1.7784384844193566 0.9943417517274874 -1.9138412615331042
Ni 5.824627979342082 4.153210887215867 3.5426841158171434 1.1834705576097813 -1.6030830781720713 -1.0254834674376145
Ni 0.7372530787750748 6.329857775561001 0.6730880839617465 2.3820550880428653 -1.836374180393876 -1.1125579897596194
Ni 7.419485784027831 4.365743047384093 11.639837004479585 1.0140785680347826 -0.6195870109098363 0.37839696555592894
Ni 6.258647201727013 1.8919443677549974 6.421605918713245 -1.2639064915693459 1.3660615623735568 -3.6626596090931822
P 2.7104932341903525 2.1028737775045587 3.623341598804873 -0.43824710494434205 0.6263801225722696 -0.33847904631506864
P 0.4694185745097593 2.235212506841158 0.6568071215693434 -0.125512514583229 0.3204013628777514 -0.6842237730536151
P 0.46080099551451303 5.106521245248595 2.927692939037125 -0.4123954339885607 0.24022511033747662 -1.1942766470863497
P 7.082675238198273 6.627419572766017 12.193429794581752 -0.5870427584252277 -0.40446152385346473 0.6147659353721089
P 8.911497330743714 7.73012117912464 1.202014358754315 -4.140744671970069 3.9026731176404845 0.5317563271480971
P 7.7898609054855 8.111622370349096 9.090075409658828 -0.3999975745448402 -0.7955530541579267 1.2875634688666535
P 8.710286924986413 2.6463366258617724 10.100304839681892 -0.8158166895029693 -1.4683498163215227 -0.08258126243734165
P 8.658160263114215 1.5748141061360363 6.674760347341545 1.48642749975884 0.8496827461227947 -1.9265111436912887
