# total energy = -340863.5130386971 ev
CRYSTAL
PRIMVEC
9.30407824309771 0.00000000000000 0.00000000000000
0.00000000000000 9.30407824309771 0.00000000000000
0.00000000000000 0.00000000000000 13.61745897941700
PRIMCOORD
 96 1
Ni 4.227624334998606 5.825125282864124 12.637546326519436 0.3636917981352704 0.5421854929012211 0.4903685082299297
Ni 8.795219692746361 6.83493412202822 3.3433721722930545 2.3330871427845943 0.5413565692420225 -1.837793686449222
Ni 1.9247998159079251 5.575915544376551 2.9915514753629173 0.06000312002650956 -1.2315203619291564 0.7207946301991135
Ni 6.388115063557912 4.145739141478758 1.5421770372067611 0.7143540167800924 -0.24249796553205333 0.1562518526486148
Ni 5.0139678204574745 1.326082374366937 11.95354212041544 -0.12515821656760379 -0.7398436764107645 -0.5920247850208514
Ni 8.419269799034678 1.9737485720842598 10.133595545831373 -1.3444442412140976 1.156555478386492 -0.17658285089648298
Ni 7.999395351453301 0.33266359961649433 8.576071431393501 -0.6354201212873507 -0.17841913277427338 -0.8882438942254444
Ni 8.654756021962456 9.061418678293046 6.028381247994821 1.1418449116491947 -0.02148259535380816 0.6893940044006449
Ni 6.154173317635508 4.459379622509787 11.76521268817463 -1.7943183888744063 2.231385100357402 -1.9087057400787515
Ni 4.211565495774057 1.9963016579940556 2.866652597243409 1.4790983130872783 -0.4736769065068617 -0.008040096695657122
Ni 4.317492427739 4.121678794876971 9.830852001358739 0.03427203380899259 -0.1374959121973503 -0.4963337246744291
Ni 2.205931847199339 6.75077873339204 8.85186571293803 1.8191472749926285 -0.11095852802845406 -0.28891769044717336
Ni 0.3736424822819664 4.784733938177958 1.226217049444168 -0.4768072246057272 0.48564127795758943 -0.6335995231388444
Ni 7.145606602066995 6.505374362947827 4.536929115520573 -2.969200176373912 -1.5822969946646557 1.7846168453159266
Ni 1.0022818397824853 4.290166349637899 12.039726728538799 0.010024474115537573 0.10928191165697952 1.61682459612788
Ni 6.150554031159061 8.261807577113316 12.543613281949838 -0.330513768721405 -0.9710835525304953 -0.6493094776749334
Ni 7.016261304906113 8.796661824889933 1.5165489534037364 -1.2112425855167268 -0.6705077090191034 0.5121699203757373
Ni 7.459758807407033 0.7068271102858158 13.021095791423823 1.1726297582405354 1.7079889722485422 -0.36620119482068547
Ni 9.092224481695412 8.879840285299823 2.295590598176957 0.6732976130594146 1.0919652532099322 1.6331894106391485
Ni 8.091496422996645 2.0655891294339273 1.4211449340476945 1.2184720133856306 0.20750936527201033 -1.0464762676391979
Ni 9.242978463129578 6.377173467423456 5.649516386537454 0.7820527056786467 -0.5645538332940921 0.15025655429712834
Ni 3.9591179380222057 3.543560582793197 6.116268502455432 -2.2228616362674236 3.5911402608969576 -1.810581130590172
Ni 6.749625027677182 5.533637812374029 6.835760324185312 -1.3361107816477378 -0.8662144252292308 -0.7254208161172152
Ni 6.17012050791991 2.349921763676236 8.873816824978865 -0.6269172260226623 -2.9531775756934104 -0.22128585023081246
P 5.969831613373635 4.952756289021606 3.64258854066486 0.6360844943442271 -0.5271746213146857 -0.3137697164938467
P 1.404031942746586 8.034657808383221 10.686028919234213 0.5129363662281166 -3.0724554222208376 0.9018517148168662
P 3.0844415327499712 4.917735738128672 4.574594815887169 0.7806144305702234 0.5640666092450285 0.6839257821972221
P 2.258648755105652 5.11434021765008 0.05157250626980104 0.4873392344853026 0.6593241815984581 -0.05771586665422963
P 1.8940219247405965 4.666386061621604 8.273300905093667 -0.5644167934955957 -1.6913799029369514 2.5589739821225286
P 5.409828441828794 4.1283219068157475 7.758547188174941 -1.4728862707392958 -0.9149892806400888 -0.1657613348009468
P 0.8500680484558901 8.303378199161571 4.387340935103113 -0.7060640088571583 0.13111854791609678 -0.38364227311526833
P 8.175958846218233 6.837074060047715 7.458786531219915 0.26579036040109066 0.6529403895593013 0.5723607309330208
Ni 4.428415649775546 3.6848895328632456 13.593438031670633 -0.2112500632613652 -1.2971467416797144 0.08090696005871229
Ni 6.717628302246577 7.95094901550763 6.46059941631734 -2.3646335501323077 0.11894591710930483 0.260122620592352
Ni 4.279103800484951 4.935236709496793 2.2670075390913618 -0.634176735798553 -1.0898546346248326 -0.00554484107762916
Ni 0.8633310121375789 3.149681730109496 5.568138265287443 -3.324957035932822 3.1851715563703467 2.6495400625375596
Ni 5.722194264126472 6.7487411402343485 0.9871161920791162 1.228564364624626 -0.9752531105271527 0.1265350423104724
Ni 1.2083299588247032 1.0638562302738337 5.552846082118573 2.0204919062148234 -2.4268933274034783 -0.12180935470002893
Ni 7.868840524107486 3.9343970018578793 13.147616370398975 4.177355895435199 1.1762519283741548 1.3183812255784586
Ni 2.576866842682729 3.27511001028687 1.613206232112934 -0.35820172155497665 1.1912676850566968 -0.06523711473193926
Ni 5.466667056442218 8.966498471010977 8.703707569362294 -0.15247207389120837 0.9822837921216889 -1.2802553652410145
Ni 0.9595016875493002 0.4668498087406061 9.813489660757968 -1.2942231402750164 2.8315376566917108 0.2561032150203138
Ni 2.3194043867025855 3.0046032364661603 4.063640884564795 1.740253488709203 -0.612698254209803 -1.3499718559005458
Ni 4.943098655698845 6.863627899646129 3.4220130336937826 2.9320729325043113 -1.170119590224172 2.684448187268654
Ni 0.1645379735032106 5.933015375359996 10.087582226373081 0.3959681416704729 0.9454293422975009 0.1527466677088337
Ni 5.303529346730024 6.227284765275432 8.676718298897304 -1.244392589906134 0.15220210805927334 -0.05025143995638442
Ni 2.1882634024209966 7.680656235488869 5.999947984570589 -0.7145267949125308 1.0607906273793408 0.6851609401559038
Ni 0.475210453541985 1.833926882706203 11.908699254013028 1.0526983372895096 -0.032996252420362526 1.2556146838741988
Ni 4.0559175691300915 7.853656268247426 10.189958722041336 -0.5434180797567415 -0.4405991501162863 1.0200424989277015
Ni 2.8876695798183416 2.6781789517882424 11.178571940326265 -0.23738249868235894 0.27412716240156015 0.4340785753889492
Ni 2.6990573035958256 5.621700913915372 11.018472012193916 -0.8595799506318487 -0.11201782253090387 -0.8611352109341105
Ni 8.698801528850646 7.8255207353302545 0.09578734738388157 0.3097976192199761 0.5663281515856956 -0.11976969856218082
Ni 8.418255654495006 8.665539448765035 11.218117064518674 1.2355994170945366 0.6257661431373546 -0.08336159224679192
Ni 7.170187977056137 7.324403075634876 9.667783141826304 1.196219115524701 0.26641076759390886 -0.7987113972812503
Ni 2.2278150394682497 5.499566277472349 6.527352456815863 -0.06639745358862757 -0.17884259346493714 -1.888218161648361
Ni 2.2471210020354224 7.5597869537008515 12.74577787869059 -0.6242731035315958 -0.842101077120795 0.4860886499076531
P 8.311658828889177 4.418078818733556 11.016756340146983 0.4861686112159692 -1.3165799107036615 -0.42666145698927166
P 2.4193115799779097 2.1181199557733277 13.496481161638707 -0.21574178048413167 -0.9032961605728765 -2.6010256598769397
P 4.249098147820309 7.858038489148216 13.52048940540176 -0.42958531550428597 1.0768898469340487 -0.45804819883066916
P 5.770119571684788 6.460631050183714 10.96303459177934 -1.5124915438357436 0.09987913028584089 0.20778884418564217
P 6.4568908106887735 0.7531428122903384 6.965153072145758 -0.0640880887291606 1.0313057305463464 -0.09115460592864946
P 6.370735045208283 2.748136316868999 12.710795474518875 -2.1973886888072993 -4.633176233376615 2.341802925391038
P 8.069482973630896 4.070143504920552 5.94310843954933 2.114607651654326 0.04543036441865724 -0.5675106019295709
P 0.5539024873736146 3.037390808556144 2.485009537992039 0.5520212480447203 -0.5046995801406212 0.5009015465507696
Ni 2.066268327153158 1.0848555350999098 2.6274065962561655 -1.5371810761626237 -0.8746949518964161 0.6894683092820061
Ni 5.770063747214714 1.302003419608459 0.9497947426113094 -0.9335076511592504 1.437718721699227 0.1439054152681199
Ni 2.2321693481340024 9.086669946923072 8.113704327599818 1.5781834867169144 0.3620432067882539 -1.3955698562453192
Ni 4.246818648625631 1.9458642492824207 7.342683728768361 1.3489938082579929 -3.8600791942293586 2.805266638810324
Ni 7.19030339443938 8.746550058920395 4.2140589887706845 -0.26537641279212365 0.8648435130236332 -1.703455346044247
Ni 6.784012901242614 4.334900358323666 9.42571893550817 1.663297799988755 2.0901173798224453 0.6256026209762968
Ni 8.841321400948933 1.6162393616536077 3.7847548577860146 1.671929507521824 -0.5809014214141802 -1.8903195242620796
Ni 5.546570481274449 1.1458158564204468 4.895421767032358 1.8452079766354221 1.0095840225985389 -1.4162494960818577
Ni 8.389710742130628 4.495516662804196 3.366739365058092 -0.48688852010112926 -0.7144537755827501 0.8841368140356063
Ni 3.5716402912402945 7.141056907755984 1.8938349127658496 -2.73648140171581 0.9070324876868573 -3.625561932909937
Ni 0.8802253575975653 3.66918424861583 9.88510408219208 -0.5450756699648226 -0.27776475915414744 -0.1057993524250178
Ni 7.885513432502846 6.407821101493945 11.958906851989527 -0.7146653773729241 -0.5966622837928627 0.3023802437099825
Ni 4.45482062412043 6.393744030957015 5.710998666653181 0.26159149182839464 -1.5013807786345628 0.49888117368663115
Ni 3.1062875087054995 8.181243562718548 3.845011790783622 -2.4865218376993883 0.7134243058769714 -0.8169572308653155
Ni 8.81908465370289 4.80106259567453 7.906228962939382 1.0461836760994436 -0.4089339578025215 -0.13659936852500992
Ni 3.425789559094272 0.42903245189697753 0.8466841551615861 0.21403173977156043 -0.529652650541533 -0.42623079720975626
Ni 2.644507492255425 0.32647452670098437 11.654843058799651 0.24299290289060088 0.38956146681318066 0.3231182475882822
Ni 1.1633261318669137 7.1523520588675735 1.7086502590058619 0.2626746975902444 1.2260860782874625 -2.418026878151784
Ni 7.594891241298896 1.9675985762978014 5.454936474464055 0.8698936738530308 -0.48918477233447366 2.230978866057919
Ni 4.307537063909182 8.729039783473928 5.585909054927587 0.9776748325947678 -0.6082993538111588 1.8079948579202345
Ni 0.7615844025733243 0.6830337907325482 0.5560414949852739 0.3988722026911453 0.04272556389298448 -1.1190561958894534
Ni 0.19236461101930677 7.761852927211142 8.590928183695796 0.5434263072868576 1.7991515485969918 0.5300426868911
Ni 6.070669214483521 3.59210926360067 5.404456266992029 -0.6756373169361848 0.9977595191597849 -0.8116407037484087
Ni 2.1778149224388597 2.350480008376974 8.61157207272907 0.7830819182741094 -0.3509067305554602 -0.4563178464031238
P 4.126461091146622 7.681447082148248 7.497024432404766 -1.32402685390001 -0.4684976762987673 0.5023382789972961
P 5.047136859759628 8.83569243354983 2.8460356900373376 0.9108503187710506 2.1534302809484784 -0.615268071819508
P 6.745940612652315 2.0574759731165417 2.975414481880265 -1.6921553476503954 -0.29718198733849466 1.0069563551677043
P 3.719137845253492 1.0444944432365875 9.741290012795917 -0.438812747639825 0.09955517128751887 -0.0825846048714513
P 0.32480537504577917 1.520984207551096 7.643316177864371 0.8734227700522119 -0.8872447635369687 -0.2124937058604792
P 7.783363956346227 5.919263947565161 0.5703725668610405 -0.006123082178602358 0.05550523215615603 0.4874729318496895
P 3.577166913777596 1.3765849116269913 5.335497229517758 -3.439496596444315 1.6941469241591274 -0.7227029029654198
P 6.581705021695337 0.3024820998711204 10.430796650833516 0.7286246677664936 0.7866794058173806 1.5241201292136073
