# total energy = -381168.4515017316 ev
CRYSTAL
PRIMVEC
9.21228542611598 0.00000000000000 0.00000000000000
0.00000000000000 9.21228542611598 0.00000000000000
0.00000000000000 0.00000000000000 13.48311091319965
PRIMCOORD
 96 1
Ni 2.9523162958453164 7.753547433652125 8.1648455650745 0.5510743107504187 0.028666771807073207 0.44949208173054195
Ni 2.4782244651525738 3.142457861348653 12.923804290011871 0.20720237555455284 3.0237037067384316 1.548082553566476
Ni 4.181723386015705 4.688408281570405 0.610618817849526 -0.5614569395363234 1.1619545379148761 3.0678042966020715
Ni 0.17083998565631195 8.771532579621855 11.082509850326755 0.9260077432377795 0.49858292571992197 0.06517489403543614
Ni 2.3154433865457924 6.097399658461822 12.419427993115852 -0.6744522954891481 0.14004387543018462 2.5813752326358643
Ni 3.4906730277469395 1.3626720071554295 0.6130352002444643 -0.990609795488881 -1.5436286315601804 1.5270275326683895
Ni 0.6978941649069637 7.0740216441064545 8.033709607187705 -0.11509440457369856 1.0647606677706822 -1.7196301560318965
Ni 6.092738242175742 3.2003017998077357 8.304207172372047 -0.5831210547733183 1.4266848324825687 -0.20737181125288157
Ni 9.082815694852366 6.666267478781422 4.950270250654803 -1.0577358997134172 0.582272590730094 0.25511925384048967
Ni 6.717828638767961 5.689304638586225 9.197032369832018 1.9289421217302845 -0.07260306817870722 0.2501002033593434
Ni 6.610698974754477 5.23563644407182 0.2761060043838787 -0.4012293900694122 -1.2419222739887708 -1.518378855854456
Ni 3.8249500067127378 8.602256839984072 6.3281627953356505 2.0970570443650725 0.7988355815639403 -1.0797419716708632
Ni 7.528233363444731 7.434958976297382 11.550212040039211 -0.061264246127120295 -2.3032662027684205 0.8051180721385425
Ni 3.2314116867604854 8.211499340761446 12.4903082362912 0.878049727301262 1.550762157281168 -0.6872880138012357
Ni 0.9739319983807296 6.940084230305437 2.169621203672301 0.9590718727816 2.869439831054123 1.0409298838996717
Ni 8.28778627409154 6.033549310084708 2.6338586529397086 -1.8007019238032471 0.8300778274076736 -0.5016253120906716
Ni 8.874700961020684 4.3467798990546225 5.609661669775857 -0.22041064671471072 -0.23657131563497322 -0.787434024595218
Ni 4.018251386022647 2.4520155138998123 11.446810587826075 -0.43611925996806183 -0.06548779729016463 -1.524623036991955
Ni 7.630185723203716 0.965751489167214 5.317873592380528 1.1514760069810555 -0.49110615772690264 0.33417579095402444
Ni 1.057238692995394 8.305916051267438 13.535559903848952 -0.07909716054348313 -0.6069217567373419 0.173583659058843
Ni 1.2598997540180639 2.4778743983168603 8.786686788694189 -0.43518440685861826 0.4892120260279833 0.43448378124716786
Ni 2.0239758966736963 7.402983134540498 10.331729798828631 1.577751027165186 1.2165123185560982 0.5417072677132219
Ni 5.916369042972186 8.092891169450619 8.559213358847552 -1.8283705933631094 0.45240077073690477 0.24838733443329478
Ni 5.77597381728077 6.293731879586198 2.003185611546374 1.9431752346105307 3.0735759089785257 -1.0872465075780242
P 7.621618298013884 8.147437109825873 3.955728527935699 0.8157197589137888 0.14638961514255433 0.29099359913959566
Ni 8.059441362069679 7.87419151998118 9.30009665240865 0.03392287799968996 0.36699900813163244 -0.5616533718178456
P 1.6263460327289034 2.894979033069504 10.889903998545698 -0.5093789878941614 2.350978421242719 1.2421750134295253
Ni 4.982823702690615 6.99509999722336 11.088119210754806 -0.18474584632324959 0.47233427643603815 -1.4474783721891522
P 9.344757810817573 6.218531995903845 12.06310970069931 -0.5483461131859781 0.12542483996542914 2.352065483659311
P 5.155858054669741 4.1212078848630185 10.150813415674861 0.22985996505306863 1.7834027704031674 -0.2718771900251189
P 1.902861983801973 8.971955055352987 2.0086871882381665 0.0787559751539805 0.7450565880702718 0.2099197744857159
Ni 1.9515304862513008 5.992490155169573 4.228681167112611 0.6050751904469063 -0.9504843882229049 0.4465250286824181
Ni 8.16052776702453 3.8250421295642414 1.2628486064946929 -0.32146271426273026 -1.7815250937644802 -0.006971546221826703
Ni 7.9395066216972 7.075062632328445 0.5261430842492816 0.4550523494271389 -0.22528160165376687 -0.21865535458650087
Ni 6.278153905396946 2.2642507179652673 4.030047717157676 -0.628076536438086 0.023159211725282694 -1.6910508017323072
Ni 8.622440956748502 2.5684311613448547 7.407472281094266 -0.6053135317099575 -0.7439093618397059 -1.38858185496326
Ni 6.551298160104985 1.5765259946357812 1.6396679182848326 0.2053694361108721 -0.6404579408215745 -0.15363266985821283
Ni 4.627266345027495 5.847663820320835 8.668723477343887 -1.6589881168698073 -0.10917701064799906 -0.13295637245578393
Ni 4.744087333019154 8.55161690851257 1.9448580281168983 1.0609428366864888 0.9122191740941192 -0.9673040308834051
Ni 8.618691556692307 2.080603813492931 3.0410481051850256 -0.2118357605615061 -0.06893950328419095 1.0715152128856966
Ni 0.18216556902015896 3.542390796581035 12.444708346025456 -0.3214485731953432 1.429525130144841 0.2572959497768343
Ni 6.475103349626395 2.6516549453931657 10.793189744123206 -0.5167683383796972 0.17781080976631314 -0.0995428299923447
Ni 2.2281569847461746 1.0939128001789593 10.213469851896486 1.41919340920153 -3.630716480527682 -0.33949951715978305
Ni 8.100740036398722 -0.08931678944675633 13.11574962094765 -0.9398377071423363 1.807873758961338 0.07022171243072423
Ni 0.588536970344124 4.2386553082449 3.1690841291187257 0.2897478996579526 -0.3985137909104621 0.46213291042300414
Ni 2.2706716807150653 5.219883436464712 1.9916444607100088 0.9674744950229982 -3.1314727812953103 -0.3097156010291311
Ni 0.1615005709708816 4.728776515099263 7.98756987701215 -0.44451596867218923 1.309130910624784 -1.2099007267768518
Ni 1.7275245605352574 3.333520655367026 6.808283145430786 0.4969826711123376 0.36983622047011144 -2.0378959606238842
Ni 4.107002541161171 1.4820540104188857 3.3194341501436173 0.6053718957517187 0.2361707377624449 0.03854083638767556
Ni 3.1231489116735083 1.2539854669515356 7.628865602741668 1.4177211955313778 0.7956011337870427 0.7520152787762919
Ni 6.722462418198591 6.218522783618695 4.407803918347607 -0.7816485282616926 -0.23954325377910357 0.3522149078439224
Ni 1.671790235375607 1.1389056008532954 12.530029767402503 -0.959294016094735 -1.15867483872234 -0.881042748491315
Ni 2.2532973109214947 5.446321405460449 8.7793657856852 -0.7436399102284031 0.1977977944112013 -4.453007979121718
Ni 1.9827785574813066 2.314678766878313 2.617476446256832 -2.0099727518510546 -2.134998813716168 0.08486003116918933
Ni 3.197547326547779 6.998637514721096 1.1088210412377795 0.3388217743664681 1.309862646584486 -1.1205435790682574
Ni 1.7969944028540878 7.762078009701353 5.64757575054066 0.573251103957774 -0.2358742895679486 1.1835392060641874
P 4.501841082705406 1.7251662155367664 5.910172859980058 -1.5194551196377701 0.8303477932396087 -1.9063480384798523
Ni 1.1324293643925953 0.2912362615148225 7.220098086050097 -1.0457257626264185 -0.3020146328404476 -0.8373111119313192
P 9.33637463133075 0.4616653792534286 9.05571499439705 -0.4999319835486487 0.2677747378209711 0.7290329589485057
Ni 6.255878599903387 5.357938741727939 6.667169361497642 -0.7303339371481163 -0.02114809483252487 0.06617813848896989
P 7.851464812515253 6.3933811680575925 7.437836894178353 1.618868366030786 -1.7472967687092296 1.1412903246973054
P 3.7068945725109326 3.23877230259562 2.0167092461470957 1.2380000561162292 -0.17477819358757643 -1.0069309012464076
P 0.45981923730929736 1.7890994744802333 5.523194240126106 -0.24058429344910823 0.748956180234994 0.027406674147726993
Ni 5.145374474168637 4.380275767861315 4.633052581330434 0.04679407753540328 -0.06660468450342723 0.8864407795784346
Ni 7.5765702236286465 8.236676516077367 6.779307744947373 -0.0024636310491441445 1.8940363109920348 -1.2185789712771402
Ni 0.4760614172578891 9.15809848910107 4.2231934088485445 -0.13455045641578117 -0.19417382450536882 -0.5125748691236399
Ni 8.556352023079851 3.654891222837176 9.691943043736048 -0.9287351694712715 -0.7278188840357465 1.4281035672069662
Ni 0.5945977327445429 1.5404598982721396 1.1132300409107396 -0.798027226730032 -0.9244828219528208 -1.643611634413737
Ni 6.525227393129479 0.03606425390661156 10.862694593125607 -0.9200983197318798 1.187731389768664 0.3954783465182479
Ni 4.617031496225451 4.87072861698109 12.114453450756303 1.9537653514215514 0.1985531845199871 -1.983344864850881
Ni 4.895288569191938 1.310023797521148 9.640693258987593 0.02848370926198965 -0.062346166337389396 -1.7163000632173993
Ni 5.7482632635485 9.11945295289533 4.1910499035019235 -0.4990598653563405 -0.6148338124955669 0.3325608810584208
Ni 6.796676587369854 3.2070544048229457 5.91931513176327 -0.12738813433938706 0.08683875216211497 1.5530409260130156
Ni 8.40002875636347 1.7854698341309931 11.476176589199865 1.0256619019970077 -1.8891722980315142 -0.26389108649584875
Ni 5.644790876739707 7.563249259301232 13.266867946554079 0.16853735488418714 -0.6385797499622551 0.4390531457854051
Ni 3.407117601433215 8.437808337765077 3.770713599118535 -1.498820216996238 -0.7500630401459276 0.2384021981961249
Ni 2.9286683598643544 5.103375666168167 10.66056968709869 0.7291129202568217 -2.3233272351843537 0.7650721119602502
Ni 3.6247394135400626 3.3695314780197654 9.00003041557721 -1.4019523627328951 -0.8424021533009814 -0.586897491096615
Ni 5.81617622967692 4.177891075393156 2.5062132298963835 -0.4386643949874187 -1.8316523494381747 -1.6377230368434441
Ni 7.291256540236987 1.440644788668038 8.926493349364499 1.7700590021064095 -2.0747900054367556 1.1693145778243732
Ni 2.4553319365539403 0.9714723182455849 5.151222432782083 0.33444755655817243 1.1882774920801213 0.4221874803783181
Ni 4.432113296402366 6.509833664643236 5.408642237966981 -0.6468509888321118 0.2860218569566171 0.4716583334149361
Ni 0.4288724078037083 5.413848100305446 0.603463635973245 0.44927199529993594 -0.30318165656535523 -1.302952549728214
Ni 3.0029285904613694 3.682279346589183 3.9457239862624127 0.2881129351576909 1.7161607094260574 2.4597908494624474
Ni 5.2636233663586 2.5529453100071064 -0.17389201572662472 -0.1080369835062849 0.8534170163542465 0.905088476586609
Ni 3.992963663284921 4.226062114444365 6.794692261148467 1.2951597931566727 -0.9600920865159982 -0.0710884313063937
Ni 4.056648190529328 6.105506469394134 3.1203152127612594 -0.9116949261595331 -0.30323384995952934 1.8343108701069442
Ni 0.28651496537526533 6.0450093928117505 10.077276349462148 -1.7179481403437835 -1.6121719278472173 -0.8245016188714768
P 7.690867045489106 4.214058506893451 3.4844538140419345 -0.21424179889983747 -1.5477958755639925 1.8010528793847629
Ni 8.543924650412022 8.824153152400685 2.114111658270319 -0.36611583419573074 0.3666395679096847 -0.4343531692065745
P 5.266727906454269 0.39117481573993873 -0.2583686705553843 0.14671665946466989 -0.08377296875259765 0.4334939065300728
Ni 7.299151468610842 5.068405831737417 11.416419259115054 -0.0505067505003001 -0.8329672331403267 0.481129763240481
P 3.853167236128277 8.755650600022642 9.941987493429572 0.4910459939129284 -1.859366270413675 0.37177071848866294
P 7.1477567744499 3.0422189866276357 12.771863307341516 2.5555698415369856 1.450992813100314 1.1328522212322811
P 2.571544913725674 5.6531924807968315 6.358580839673609 -1.158067544155644 0.8706832596338618 0.044464658071278265
Ni 5.9477092370536955 1.024065254168964 7.09359959250799 0.6366979595585098 -1.014347248315137 0.6853062074845165
