# total energy = -340864.39254545426 ev
CRYSTAL
PRIMVEC
9.37059819163850 0.00000000000000 0.00000000000000

0.00000000000000 9.37059819163850 0.00000000000000

0.00000000000000 0.00000000000000 13.71481764804386

PRIMCOORD
 96 1
Ni 7.689653308480838 5.758410535359866 11.190207939065507 2.729039343615468 -0.3600752844286057 -0.6089773537147899
Ni 4.074495326838667 5.629414882776684 5.788187484743388 -0.17421177956114514 0.0646691580436112 -1.5329778367145535
Ni 0.7973460611240304 5.081553497920642 1.3032768309420102 0.8142899684457976 1.1833255473914845 -0.3321410199121828
Ni 7.578302492002127 8.221088034977274 10.37595919320157 0.7031470923206793 -0.5161165637283112 -0.4955672788220497
Ni 9.064095146218067 5.415896435895937 4.948992332784222 -0.20619013223995458 1.1637401690603892 -1.321045402674183
Ni 8.774075136959787 3.212381566199568 8.618514776000312 -1.0634141810451168 0.27617196074573086 0.46529716708359864
Ni 3.83649150728613 3.48772721893124 4.344936408557551 -0.416279085313683 -0.778094492361847 -1.0371326216407686
Ni 6.310104494813214 8.426051125849854 7.631774872642884 -0.5311886275700851 -0.7698505071855 -0.3020218319292992
Ni 3.6208927876410746 1.6335013910798568 1.1456586866535168 -0.6555824551678386 0.8055343337403547 0.10552887237245052
Ni 6.426552916624284 0.29474091654953244 2.676871566616655 -0.5350612231516141 -0.4699431504960423 1.441485130720195
Ni 2.3008097891189445 8.043627649344536 12.137983958723524 1.0530297524869994 -0.9752744506833914 0.0010472103175917448
Ni 4.089975554796491 9.66895787893576 12.990922029764377 -0.2955323675502136 0.28283446036757093 -1.5175059663311994
Ni 2.2427683048751392 4.018196773829822 11.626229362225283 -1.2559579261462306 -0.6567456222380044 -0.9276254813468605
Ni 2.378548270437415 7.236210069449883 7.745031668762407 -0.303601003490961 0.41892783579043985 0.25434843711273614
Ni 4.783971416046164 7.2664677305127245 13.584855833991021 -0.5735861186996896 -0.8255526858438105 -2.2872873108416605
Ni 2.2306708628088248 0.6297369852080354 7.317692104684304 0.5986116942097497 -0.29458183071148625 -1.0177195072214795
Ni 9.167771442904128 3.412902993602408 5.90289859767832 -1.9378597359348884 -0.23033407647600979 0.8626950992220627
Ni 6.239047249895426 4.582072510731821 12.61032207163714 -1.1297661261077898 0.6262096584326764 1.853005875413286
Ni 5.579254071482353 2.857948066032036 0.8131242740994452 0.3441763538101621 0.8558207406997325 -1.522293874638146
Ni 0.17053551368308253 5.746837846783647 7.45621109605292 0.8416868724015117 -1.6102191749962202 -0.44365747732663596
Ni 0.43363848007885974 -0.1464774402817997 11.393173218436509 -1.4684626877503033 2.536262913678258 -0.6949154484395064
Ni 7.797668192058227 1.3913463965967412 10.410081288895048 0.08731003537157866 -0.1381805969692007 0.15650150676557562
Ni 5.684607705217113 3.3044945449074477 5.667387357203738 0.6347935434469455 -1.0530343804726898 0.4198830006148575
Ni 7.337628052008924 6.933099334733323 6.413295394520936 0.7149206879168397 -2.31735764786448 -1.2981242751016353
P 1.0816293902637975 1.9779270925434196 11.559656885528208 2.124195295342761 -1.5281369636824844 0.012612546557687955
P 0.3233212405636762 6.869491715255287 3.039985051746253 1.601764616470964 -1.1097961107437662 0.5636210370671776
P 5.927587312327522 6.552062706737543 11.746151464728829 -1.8225509013575385 3.382336088072923 0.7577344406482563
P 8.048968890225867 0.07493573544547737 8.64786442611333 -0.4098436141009845 1.3391076594925324 0.04451787990671688
P 0.37868929318740435 1.0638065127966168 1.5449876590781517 1.5280526314987941 0.2481590204725726 0.205049333767292
P 8.290561648826738 3.391631736057455 3.8625455180693846 0.9880412634307565 0.8878590000822001 -0.32417985608357713
P 6.2400967568756185 5.3834366842943 1.1052432973181063 -1.7885557753590164 -1.8808756052403606 -0.4124486558239993
P 1.8869666973941432 4.908066245855772 6.051402898315614 -0.5986253210565045 0.19576996534789512 -0.4907600872413935
Ni 2.5346530631428648 6.525206572762285 4.11580279710724 -1.2808197223849167 -1.3787314445317416 -0.07116119352585809
Ni 5.121547210344369 4.901553680219762 7.769704453394945 1.1207641797194956 -1.726731285853052 -0.17758763801191352
Ni 6.975276396499769 1.79126477963793 7.175263699814475 1.712074712282142 -0.5863573023224289 -0.3820965258947032
Ni 7.705367801389598 1.6993485834888364 1.4740138124828972 1.0088651421546433 1.0850880664741247 0.4448586967235887
Ni 6.65604823315884 5.208178389200355 4.50000949841908 0.2944265360805446 -0.10443769619080077 0.5183755349658169
Ni 8.009256295743263 5.129277953725244 2.183878781508947 0.5534268701429953 -0.5919155131364967 1.8355275161228646
Ni 4.408847635411999 2.5549872608840754 11.97546311754185 0.8035425001213065 -0.13903086078463797 0.37169101429066315
Ni 1.0616137928558596 3.1461220674769415 0.05363730316621597 1.061308447556024 -1.1351345895085547 -0.47386048327257746
Ni 5.871176312142229 7.459445826495438 1.7983967418042137 0.16724177600121518 0.27108014804512026 1.5280454324099426
Ni 7.678080619904619 7.288216888557586 3.5368047890924452 -1.2725489977356923 0.43379009761425297 1.3525941240147414
Ni 0.7727013882856048 7.352883385613851 5.658473107290737 0.8889645744415529 0.8382871026913434 -1.3692697848982094
Ni 1.4728518583262569 3.3122440294843973 7.666020660230454 -0.3381941680847982 0.7862166072483492 0.5660175623238123
Ni 2.5249826059682428 5.574756184424389 9.421146791477254 -0.29190299832774247 -0.9930973377974253 0.28165920911254716
Ni 0.5668199788053583 7.154076777651859 10.62149509945659 -0.09630555400196962 -2.097375089826123 -1.408876086435922
Ni 3.496432504508007 3.3068934180050285 6.610076079187237 1.538648918957402 -0.19174670312111491 1.9553951737154904
Ni 1.6238871574934597 8.037780396169184 0.8074353840309251 0.34498625130596716 -0.5584078682973544 0.34822481284792284
Ni 3.513505734132194 4.053954975940632 -0.21046925427936938 -0.0441466126102272 0.8588394729213983 2.3856955130089297
Ni 7.570609231013401 1.4362784141861902 4.658196438008445 -0.7730654145783719 0.5196477168100212 0.8543636965382319
Ni 5.75282565892956 8.96185255103173 5.137172682571773 0.8181810759700876 -1.31089443028311 -1.379040234021412
Ni 1.4750820606591637 0.6910047663561258 13.346327260948389 0.21368824038921264 0.9102103711942066 0.5616950236890585
Ni -0.25323760078197705 9.33096040772587 3.6714424787539595 1.5276456258683626 -0.13764015108469843 -0.14777286864332614
Ni 8.971410561029904 3.2844320945093224 11.447113191919334 -1.9124729204306676 2.1238523101810456 -0.42234097523704683
Ni 5.885916262855096 8.961412132923972 11.664288046154283 -0.6810602877239691 -0.17413104692188075 0.3441753253688976
Ni 9.296842060271608 8.045276874599123 7.6547468937316285 -0.20431322693221587 1.0456576283926444 0.7161023669297667
P 9.299531421908348 8.00861909507672 12.925954736511112 0.11936423559364605 -1.6629532721651423 1.0105348165475823
P 3.8551671091747166 8.819691208205969 1.12996762023985 -0.6092948849552087 -0.818975546846925 1.7505145043155788
P 7.275819587354074 4.476634541614725 6.602080147881902 0.7253783929150539 1.1140703126390878 0.35427924657211884
P 6.675689006645281 2.654090705727873 12.044873948384463 0.5240095933231428 -1.5469304422399035 0.7166255864230884
P 4.523309490439135 6.874045825901476 7.4691172207298635 0.7328793292777894 1.9771868156692853 0.8467462892022901
P 5.220800584756765 1.5316992140012804 4.000845237443924 -0.46526965627977285 0.3082019925980821 1.0519681439917044
P 5.27004307744343 6.916054216903248 4.064002131156359 -0.2723669851773438 1.7471975241272037 0.6165317690232801
P 0.28716759921568624 5.04685417338806 9.538216483938205 -0.13307798563531273 0.2103342363153152 1.0032159142886659
Ni 7.78328432407078 1.0951136808396509 12.952479151315845 0.9172796193361622 -0.31530055131607637 -1.273837891750445
Ni 1.7563030783603006 2.492026212670622 5.469702409826827 0.6051137569943256 -1.646502325697971 -1.2714917601157716
Ni 2.981415065773137 2.1638584988019898 8.99834634508848 0.9398413066867619 1.6818385391054196 -0.9949755286567444
Ni 5.742040100588485 0.6474820867115055 8.978460061933458 0.41873963103903367 2.7965886514203513 2.489790995368964
Ni 8.783829929516747 8.196349656158475 1.5228243206000363 -0.1167360539421796 0.849295280876389 -0.37157788575156653
Ni 3.5119595854560184 8.579354109742113 3.430062432728539 1.1518740137504226 1.1985282232738521 -1.0396049944406611
Ni 4.916462301697304 5.171042709178043 2.912972217707791 -0.552396629106268 -0.4589411429585838 -1.26974520973831
Ni 7.65054043227263 6.5907351648379935 13.880629390444279 0.7752385109702906 0.5421677522894083 -1.767980008090194
Ni 0.7917574364545106 0.7387095439048487 9.222899608218098 -0.03227197265982829 0.6523516069353669 0.1718985580469362
Ni 3.152690856701176 8.24329635232597 5.738595468749928 1.5144949474190175 -0.8246288884779605 0.9400199983564714
Ni 6.3477368165315085 3.134521267106611 2.964458031564614 -0.28704078513943465 0.0068386201883882235 0.9993710866212788
Ni 6.0429674859623255 3.3282396403342807 10.149870089053621 0.919640663369171 -0.5397483442146382 -1.0140747113800408
Ni 0.29911604877320586 5.3744409101783726 12.581891677191596 0.0548665701308926 0.6814611227068135 -0.0006489464379085597
Ni 9.337351155587392 1.4038092919865155 6.9272858157109045 -0.28581051227675935 -1.8561019978401068 0.2234520046441958
Ni 3.426509101952748 0.8739722524554591 10.640806027892113 -0.044389324748652585 -1.702993318806164 1.8000380649670031
Ni 4.830880629821508 0.7252383721662475 6.780879591974189 -1.6549329729638271 1.529794039669933 0.3920564653208925
Ni 3.7096323510554816 5.940265731472157 11.526371584239474 0.18588818745780888 0.29902726807734953 1.1664688808454622
Ni 2.291785903208905 1.8835089467183335 3.1344116311095727 -0.6257581727175546 -0.7019792972648233 0.23079918903788638
Ni 3.2594500801415496 6.653490059894622 1.8697135522876378 -0.03439159010599239 -0.4131024873579143 -1.1296514549067964
Ni 8.286691591837283 3.7260215270229367 0.17679507317208187 -1.5826646624167195 -0.07053898656082691 -0.1433667691558305
Ni 5.595661988645882 5.6265099973850825 9.904470993529948 -0.9550095297867681 0.6111311668329992 -0.3731508866656412
Ni 1.193579925016904 4.170693886290864 3.403633598023788 -0.4310073926627932 -0.23950005924599396 1.3446157337949554
Ni 4.58047950906546 8.210443035606762 9.450798174847076 -0.12662657358301418 -2.375502117415696 0.6109396196474833
Ni 7.668653798278971 6.318275656301848 8.877765489542906 0.25301917677835134 -0.16838051759134873 -0.7880482611404492
P 6.994561087260788 9.1247978803045 0.6807776956580812 -1.246133226746325 -1.0634900285883748 -0.5125450443269689
P 2.5793227039872653 8.75504345234578 9.323140643663638 -1.8302750094746736 0.2310380445215698 -0.2408393468827078
P 1.9302776015231178 0.23607253929702346 4.814833480682419 -0.8779844212809653 1.389863292778845 -0.5814135851639084
P 8.30499236980437 8.666116476970624 5.64762476594281 -0.3112294665704962 1.1658441027772697 -0.3758523447572043
P 2.1397292088556226 6.058466455116225 13.540708135457304 1.6765196979956674 -0.09563115364276432 -0.9311620337452093
P 3.078663132205525 4.006071219969395 2.380178754495927 -0.12050297718377957 -0.3368291694164715 -1.6800644779241323
P 4.005274719136215 3.885696517580645 10.257023814671369 -1.629631260974245 1.0650026085781594 -0.24003639136543817
P 5.370458406012467 2.6459476560333512 8.130829497621 -2.045072166657349 0.28067139127798113 -0.5291602842861468
