# total energy = -340866.8742775413 ev
CRYSTAL
PRIMVEC
9.25562902599734 0.00000000000000 0.00000000000000
0.00000000000000 9.25562902599734 0.00000000000000
0.00000000000000 0.00000000000000 13.54654865286542
PRIMCOORD
 96 1
Ni 5.923954272069754 7.609589425028396 12.378132060246912 -0.6167742240513894 1.0171816324401386 -1.1490745966284146
Ni 4.428013235407439 5.835812917130015 11.085262300470488 2.0274089450496313 1.4117379813647493 0.045737868356747036
Ni 0.8064216665738781 8.795383589625635 12.60041709736796 -2.143567786332102 -0.5926091967694116 -1.897453049983068
Ni 8.272153626788468 5.236483172678384 7.214715599560628 -0.9252117296990453 0.6406016654882903 -0.20778704441342924
Ni 8.740710589139546 1.802728115401426 13.191940644323404 -1.0747404046912135 -3.8316481925821755 -0.23023303212177124
Ni 2.7474224002522374 0.5635521105631964 9.633316045120267 -0.45278566488014926 -2.6406000797354525 0.6683531245699457
Ni 4.567532586910287 8.069927388830015 10.08750549457909 -1.798668438312986 -1.0917125137691779 0.1500410958522126
Ni 5.165751655882261 2.0286117410765616 2.2581152432524774 -1.085940130061775 0.04074170069373628 -0.1988959125713865
Ni 6.737070535097261 8.124091329721264 9.405043541600971 0.6860569696076121 -0.30691309858332944 -0.4876505950781343
Ni 6.888002077153578 8.502044939819363 4.811449880123445 -0.1611212649257741 2.3742533326102593 1.41354238156334
Ni 9.131085253351804 7.537913834074564 5.146645260943471 -2.266447491278174 -2.5519566702644307 2.071611093488142
Ni 6.459651567166065 3.941370773995956 4.01652463032691 -1.5245176217623424 2.3768740580625582 -3.447063867268612
Ni 6.081744235212949 3.903422695107693 1.0534173819914838 -2.0347173057855863 1.6594077209057292 -1.3060229611234218
Ni 6.799981045390803 1.6536939772895214 3.7543450555395017 -3.719919619156916 -3.028443278305945 1.0605723407209477
Ni 1.4206742616575931 5.214649143874137 7.119795421943386 1.065825618700087 0.24626231767049198 0.8311466349918202
Ni 7.190050273846157 3.350417373786734 5.863664030345301 0.34100772627419335 -0.6913423863762674 2.332904080239511
Ni 5.133699412665174 0.8753390800865624 9.199285355617212 1.0622453575479964 1.303065935377627 0.15798631884121825
Ni 0.2864071092503158 2.8574255508832143 1.400238758394814 0.38047133158645446 2.084286632073281 1.523011726640777
Ni 2.4539356603820113 4.792416604653732 4.5224206511782405 0.4362467866848616 2.0772271541233382 -0.19931423105572768
Ni 0.7344702578759325 9.096210043290592 4.0310328287799235 0.3940786379572439 2.5708817893037077 0.6779806203573808
Ni 6.215562119253561 4.113090458779844 11.387120756768626 -0.32666636995085674 -1.4345302966689166 1.1119298692573172
Ni 6.495433828868998 7.2748040685729425 7.016882083124217 0.1880121757793472 -1.4764143384972122 -0.0963826870968082
Ni 2.4782872202734794 2.605487329581137 10.344564855405283 1.1656944645732827 1.8972879851601132 0.7857059861605178
Ni 3.7613395343726386 2.7266250018956697 0.4221723776319244 0.8604500119416277 0.2854413018627987 -1.0808904834530093
P 1.7051922970295934 6.839854295110471 4.318598742780681 0.954001657347544 1.0060749810040157 -0.37363399694964683
P 0.24678561263937057 7.050086652151447 7.479103567426754 -0.9170384498596335 0.7244509960047781 0.000863633551875932
P 7.046986016437406 5.381981660513383 13.133324745884535 -0.14053804145778376 0.3765547701408676 0.3437428658171693
P 1.349137505138719 4.958147897476472 0.8495334608796439 0.17444934949324795 -1.5225257881432939 0.30561134905277043
P 1.6734362339404152 2.6638996041820704 4.5352489529682725 0.22525820461499915 -1.3448517610651614 -1.6645794949146555
P 7.832011445458601 5.4624038208695085 4.975213426221393 -0.21818767092146293 0.11890760767220168 -0.2952665154833366
P 8.228892816855849 8.001972560733034 11.007397470406271 0.4327991944558934 -0.07322604647468679 0.8372357786086936
P 7.737483706510839 2.555358842932642 11.146817786678849 0.04981280975706905 1.3749922892042836 -0.39476846493541684
Ni 1.9713564201002702 8.075989825823141 6.3433342264332415 -1.2503578063506338 -1.094168431508838 -2.776011598599948
Ni 0.5129960138550331 1.6815441649419076 10.960810187412081 -0.8080727838914921 -0.6079476268986949 0.10683190745459022
Ni 2.0664487524168584 8.458811896773735 0.8128524776010891 1.1560206889289446 -1.7233132613104385 -0.5529941534809509
Ni 2.8141092071766116 3.90133092295434 2.2739775402277713 -1.0729902547693262 0.8500969508420778 -0.32280097345817954
Ni 6.3343118392868325 9.008207522785812 2.340356134706541 0.5043342263814024 -0.5349249546840659 -0.7532967165918768
Ni 9.26266327517511 5.947620915415434 9.558539818452397 0.2734974992373612 0.6638161559315406 -0.1769978269467145
Ni 5.136226199381394 4.023570015119532 6.955218306056588 -0.2617645270711492 0.5745875633810104 1.786562913298704
Ni 2.84935464239771 0.7476039954228701 12.37985175611458 0.36920398620275124 0.3065292328813495 -0.7230623431873676
Ni 0.1052818542795369 6.6338517605211855 0.5172980302129025 -0.21581274293138317 -0.21856022376953327 -0.26927703339811043
Ni 8.717016178906874 3.8754706955363383 12.667269580051382 -0.9156292282169328 2.9961651349985305 -0.4673219108231113
Ni 3.249086747526075 1.8630285383177754 7.785133535713901 0.8280728811625029 -1.0182455549282785 0.9361227201845942
Ni 0.6414845067190923 0.45073895096868893 1.8598464530685594 -2.7573474465315417 0.31156885218778596 0.8601728470208412
Ni 0.4436648737261769 8.621794267784326 9.535347988874268 -0.5754967054588411 0.21235666606198267 0.5030605018753014
Ni 8.981940047691936 2.8547691853610355 7.107413241471016 0.4751925718204397 -1.6353110849678418 1.477897607910958
Ni 2.510570854215494 5.260020237218104 10.035066802932908 -0.0642832354591022 0.7791787265649613 -0.9864086129233399
Ni 7.236495020153791 6.087501236449168 10.96227350235653 -0.17448765893035112 0.5030527885658175 -0.517441967407954
Ni 2.8235684600116855 1.5720963520507591 2.8455746435152793 -0.8166785232826321 3.6156197340955596 -0.11536514173658195
Ni 2.4196435549476174 6.322723791782416 12.450145481659138 -0.515498470528338 0.14055295385611924 0.4133878798088171
Ni 8.431211611104272 7.607192217118137 2.709323454611321 0.6510295456898336 -0.42194116869546683 0.597970203971009
Ni 5.719756585134911 0.13600128692103552 6.9027796144104085 0.21416440869468278 0.2816769497243601 1.1428635827216962
Ni 0.7877558395753514 3.6580467147645863 9.023816215526583 0.524949845749225 0.20671875104991494 0.5362225904495669
Ni 4.948605343980423 5.842467714378956 5.485241159857045 -0.016959767782790146 -0.407553275404911 -1.0685023942013017
Ni 6.54017553944116 6.723335181665509 3.741638002489332 1.7574284578265928 -3.2343282206006556 -0.5155177538020477
Ni 4.152297303211717 5.268202213251573 0.7650536327711731 -0.027497948309952638 0.5427693904291491 -0.07016000595485336
P 8.222987725555674 0.9902134682587324 5.270393020635196 1.1884479562197146 -1.1932667177645964 1.3636436969606838
P 6.297863172296106 5.889541843458397 8.782444220287639 0.3246321131296474 -0.01969876398050801 0.004460092653882641
P 0.9101559796850938 1.4494407565806957 8.695895759098306 -0.11806685693846118 0.41595795452883844 -0.7881428777367846
P 1.9857304119328245 1.5145263396885653 0.7503131180303323 0.8741789314919461 0.3563942360325927 -0.8697512347378956
P 3.832617133279592 3.994285204972589 11.803364904027884 -0.01832939443680714 -1.3817566045113108 1.2421657574581446
P 4.901123967225109 0.3427396440155925 11.575891161291041 0.7708573511834595 0.25284999819033877 0.49940285051805605
P 4.669973888650603 5.066225877276044 3.1632000638100393 0.03157751769596497 0.6565777292015724 -0.36429189361311454
P 2.2299309273932946 7.924725081122926 10.821741585041394 0.10437624682524604 -0.36398901766071506 0.3824569945579155
Ni 0.3144914643163295 4.15878549913871 5.303961335882013 -0.08355339654262384 0.6647492092687713 0.9057538780847497
Ni 8.548795121883904 2.6293205742487653 3.9562019939009687 5.045861173581136 2.0038136742281942 -1.482814328486285
Ni 2.070789642416516 7.472902295998672 8.44964604737787 2.123479500222659 -1.3854960169490849 2.834218288847667
Ni 4.179666198156252 8.097999711578334 5.603407775263497 1.384890522154602 -0.7083144954542316 -1.3154134011993863
Ni 4.106768864174799 3.2785381589949663 4.1522880475827195 0.33360063517684485 -0.8975721136049057 0.543509096808651
Ni 7.128555874789177 0.6385578768301976 11.449746193689055 -0.931109583240719 -1.8771781017841156 0.6210283713420531
Ni 4.186487596727142 0.25060633628938883 1.000282667044718 0.5584940002532575 0.1614213126646962 -0.2160022332343699
Ni 5.992779129292466 1.8228498528412025 13.38995094327366 0.26498406244971134 -0.610560896151826 -0.4728171296097276
Ni 2.634540749003151 3.300029729526319 6.315739494141176 0.07510500866495452 0.8290517001360045 -0.6030702442017355
Ni 8.463448966901302 9.019221721292404 7.304921885329628 -0.7272794665925087 -0.5088210585081624 -0.7310127083826959
Ni 0.4191948417835453 5.396762900021811 3.246199916841868 -0.3000353976268897 -0.12460800049108864 0.17555003875659445
Ni 3.085798940758579 0.9545330184747681 5.42463437562089 0.921947971346109 0.2957339420380584 -1.440577788414577
Ni 4.525326918683341 3.585186403299121 9.713484601241872 1.4867861686498396 -0.4422983921955802 -0.16256879600557808
Ni 4.223010308749846 6.257601186158558 7.948275103543242 0.5285020818768575 0.21857899282261065 0.04568798895541809
Ni 5.126211608806491 2.080683909814456 5.818702961365907 0.1970786568569896 -0.6010221034234553 -0.8474186326789662
Ni 4.603296337355226 7.3030892707881945 3.073847147034576 -1.8258565686920036 -0.22365460757330513 -1.2745853114394308
Ni 1.8005252757001076 3.1692384361677717 12.657922320327174 -0.21735411927657405 0.3228346549095924 0.2433582566498196
Ni 6.282036046711001 6.9410553425651695 0.976780773895187 0.40684776469745415 -0.45680609889345203 1.0894432581190272
Ni 2.8112954959614815 8.810164829134065 3.1197023097750933 0.14056863758540306 -4.128093558864961 0.9629992328604642
Ni 7.802134275055842 4.967199902635673 2.0487529153372317 0.37798790304296837 0.4391372208587792 -0.3919376803548411
Ni 7.9576103309497555 1.0716444921755461 9.230929425595523 -0.6135045521611822 1.6320848647210602 -0.5815796784281274
Ni 2.2706371837227044 6.431440409982791 2.2025064986747767 1.0170129680727582 0.5333730368159136 0.07505487215330946
Ni 1.1237074052844434 0.926812409628342 6.445068398118175 -1.5604271911747578 1.5065792921163668 0.6762695512035449
Ni 7.673481031995634 3.9877507309006104 9.195884837523662 -1.5269779103773766 -0.4785663733886791 0.30396378614701847
P 3.5459425363512596 8.86646682032365 7.531311793910907 1.2341837676939327 0.7712784978812782 1.1103661243146232
P 6.431514455014768 2.1683162051593516 7.6767482690316236 0.2898540862185137 0.14293456671441834 0.5998396530795799
P 7.247611030579353 2.4242528581881917 1.7606723883642337 2.5532638191116286 -1.0143526476317757 0.1132468098419985
P 0.9057910250500438 4.664559345687278 11.224534526679113 -0.886379587323196 -0.017913389945311085 -0.36330664688170977
P 4.920579299377091 0.3040039110996733 3.9129069381410595 -0.893021518119746 0.27447991775528857 0.3978771857677276
P 3.26071181754648 4.275647070856566 8.226967646024445 -1.193407614217835 0.3338461755287476 -1.638886718134242
P 8.254401330371959 8.459746715302447 0.8284500635870649 -0.5642550711067508 1.1946916231365812 -0.8241519488415419
P 3.927709465596181 7.419747218668113 0.6186925203136417 0.9070458574232959 -0.6602551780531596 -0.15686146120815567
