# total energy = -381170.31195669976 ev
CRYSTAL
PRIMVEC
9.25168508023466 0.00000000000000 0.00000000000000

0.00000000000000 9.25168508023466 0.00000000000000

0.00000000000000 0.00000000000000 13.54077628958488

PRIMCOORD
 96 1
Ni 5.693588741784302 3.6860656050841523 6.015367898465776 1.5169763190799745 -0.5780708939439205 -0.34625586204701014
Ni 4.863527560049026 2.5440005970800357 10.87386624252738 -0.2743639610027146 1.2022277836126263 -0.5517697941555465
Ni 3.9724607671639243 4.039794530880703 7.599666226858887 -2.103780736242151 0.44782266444791907 -0.737409098827343
Ni 0.1334527811878826 2.3532678583076945 11.311924277458095 0.6426027550787191 -0.43526899615262454 0.008901159144371767
Ni 5.664714232776323 3.1206396222159722 8.641533635549257 1.3865164877937992 -0.47929579535553585 0.6564674288759532
Ni 1.9575085273771342 0.5813518334950087 9.795586977027433 -0.6331693775799612 1.520880282120071 -0.8972759225207257
Ni 2.3970930903393484 3.8244060514783516 9.650564963697777 1.1634051543184738 -1.2327354652831803 0.8382022562870208
Ni 3.963560646156018 0.2536784282749301 10.649278812690351 0.6724949146524611 1.3849393731146666 0.19747512096445993
Ni 9.172324085135422 4.254951718157068 9.805011668577073 0.5131081159192905 -0.08396682993095862 0.30818039533152736
Ni 0.13325942097055904 8.709878608440842 0.4005359759164043 1.5297513593574557 -0.5982064883515311 0.1776028075205651
Ni 4.540865792614792 8.467595480628944 5.029261320676394 1.1056694901699022 -1.0266075537397286 -0.30162125405677087
Ni 6.801875847709555 5.299476210790754 3.0981700547607733 -1.0928875079138853 0.3251154805239691 0.14024210748391974
Ni 6.226846615770476 2.202456140480379 12.990600895275168 -2.0625083598559253 -0.29078482556289925 0.04661718563790681
Ni 7.7633942221697145 4.253036619353912 8.001840676195771 0.37879522943561217 -0.9204721581315308 -0.5087233565880335
Ni 2.605107976765295 2.6406344473166046 6.1093141341983985 -0.16916701804838608 0.2722615699477311 0.059100662816898214
Ni 6.076256938384106 5.701868999894567 12.83140159979113 -0.305748388851267 0.11985351652523875 -3.3270774247099344
Ni 3.622876596265027 7.893445158768608 12.359831186142186 -0.21471128233708828 0.47922740401144565 1.9209642457311302
Ni 6.789071515615022 1.4634963013281095 10.870981567132095 1.697537180787599 -2.2910935719616288 -1.4761340882526321
Ni 1.263807931437626 6.805807813851302 13.376445195349 0.39052743027087583 -0.41538485563418787 -1.1532567530305624
Ni 1.4438457223044168 6.037927207265858 2.0498301672168373 1.5462562989910145 1.1369593014221193 0.6385501822759003
Ni 7.48167116103484 8.639399271810666 1.4235419743169417 -1.9685057429555197 0.24006698749305752 0.5437147850615539
Ni 7.8026491217919025 7.3018554106089955 12.510336673194699 0.7310474182753732 0.4925835136033775 0.7215361363508284
Ni 0.6385401993975771 8.71378281952747 5.341551949181458 0.15068824251790822 1.825912875851236 -0.9889223804841291
Ni 6.167025220305692 8.839226416976741 12.506518502778937 -0.9670687749441472 1.152202600734435 0.308911617070597
P 1.4746353301155513 5.393787888082433 10.776061128964823 0.19671407442871927 2.0058271051137972 0.6154269659948756
Ni 4.22794604952705 0.9515173029325634 6.808031918934774 -2.2072159593103664 0.031968839597112685 2.460567322617156
P 5.949240554478135 6.3512262694402155 1.158495075465593 -0.073662362681157 1.2009738566008672 3.457381704254852
Ni 1.0787094688542818 1.8045966770458746 4.4631618151373464 -1.3194014393128568 0.2649843195600275 -0.9377142330414302
P 7.307794992404292 2.2432190647639905 7.055502466548265 -0.5454219975606477 0.9904149058692555 0.9804462246923179
P 3.83016059957286 6.528127739078648 6.94113776193368 1.0582148962323648 -0.22960105496472716 -0.21811053782662437
P 8.393563496943639 6.9752709287180545 8.547641984758368 -0.7993819409857136 -1.2069570707674955 -0.577851835954579
Ni 2.4026255979929116 8.313952747179572 7.010601263546528 1.1826740298504146 0.8765916546984968 2.0848700153805773
Ni 5.245372356680323 7.682710276941077 10.78719183123573 1.0333852387831943 -2.830642655681267 -0.5487662314425323
Ni 0.47741007724581525 8.591059217479785 8.623470645678326 -0.06473112162979819 -1.6078121082166246 -0.3603316234137859
Ni 4.281901876676851 1.8547038032192835 1.1836855634908805 -0.14000325200023633 1.1255698286382552 -0.5954788050077229
Ni 3.6411764292729663 6.3340921487472395 0.6166812431549786 0.4975408576086528 -1.1529299658187628 -0.5713124921741645
Ni 5.913010955863832 1.1922924060830373 5.561711522558629 1.936062277714833 0.31282920695744837 -0.8683507548459432
Ni 2.7076444020570034 2.1710559214566443 11.776332036549533 -0.044154068809394924 -0.7787750633686394 -0.7607904538657608
Ni 1.9568424060542973 5.960472100115972 8.605041289079834 -1.8987434866597173 0.15774206404089605 -1.334227705692412
Ni 6.11727890984882 8.235526213100549 6.930291086393483 -1.255597200372702 -1.5574408548529242 -0.6547941549385885
Ni 7.713786686988433 0.3813442804706658 4.017521099148339 0.39665642598674916 -1.4152812186313175 -1.1070941384315707
Ni 7.908238603146614 0.2080019340668914 6.544758568105479 1.6303555407347792 0.2605702496527319 0.30682748084805866
Ni 0.2230155685488353 8.267999627588855 2.7716077769139265 0.6187560303681086 -0.8485105801915644 0.5412179867816292
Ni 4.4899537698429555 8.311288261888224 8.744443828916557 -0.5459526732531371 -0.300086048359167 -2.006217141463364
Ni 8.79226486371673 5.194765639514787 12.64665192573377 0.1281180705268761 -0.1696154184397143 -0.1612639611512255
Ni 8.41401897256576 1.2113508772642085 8.772323781782799 0.04270628061927484 1.6544082108086087 0.6892803616409162
Ni 5.435725776366049 0.6517432791173098 3.248595052153441 -0.12302188695089135 -0.6887769396419363 -0.6477794141836521
Ni 7.3825578592077115 3.598452147761001 11.347386911382632 -0.6480013003864711 1.3902774974981282 -0.4566166085904652
Ni 0.5848406439233679 4.068345230912302 1.4455323044871 -0.4482414971528925 -1.107216265831732 -1.6061336920729372
Ni 2.7472323623406103 7.4096375413180455 10.188648516600502 -0.6111609916296701 0.9811967297050971 0.9748016248120309
Ni 0.6460766220306752 6.918659867961945 6.618203069790783 -2.0612624032639664 -1.4851607172312744 2.1811830255817144
Ni 8.428322077636677 6.3343234408732245 1.5422947531457163 -0.6875127282175322 0.05988253528824525 -0.5610910715564724
Ni 1.7007002540533738 4.109968561904577 12.426586719544002 0.2647063833082925 0.607476086578915 1.309600136951719
Ni 2.4977606752530974 1.1546287962876263 2.5054090432751717 -0.21327017901518752 0.019925535279333426 1.1676436178798535
Ni 7.530705091743679 6.007109844399604 10.327238758490765 -0.0823326367616453 -1.0327733162308086 0.8661393490169212
Ni 0.5475609790570917 6.3246276749519295 4.312317716412394 -0.8126457479741552 -1.1488912769730149 -1.0930433167654594
P 3.621331564863446 2.021345154149018 9.06255746798542 0.6186053637228571 -0.34626897467313267 -0.506918699279127
Ni 4.2693288367083015 3.837728477935092 12.810400274751684 -0.12242024881115045 -0.7856080271300727 1.946648537871112
P 8.401732734833432 3.1442961808617267 13.270312640082476 0.608951642683177 -0.19384035242535003 1.168568443686968
Ni 8.129862718265523 2.324865185236726 5.006214448074736 -0.38622340357888324 1.834078442381164 1.0840981917570296
P 5.72400828219386 4.8454590191670714 10.646868748737587 -1.619509599159211 -0.08683566683832142 -0.8656035311181093
P 2.9763688457115154 8.225673168533586 3.1277976509309586 -0.5761410239110593 1.7230607789800003 0.8888442468136046
P 6.178340031108883 2.9379651011129515 3.7350199713016514 -0.5511527293968379 -0.11583745338731018 0.7971864759962917
Ni 2.4251627027488984 8.648401161354005 1.0546291830337224 0.18231589672551826 -0.7279132435217658 -0.6520201917378771
Ni 6.380110030133232 7.592830156783273 3.4388291251021585 0.2667876913173534 -0.0217607887158593 0.17239915183243856
Ni 2.627996645552779 0.38365165071949303 4.991130500786493 1.049341762112451 -0.5346159080840792 -0.12241124995008597
Ni 8.109462752753638 3.4734248761385036 2.876359055604068 1.3976935874565413 -0.24110802716306215 0.33155043751603547
Ni 2.312949014905974 3.5088218230992614 3.193294029998911 0.7552808369014411 0.499754834540836 -0.48739091365884446
Ni 4.062017078345349 2.0906865335193467 4.340793477795173 0.07707267391428663 1.755329923426351 -0.18710174814993583
Ni 3.8331211387854696 6.388307023078143 2.929465578067252 1.107678293069815 -0.8721655006063431 1.129050588098004
Ni 1.201220282146062 3.7351087874780298 7.789453443420202 -1.5078566161668934 -1.596556332797147 -0.026730731126624933
Ni 1.5982008355018236 9.180373051119703 12.14940716093198 -0.05815989617018372 0.19306336505000943 -0.051688686623543235
Ni 0.9959623978618575 1.0960841333582814 7.188093915858978 0.6624886953693687 0.6966553139487486 -0.8398626747085794
Ni 5.035349854600827 8.882764846772174 1.0938304228826827 -0.2803554026994591 -1.1392794649148636 -0.1650627660720254
Ni 8.251254077667536 4.966063985340734 5.771552691611354 0.1199069954709935 -0.06366051427343875 -0.6847318230382853
Ni 3.7190386105645854 5.562483113090915 11.548779441657373 -0.29257405625283806 0.9290802115155161 -0.9721657298510806
Ni 6.350920963833914 6.057642548084826 8.14801359914433 0.11858236312229899 0.5565422758435254 -0.31848871923607086
Ni 4.151998967038587 5.9236503936591465 9.024318403380558 1.4570896700266713 -0.5096430401888254 1.0791076805209738
Ni 1.9762986996921625 4.998158080742424 6.214485439389327 -1.3684262059509917 0.47120093416254333 0.283938234954711
Ni 2.5628092727651426 6.998723950292942 5.180768765218673 1.400766312844594 0.28930335592136625 -2.1277781275980128
Ni 7.378422355995098 8.292821898549574 10.130098302660134 0.3851160294473174 1.4562525188373565 -0.35314487585735954
Ni 6.355509799613459 4.005119215353019 0.7861582355492902 1.0565614197893416 1.1564230665736859 0.8180275811113589
Ni 6.710589471425762 1.9530677185582206 1.777822300541841 0.6559642639872896 -1.532713527309573 0.20046222861724186
Ni 5.8169044516745085 6.139575470793782 5.643564880776246 -0.2858151402624497 0.3207083525952089 -0.18308439946042662
Ni 0.3673871884202218 7.385046562483311 10.886121024530574 0.07691197996670625 -1.1022226692718824 -0.024812173947673398
Ni 8.046273743934513 0.9484642468695603 13.019171949013854 1.6098507359132084 0.12288818958650449 -0.30954487977922174
Ni 3.7582102450214196 4.669112650631003 5.0286923420464715 1.4168385358161084 -0.11637301417580603 -1.3785388689049614
Ni 1.3372570589654498 1.9150895514714694 0.13639204152490103 -0.47838048263011806 -0.06952288659148673 0.8633707851328485
P 4.2925135594170465 1.0112369298619126 12.671905325217327 0.38865361028693063 -0.2983420690848668 0.9546040668182333
Ni 6.140981726919772 0.6278073195833651 8.468266227794302 0.029387194912865518 1.1179290242635458 0.5193440695266732
P 9.150989699434557 0.2747204607285492 10.760719059663982 -0.477158694407875 0.45772346850139883 -0.05454672489762864
Ni 4.6967844405838575 4.100226537558085 2.518638952881519 -0.6701081595878394 -0.4158983049354966 0.017164170484112375
P 0.8155332607179 3.9491465208646277 4.614696089566239 -1.5387008552412595 0.7982725099716188 0.9551823079192066
P 2.8415162845771706 3.962718742817432 1.0754695287534826 0.01612441636568836 0.11917783061445282 -0.5346683585885695
P 8.186094459935017 7.628800708216473 5.088854199520704 -2.7067450509936415 -1.237933207434036 -0.7305784490587547
Ni 0.09860353398145776 1.235349748256421 2.2094485640331603 -0.5758831422639824 0.8823213580934224 -0.4791106759279232
