# total energy = -340862.0272227149 ev
CRYSTAL
PRIMVEC
9.36450244167772 0.00000000000000 0.00000000000000
0.00000000000000 9.36450244167772 0.00000000000000
0.00000000000000 0.00000000000000 13.70589590180987
PRIMCOORD
 96 1
Ni 6.023650646332793 7.8090492245174365 5.966367984875742 0.0952809693921972 -1.0297203883370976 -0.6885571103216465
Ni 3.151304904835849 8.963542543966684 2.3959004589925237 0.9703165924574838 1.6652636654658741 -0.015857278747230755
Ni 1.0234090142218812 5.774292675223042 2.9135448700044297 -0.43906214464646964 0.8964197451680175 0.20264072432579938
Ni 3.899762762765354 8.042768476543769 7.170746945300607 1.6852390801465365 2.7710761089715437 0.6234400661073393
Ni 3.090210890883618 8.184116276451032 12.387772126765775 0.19551953989998586 0.36938113521056387 0.12584264422913813
Ni 7.231727648773251 3.64849443315679 4.529565819562955 0.46221312884163623 -0.0990265524775585 -0.7489029583995555
Ni 4.359026056183392 1.2316755486022652 0.20508915870074076 -0.6724193242195193 -0.7117227498048323 2.6518975070261424
Ni 3.4803641562563667 5.19195172616825 3.7544556512242777 1.4253509441624936 -0.43608866384044254 -0.524658025540419
Ni 8.3194520657885 8.492526799979968 5.920590551122816 0.1958614966204369 0.2854855248371728 -0.45040276647026944
Ni 3.906692494574773 8.229534113310063 9.931004274780195 -0.15288987815491734 3.0250450512576736 -0.024989580065802125
Ni 2.407070437509112 6.584013108148791 10.556007087624407 0.24533903452527428 0.626400948507876 -0.45084756731717196
Ni 3.003607972270767 5.128170100014258 0.5541818902021917 -0.8451234088868865 0.003090723110181774 1.5061149508854383
Ni 1.3731076290315343 9.012556349764656 8.367559387749782 0.40493229284229615 -0.8069538397957006 1.1313776935692839
Ni 4.905866176468577 2.8843042111194146 5.288612120407204 0.5496504338196986 1.2139432722773418 1.2953343710613239
Ni 6.837847311427328 4.691390976967051 6.82929190199343 -1.81903826021859 0.42758628279638616 -0.7506381959231073
Ni 4.500739071686016 1.330630245940283 9.006034910261848 0.23572542269491015 0.2669375866316564 -0.4502531282662826
Ni 5.428180664849886 6.913990080808934 13.468756911371242 0.6873062686336808 -0.2212845646792318 -1.1348828785090648
Ni 2.9558677388053356 2.9355935910115623 7.153984485923768 0.30928519835993185 -1.613161545453996 0.5655480788865616
Ni 9.04255085109651 5.083838545438866 11.819005024005246 -0.3650321142132487 -0.804915469209433 1.2400345700477549
Ni 0.38684104085789545 0.43439585717491275 0.9779799399599155 -0.73557564516303 0.00787271787985741 -2.936592931861852
Ni 5.702888344078688 1.5228366586272157 2.414293278245065 0.36967166986778915 -0.2876298248736853 0.40675649053522855
Ni 8.715982557326404 0.11542873003954536 10.323938797379157 0.4578322261651212 -0.49140080614918596 -0.34447125934276157
Ni 0.11882242572567174 6.992221134235811 7.719777422707716 -0.10226459979888196 -0.15904561334366804 0.4440714249356029
Ni 9.06292800841718 4.520891480948003 6.018313816389296 0.2552750626920636 0.18093958520328193 -0.7010603849949797
P 5.846689643626582 5.393503912295454 4.445424828642938 -1.0770621108458547 -0.06372530607310316 0.02874878999791823
P 7.818226436913695 6.466132751369103 6.4090139687048415 0.8324854084079019 0.9857516960656314 -0.41181667866695526
P 9.173241847221178 7.624212675254846 2.7350799282055274 -0.6931794395850062 0.40307801324237674 0.5536880942241819
P 8.279559285372114 7.199766601927917 13.24154036984283 0.3348998136042426 0.8651970397083101 -0.8413729407055187
P 2.671308603004224 7.188220170413033 3.3601651486712565 -0.211135649170688 -0.2108029484216176 -0.24716734598326462
P 7.2891788712743155 3.103751961419321 11.60557677587709 0.1313275786031093 1.230516089034358 0.6704346896893227
P 3.7714690792666463 4.982833022065357 7.102463802821226 -0.3142266015256072 0.6703146191716908 -0.04493671261169035
P 5.881843985805717 5.028840822578434 1.573683097553707 -0.7026763233318479 0.7713450894531554 0.046573991104797215
Ni 6.1971467831342935 0.7113978395027795 6.75770589950164 -0.8474973084357018 0.5595399250192685 -0.017881251155795013
Ni 8.53589381080351 2.871240730208415 0.01647684205226104 0.35718767846816546 0.3611644037277264 -0.9628796765634643
Ni 8.238589587174534 1.5796230014546728 2.0267592642062273 -1.2710348750840113 1.424347956819276 1.8286274465689218
Ni 5.607342325630708 1.8493955878948753 12.225439413329154 0.47812311520367334 2.569118269645382 -1.6701670163047624
Ni 2.4008711368904154 1.1481910093036536 4.829765547347975 -0.6910981315759454 0.8374484088401319 -1.2980846801129513
Ni 7.563858456995782 5.334301527837145 0.17549171227256444 -0.3648909606496941 -0.3487454612380832 -1.0344206220262442
Ni 8.121683138649143 2.4351826738494857 6.768533137228736 -0.44423160466255107 -0.9586869786383554 0.09067329541685674
Ni 1.753025493231722 3.682796605613415 11.584757614041008 1.1075615649862924 0.3848648326684598 -0.11078369301348662
Ni 0.9155627218121829 1.1283008061101314 6.5034746413194275 -0.8420643103455884 -0.2729699088686654 0.8971969896536742
Ni 4.176811567605446 3.322075971425808 1.8100553131227533 -0.8780710674575006 0.3578070572197192 1.3005200290273213
Ni 5.6969044270162295 4.628704997599143 12.28815816845562 0.564081521643364 0.23992814792234807 -0.16830312738619402
Ni 4.243908227625027 6.784338544455678 1.6099770996804184 -0.8203798833936193 -0.8483056632696101 1.4909732101479936
Ni 1.818989048455437 6.376196069885775 12.875236619297418 -1.949110112037727 -0.8213378764315146 -0.19372979498941473
Ni 8.363605694817435 4.258245280868568 2.0408078907744582 0.306592224908801 0.08215163109909078 0.8727123742487486
Ni 0.7533704759122363 8.769163566712473 4.378731778678745 0.6889126938888522 0.6391546486291186 -0.6533078002010491
Ni 5.1956694336389795 9.079634280779347 12.243614039674721 1.7535453207221023 -1.809249556262942 -0.9796378698584097
Ni 0.5390638374547234 6.634178747747519 5.324740370840636 0.4409351932994664 -0.6491873502747723 -0.22680266628398357
Ni 5.75794225395379 8.505178242783382 1.9755401180824184 -0.15776623241061216 2.1289472082054495 -1.853255786640563
Ni 8.051027967700401 3.8198835569081298 8.742593663924819 -1.610106560677756 0.6934738308969735 2.5067019121916894
Ni 1.2394012631195233 1.3995529839366692 2.7123148227613405 0.6586114718021495 0.6570101887533008 1.3460501522486368
Ni 6.790378648532807 1.8273890071487466 9.888721673339802 0.5475727253550634 -0.806432934295224 -0.36977888486961474
Ni 0.5323869472113236 8.539939275859819 12.345092470421712 -0.23464067427116364 -0.1794069506088394 0.11388495764662966
Ni 1.9058448086343067 3.763284504129575 2.477985005175584 -0.2514510609602831 -0.6487860010712956 -0.12293112700929797
Ni 6.20220361445468 8.009252922292537 8.368408748121558 0.7721783839877282 -0.9658495578250657 -1.1468827311834184
P 6.546826668939056 1.4667151954733648 4.615200448622976 1.893821366767751 0.46622019311850027 0.19431806339271696
P 4.087989261913093 6.154678764545488 11.706055077762935 1.6154822231673727 0.07920283288341198 1.33744749818129
P 2.4440040351528274 0.21640428700522898 0.22871205256890426 -0.4541596624095404 0.5794209802139118 0.7066605047905766
P -0.01629142490384685 1.6018824237668208 8.718841539922911 -0.20590499689936798 0.9706984012769346 0.09054731136195372
P 3.975736971102946 2.9868174193865933 10.791556163428524 -0.618003211362484 0.8594359688548167 -0.5392513499735616
P 1.975085939713828 9.124668173038126 10.650153112956835 -1.063584388074394 -0.46091189353170947 -0.19797905718407194
P 6.91082487898247 0.7155481869864749 0.6278711599431647 -1.2674828960666946 -0.18734574583994187 0.032658152354653434
P 1.832352193444682 8.136881726117638 6.450049218419538 -1.9617506836198733 0.9924681888538586 0.12399067862206387
Ni 1.3659999716756568 7.875097060263158 1.2668739039428925 1.0280342588839262 -2.2705054633976314 -0.5093221665142971
Ni 4.72005571895169 6.375194068124142 9.296613548234708 0.7186565008101881 -2.9123132333788813 -0.4312843004732637
Ni 4.6154542266392395 0.6977415855870011 4.388367851694816 0.0826303705077222 -1.510458829676431 -0.46863368765599933
Ni 2.8146229484249705 4.472196068233165 8.994644865937797 -0.14836113704662837 -0.868958049412639 1.6279944967017705
Ni 7.33099137469196 8.876686783787815 3.841420039631511 -0.17581769059568428 0.33335997992094846 -0.9255498297647544
Ni 8.315799909834888 9.351532609274601 7.946362796771324 -0.8442680028651266 -0.028518676264983146 0.42355273615696093
Ni 2.095578992675717 4.401981028899346 5.670334524228575 -0.515794404502202 0.2346422169330604 -0.9133566301326722
Ni 2.992342475829239 6.710452620163356 5.495214582703083 0.8156217998833437 -0.938883570759183 -0.21928681752291268
Ni 8.61345998455678 6.984130204123192 10.159207834866328 1.2330959339463925 1.6731042445562154 -1.8905954036312858
Ni 7.780899530167282 0.8947285767721884 12.35864758771108 -0.2943859126505962 -0.9756549739512617 0.8016648234826194
Ni 1.6360722221941044 2.535719972100736 0.47592087036749087 0.5195343311606084 0.05768167098218453 -0.9836896713302801
Ni 6.0773279743484565 3.0832905235766437 0.6708664000196332 1.9567722565686752 0.0706647135054138 -1.2226009479523396
Ni 3.1804940589574167 1.274312128235084 11.78527502264802 -0.7247037354455326 -0.19300140146382244 -0.02396576678697808
Ni 3.9590119697358883 3.525950554159411 13.20589158193459 -0.9354658033268857 -1.7756043574046712 -1.8365865535149983
Ni 7.0902019233195315 6.508273012372327 11.538199180784154 -2.5903275567331456 0.10131226318794165 1.4495326836150197
Ni 7.218673532364697 6.861642512140483 2.1552243180996817 -0.4490830192175814 -0.6099361180836335 -3.006223547675797
Ni 0.6009641350674831 3.588187037409952 8.010945087884378 3.770857543657364 -0.28099072229061284 -0.7577712074234627
Ni 9.190491260725164 2.338728298664326 11.151555730927853 0.7303295662727423 0.5352465996895427 -0.9396083647403496
Ni 7.721453668645399 6.397294293894722 4.138878777550833 1.0865733927703995 -0.8755043351715889 2.708053228282104
Ni 1.9855648179499634 1.6403143418017625 9.441087219058165 0.89357379107879 1.4786113461485308 0.9512580331641358
Ni 2.514537467569781 6.6254697604735195 8.166630877485426 -0.8116432748515701 -0.21815270391846947 -0.07150289313599298
Ni 5.871065443491337 4.216339132426472 9.889256386429421 -0.6146083267483221 -0.8546264632813152 0.43872404458076053
Ni 8.82124892931246 1.5199523918741062 4.473686897022434 -0.5899810151179452 -0.7528578292822453 0.8987504501837231
Ni 4.828506021769101 7.6881254044430705 3.8769180590503836 -0.19405066866394322 -1.2876971662310406 0.7623020054142807
P 0.6740718692066118 4.690688639283665 0.262953355759636 0.078836964903561 -0.7024132994784484 -0.06034456252632833
P 5.997748432569477 9.055118013377914 10.069186872860993 -0.05800845819398397 1.783779951236928 2.055729646371195
P 6.201491912268848 3.0771755034799533 7.996773786334115 -1.2407848179502179 -3.044705505801079 0.17429045531788045
P 0.07462291063475565 3.2893283063750793 3.6242085325155093 0.33987052734595663 1.0157592981713153 0.27203556997985406
P 0.7418071882929513 5.561840208249671 10.082386139057448 0.336584143285201 -2.687503686265526 -1.8610976512824848
P 7.096925636075158 5.829365314103035 9.03306273721907 -0.799724669037113 1.164227393109453 0.17099841483017
P 3.7862649931300005 1.0705967420430482 6.399461239760534 1.2190777652904294 -0.5710854637650229 1.8901153786710738
P 3.3651714116784395 2.9427012483674395 3.8499585929610087 -0.7882446934219715 -0.7443711319674728 -0.6155624631314753
