# total energy = -381160.9017370202 ev
CRYSTAL
PRIMVEC
9.42536223222188 0.00000000000000 0.00000000000000
0.00000000000000 9.42536223222188 0.00000000000000
0.00000000000000 0.00000000000000 13.79497035707607
PRIMCOORD
 96 1
Ni 5.613594835677589 2.0687350165611087 5.2245828100129685 3.070854396282305 -1.3370808588704908 -1.4056848331921339
Ni 5.456662557419557 4.146838843007412 12.046912466963182 1.2055612188612335 0.20024188507631963 0.9744385850456572
Ni 8.604036007845483 4.127403746444766 8.359434666945454 0.044372098357471974 -0.7531632763378061 0.9677912549324688
Ni 4.9070319943962 7.303006156233022 1.0232305004733657 -1.9235296924654615 0.1648089981900065 1.957175662654681
Ni 1.4410624557013252 2.2726715754000906 10.043206793381861 -0.6091838132986412 0.6105742658882647 0.5816557830817015
Ni 1.4092518587571297 8.829839406657957 10.045925067799255 -0.2010582103300279 1.1899047432708991 -0.5859664946419134
Ni 0.5480970566165952 2.3020410035713836 6.756403962038753 -0.9930772831927672 0.42278603319426544 1.8886673333706374
Ni 6.608366397954421 7.682622038462482 6.200038977825285 0.439560681549443 2.3013571586711654 -0.02690376636937947
Ni 7.78594285733723 2.254433499818752 10.152877478674771 -1.0666450292775889 0.1269890991287555 -1.1669797590436095
Ni 5.983587423246302 5.198492465301494 0.9499888395328437 -0.6712145052781407 -0.23431877215537064 0.8799981092768844
Ni 4.786717247731708 3.8207118904544886 3.301094507830955 0.8079306018866731 0.11886826979383398 0.26282664978707637
Ni 3.4832085258981156 2.381996349905491 5.123631527159487 -0.5190581628551383 0.1406048901399772 -0.8180224389050363
Ni 7.59245902502006 6.226535555641439 13.49960581944351 -0.6341574525248433 0.1746889763078798 -0.7728041904971851
Ni 8.738130633838098 8.284864972491025 4.341884457817517 -1.541218993677423 0.21444491604957908 1.0916590348234232
Ni 4.23104502762947 0.07919566215226968 4.789282831283772 -0.7430652686718557 -0.31743122450583394 0.029143197222859487
Ni 6.726249401208067 8.94500790563903 10.909310853138809 -0.43240375878968756 0.5525061581009388 0.03640733498444052
Ni 2.690592129031391 3.1411432861058923 7.086324622819837 -0.30357863489345777 1.165734830892915 -0.11090736307554448
Ni 8.73551980854816 5.092485418240347 1.7740604971941947 -0.06281127889926602 1.2156384005915775 -1.2743109747321215
Ni 3.5400434591050782 3.203001937289524 9.20794911603062 1.2216396124803348 -0.283726376054221 0.8460482346940008
Ni 7.095714168501557 0.8230113044298778 7.611250369354176 0.0265065309309608 1.0027739416552406 0.5122393401610921
Ni 7.082886250741246 1.413087981114548 12.785895726113889 0.3842631945287189 0.535813013715974 0.16484216542078708
Ni 6.059395610275091 5.539294706578007 6.853368316741896 -0.24428976732515348 -1.3936865231796771 -0.34532332293041174
Ni 6.210305082178356 6.3969838030899835 11.159137614763539 0.5147456515227136 0.7264911663632585 -0.26085152833857655
Ni 7.562891664245558 3.691669258524716 13.678650939624736 -1.2826328643342555 0.2741405321379988 0.2287721313055286
P 2.3795080543223004 2.005387158172386 3.145859737279485 0.3856978700927164 -0.5301553012095643 -0.15803696957349558
Ni 8.255834857353802 8.216191784539792 9.13225686095514 -0.20689230051330174 0.14307674871923745 0.059558576289923226
P 7.8431171035782645 1.7905454554328313 1.1569961813301717 -0.16138660277201883 2.121710581247694 -3.323988501371966
Ni 5.350240794427879 2.8937935096298846 0.9055718208366891 0.20691106956637917 -0.6113772214055342 -0.4889441170785773
P 1.51857663326253 8.337929760874973 12.269605496296666 -0.1760837997728774 0.6212952518501945 0.9604474129728877
P 6.078679901044817 5.183166826595935 4.626129814067763 0.651080453532427 -0.41876379940874975 -0.47912327433341356
P 4.536577564086669 1.064481540054393 13.109939673652097 -0.8905370611349953 0.057325316084030305 -0.612596695634932
Ni 2.8797497201641504 6.071761685294584 13.057491303946712 -1.3398512225267762 0.8250870590613016 2.2528615250636235
Ni 2.1130247928694867 0.9273566601602801 0.33769092926131855 -0.17650906023575408 1.4870903301538194 0.5716829881397058
Ni 2.2472230978447336 0.9725277078210379 11.959342370622789 0.15122868840241052 -0.8046689004162657 -1.2217655965352379
Ni 8.252724487874815 6.471491290154833 7.435240215755478 0.769934582258874 -0.2581292443114071 0.93936128172655
Ni 1.7311185476600448 6.724910999795896 10.966145786345772 -0.17299384799364398 -1.876990925473974 -0.7339429946556134
Ni 5.682974925783137 1.6423033609918505 2.9675328296870442 -1.1267425087901175 0.6564936541281984 -0.3994288465255637
Ni 5.673907727483785 8.682615251319191 3.0739197188391096 -0.5221694547906104 -0.559896794138055 -1.7611665847127864
Ni 5.149989552153396 3.1439991708093267 6.932386782087484 -1.4690131609371346 1.2677670029660166 3.567733194826926
Ni 3.995279021122177 4.77192885466343 5.507338016521918 0.9356506656441822 -0.5592290786470692 -0.24640244279278206
Ni 8.885081453677197 5.883706861522556 9.920142668605184 0.00038258015039934113 0.1565228469218143 0.08890283377999529
Ni 5.475833743844593 1.996263407700688 11.33545126502049 -0.21991725201805998 0.33059604402256615 0.23593573893350334
Ni 8.689250706207698 7.588236462818282 11.684187776077039 -0.10958170228558546 -0.27876440406325537 -1.1646714226254071
Ni 2.4250419784222736 8.117838131469368 0.8487698763969274 -0.5451507461771321 -1.4893289896763513 0.1763707348856769
Ni 2.3314858346391367 4.236917028191317 4.027690013629438 0.32026432307925484 -2.084434470505055 -0.4050212530116767
Ni 8.86702245997495 0.5912048925229577 11.367745383038239 1.2316720570156725 -1.2676836992235911 -1.237951719376797
Ni 4.2511493248982015 6.896405462432827 9.642670377529486 0.4266177482355298 0.5364516757412374 -2.41824696458239
Ni 7.331084309802433 3.531409827460372 6.602121153055095 0.3492666238488759 -0.2652200897199174 -0.2619365338726392
Ni 5.872057114019436 0.3982733864223592 0.8077855745621285 -0.3367710624850265 1.0309218648443663 1.2958167100143814
Ni 8.251885630651694 5.98447340727971 5.1379646752403865 0.016745337779138905 -0.4036066320523372 -0.05878827378280198
Ni 1.0535386947055898 6.960139760665909 8.535444820544152 -0.48271896210447196 0.8663434946079274 -0.9456286027925005
Ni 2.3068008114104406 1.1128807742198583 8.277892089640856 -1.606827118595536 1.6514373011057428 -0.6813953024658845
Ni 2.096605812165253 8.78489928036761 6.664612246032788 0.4680161086766585 -0.41223062627592233 -0.2340045833490615
Ni 0.7451229399949889 4.869528478769252 6.797485345102745 0.7206061683373912 0.8220444155802358 -0.1164771438538381
Ni 3.6138440440156123 0.37751402649062854 1.9712739452775334 0.6961194960499366 0.49709014322447936 1.6145106032827228
Ni 9.27501810735966 2.7277374809001538 11.825972554972397 0.9733098707578526 1.3654244430101905 0.7334447148629563
P 5.008232106808002 6.165581739215331 12.936977682142807 0.18913240542671944 -0.34622115215433275 0.2402492787071927
Ni 0.19438772453848835 3.0298768870166395 0.35890741925283987 0.704148279891684 -0.3455012432691727 1.089001542595918
P 6.596961709864798 0.1336440936862637 4.744821513385946 0.5666775645053144 0.014756332373568134 1.372639729811707
Ni 4.9384278754098645 7.082386706552196 4.696042437129562 -0.9989445406068216 -0.5908886145338792 -0.7880292349770558
P 3.3602829539436856 8.903244126362075 8.727871127238465 0.46585406802833323 -3.0355212681986496 -0.0018439951872742436
P 3.4113589909334916 7.633393372435954 2.9972886977026967 0.2152555848763325 2.3741065226197504 0.07953604785311463
P 9.316725334464273 1.4628350420542413 8.71473782774749 -0.39243698858876286 -0.6861621277269087 -0.40762552340374314
Ni 6.981865220208538 6.760322085046072 3.2572684593358074 0.4401564061519129 -1.0836287083197789 -0.7233443932041607
Ni 9.302624992826194 5.206767933188014 12.519694282986597 3.228004849485789 -0.8051494395971102 0.3057401613211509
Ni 3.2061311574926274 3.1118586861931177 11.782380255456278 -0.42463182815375256 -0.6518630973347226 0.8039099107630543
Ni 5.740592164040876 8.232082944968804 12.972541458258316 0.8969532490739844 0.5138125981854827 -2.2733663298851945
Ni 4.430985232956054 0.7625296986428527 7.097594528232036 -0.16102870521196785 -0.13071976981578132 0.06563332172909342
Ni 1.7036153411761448 5.02409499115084 1.3197401378328828 -0.2978679576619257 -0.3827501003183021 -1.4159273368557483
Ni 0.4755255389183643 1.1693198422204047 2.0706116061467648 0.6010326449464165 -1.665127396998326 -0.222292694228772
Ni 9.016782037707195 3.7387300912780104 5.087115789476167 1.837491838938087 0.7148898346789043 0.2921670506224065
Ni 7.735997863794329 4.461099264729893 11.372090474946761 -2.1795151509609885 -1.0028017095693826 -1.8519805194725651
Ni 8.83917051509492 8.84081995345499 6.716923005452132 0.7002355751008393 0.13197703926165014 0.0063213142323375
Ni 7.695299150429873 0.6680206507556987 2.7150980703809933 0.6755972077268687 -2.593430106917869 2.706825783632906
Ni 3.6969663120010527 5.241915108300579 11.225560026255431 0.24995930690610504 0.3659379138569698 -2.3771206268557257
Ni 3.6091313629868425 5.678705236771073 2.440853965810002 0.4481718202572217 -0.4975686255227946 -0.31915334940326323
Ni 1.4785282698800446 1.3145929476132603 4.974658967159047 -0.9977921721699332 -1.4290834146217324 -0.5756381161327119
Ni 5.988450910067992 4.754529636305212 9.261156227381639 0.046524111703468256 -0.3524357656054769 0.31357019888853094
Ni 7.122925188761673 7.960283779315538 1.0665513495622287 1.2172173150429229 -0.5931761250164752 1.5824427762139004
Ni 0.40810686665699014 7.069144072861353 13.67688556931136 0.8856583928864553 0.5026869205859665 1.506178457133522
Ni 0.46784669645008686 3.1926717404744607 2.9856587434598985 1.6149818864921863 1.137986200024737 -0.35985802621147706
Ni 2.5841043885053097 5.333708709378955 8.644189935283014 0.18250358725629215 -0.9944193990429584 0.34316976692251866
Ni 3.9395845567241765 6.5409656338809565 6.85796223820874 -1.3523503834350517 1.7922517361533652 1.2076013892197137
Ni 8.229726604454418 1.6663097581524036 5.321685717538358 -0.8182944616195004 -1.8961109341328766 -0.7767181808396106
Ni 3.8819390423802647 8.215117293265232 11.420414306215768 -0.6427853034031704 0.8142318615143527 0.6730839543867118
Ni 7.814218943509848 3.7302566907882824 3.274911794571316 -3.900883886950546 -0.2288083838601027 -0.2251949554772315
Ni 4.830130465368737 0.7179392532848392 9.670839957110854 -0.4124550835819026 -0.8106127767045265 -0.9562367173256499
Ni 9.221180439286996 8.12449243708199 2.139379047718573 0.7055760134771462 -0.32387775146212605 -0.786864268134677
P 6.229033276586687 6.971601000927877 8.494983626303545 0.42972878306068574 0.1383448904612069 0.5424467169824078
Ni 1.5898794972278159 8.398440585284375 4.119494925142284 1.1870202226342523 -0.32402147612884197 -0.14445614556526734
P 1.7018716491955 4.3911913543491226 10.560421651216927 0.006458354030834038 0.39517109969047426 -0.22500366540203184
Ni 1.0917868139350848 5.935734860080174 3.2988738925301986 -1.4668130679620222 2.096676778207518 0.7231459040401094
P 5.906761297115298 2.5159967222775292 8.993699326028281 -0.41071727495518945 0.038241559979701883 -0.7145581623710984
P 2.046566565001776 5.944547573603973 5.320278510983167 0.013443012878783302 0.8330291967265137 1.2265493910771263
P 2.1792191105995866 3.447580657320616 13.766097563722177 1.1726485272936127 -0.20766851655769397 -0.9260733063683922
Ni 8.53678604956494 9.177814348460258 13.4149321368634 0.5282184891981676 -0.32171082571779436 1.79005447139173
