# total energy = -340863.54409110383 ev
CRYSTAL
PRIMVEC
9.33027890203969 0.00000000000000 0.00000000000000

0.00000000000000 9.33027890203969 0.00000000000000

0.00000000000000 0.00000000000000 13.65580629218013

PRIMCOORD
 96 1
Ni 1.5127927712431024 8.329074722392768 7.948116633063387 1.5705413967906243 -0.7348441663136441 -0.37639484752423563
Ni 7.241210846169493 4.45946281422164 8.167360461271134 -1.2495787620927639 1.467818369298085 -1.041108318459065
Ni 6.223464016387471 3.6616959716579043 10.57333617293978 0.07471008721938101 0.30666190180447184 1.6237241514611906
Ni 4.769535975150737 8.685323433932348 1.0217933717702559 0.7616857119865205 -0.3997543481857825 -0.12882512389622974
Ni 4.1588132350497835 4.501803620176451 11.86075045755396 -0.2741395036967343 -1.2615942984964015 1.689113732610594
Ni 3.297311256858609 1.1075974162396767 1.71682171353844 -0.49076368678581933 0.8071122197504359 0.06009593685063199
Ni 2.79126491649477 6.381267024565902 13.397970832162047 -2.520145953511737 -2.5766014653963043 -1.7920185370966366
Ni 4.709934153105931 6.480662486407375 7.020476972410627 0.395310453481816 -1.1981731539272784 2.1109857386310225
Ni 2.678536486008646 8.91919620653334 10.250143706754386 -1.7580311244075981 -0.8723843014853685 0.6558022844881286
Ni 6.187495790967506 8.29347037785254 12.600430715377222 0.007515077430122541 0.1590147601057326 -0.7680563913995546
Ni 0.49810160782295726 1.8593659834933154 0.465628504904243 -0.7025577954761126 0.4032227663503572 1.7350914848922891
Ni 4.199054728236892 1.3269149536512665 10.994931359284495 1.1886096786085594 0.5246809083585545 1.5811993907251025
Ni 6.359415511223864 4.153942829428715 0.6965864983557674 -1.007221693013949 0.5652045795042137 0.8083422355027948
Ni 4.490513982625697 8.93659717680785 7.138190570949122 0.19891288185225095 -0.7275998260464049 0.3784337323311353
Ni 0.03222398447028027 6.650968068402346 3.7772645390617554 1.49724078832426 -1.1050205437319938 -1.0909010736114761
Ni 2.733659774149022 7.701221590107366 1.447228900938021 -0.6704601436106196 0.875410232795886 2.0761727447168954
Ni 8.662025727350338 4.715868210529302 5.087211447382607 -0.2839773157227625 -0.2963546063411928 1.2881905609276911
Ni 0.5280592675320159 4.625849679050232 9.755189202027191 -0.006921152599865499 1.1605689704212592 -0.2913818357169498
Ni 6.178911934317346 4.283577725404067 3.299925601025321 -0.8552422424884433 -3.4586484867824177 -0.49694590433713126
Ni 4.796108609650363 3.826506019340978 8.771861771356516 -1.9839560160723184 2.3900198514158966 -2.4549944565150685
Ni 5.531334592294509 7.301559090531706 4.995335257361095 -0.8332382274135264 1.2319589921284717 -0.4303386487305427
Ni 5.9452630884115765 4.215933202889218 5.850433865096829 1.9797751452217516 0.6385314132228229 1.6847492849943113
Ni 2.38692794715636 6.106154418928273 8.624734468372772 -0.4096664650931719 -0.9199962469363768 -1.2806508009072204
Ni 1.0738964486088307 3.3245650017228674 12.180050331354085 -0.18985565674598914 0.9230003238700234 -1.4055837888378955
P 1.558884349342875 7.888694885402654 12.5230845687919 -2.0581691090506236 1.1362864437248108 0.7680458498765934
P 2.483552316144466 4.139266300612734 10.458053112072335 1.109620247287534 1.277953199470399 -0.3591753983221556
P 8.063171102096126 5.438899518562839 1.7336591349633081 -0.09020612597245109 0.1564148605890403 0.09991718261262793
P 6.970315526625202 6.589285594147771 6.547645492143423 0.3129371932902223 -1.4074473244091954 -1.5922142537783674
P 7.408213509409944 8.062956505679873 10.404577551197631 -0.8598594295454804 -0.06269892169111783 1.5374183889844102
P 3.87685220464996 7.634845985532105 8.9022067015613 -0.7475582714462029 0.3508321685637829 -1.6996362294084728
P 2.0792340073639917 1.0659003995336274 7.371622954382844 -1.1088489163391482 0.6636294938420313 0.9351487863070992
P 1.6099209752954573 3.9468572877436023 0.4046028822889854 0.11718239745097882 0.7131245152483654 1.534762439418802
Ni 3.6981587018631497 8.493110356921536 12.45548856372768 -0.27397315332219907 0.06269943591175008 -0.26308710253731465
Ni 0.15359318630826643 7.333599268506325 5.834115207182557 0.6525647513874374 -0.17562640052048464 2.533225926624147
Ni 2.3301438693597576 3.4089200538686253 8.282369211936931 0.08519118925636296 -0.30847221554033327 -0.3520341592916841
Ni 3.7133763868592484 8.705467506223322 3.6344384946820587 -0.7001319596434393 -1.6793191151176756 -0.842807102048884
Ni 6.724574639177467 5.637419864155727 12.507448887298054 0.4883113685905848 -0.4341189417085814 0.009912374017705509
Ni 6.835744913076008 7.640836024629283 8.345295412377881 -0.1320156058090694 -0.39081847914873336 0.022765832941605953
Ni 1.8265607226433558 9.162343276428091 5.669877105600196 -0.6156496235286429 -1.3283905301853445 0.5054264310043166
Ni 3.614624714266537 4.114736997207005 0.9263987335500747 0.7811435636008159 0.044215003954317406 0.3455056141445469
Ni 2.644779536703995 6.888964824307001 5.951364157828467 -0.36749625948302517 0.3647544350718299 -0.11211835266451015
Ni 0.06994816839194029 4.067133913914486 7.318228566935157 1.7859579327248531 1.0665262443115373 0.1886446671570235
Ni 5.898555711899943 1.8044386312112586 6.202494214407868 0.4795325939566903 -1.7233590269467096 0.2682442212582219
Ni 9.08961375187592 6.450441712831432 11.746929451400735 -0.9298530851257987 0.04004621728860845 -1.866228544751147
Ni 9.090285531961584 3.9198088090166308 2.9763235355932536 -0.09590189080564773 -0.2514760006609476 -0.37392350316560763
Ni 9.074536021064334 0.4230917630911128 8.245130202521585 0.5091776705166328 1.1828336953567307 0.3815175134627816
Ni 2.2156333555908287 1.4862667881383143 4.302111391545238 0.348487065370374 0.06398061661701884 -1.277210921987736
Ni 4.597662906289217 2.787850034392641 4.721440253128732 -2.634174892935399 0.3567984134495468 -0.9380114525668749
Ni 6.830715892712491 1.0039006957941559 10.765077137834831 -0.37944520431478523 -0.9973872234220307 -0.23586580492751635
Ni 6.46861709626025 5.93896515010847 9.984921196822377 1.512346533617447 0.7465437141387595 0.5947218722370402
Ni 1.1848987774859552 0.8740763951557621 12.285760526000805 0.7047920841232701 -2.338721715362553 -1.3560517435460389
Ni 2.0758657766567006 6.614029493969754 10.966923727879657 0.31428907933242645 -1.2146557249633338 -0.7133253184052619
Ni 7.668798870695076 -0.284162043208272 1.6785031908465458 -0.5114479546080481 1.875558049682189 1.7660023155385327
Ni 2.055077915116965 2.095310078025107 10.456482826122095 -0.8087813799227426 -0.9681967179010035 -0.9757485621063323
Ni 5.727298441450284 1.5137164688608913 1.2114116982001886 -2.5312703455596726 -0.5194690251403118 -0.8253261716553012
Ni 4.345008282126517 5.411029975286722 4.826358307091107 -1.8188981350962996 -1.0561649556818713 -0.049874002012307656
P 3.9631292942630365 1.1864196129576683 13.186947912752622 0.380664421433867 0.29433911857306083 1.0279095603806039
P 3.7226040327581704 4.237234229772169 6.677593885492086 1.821808366764559 -0.04749290337464079 0.7494668013228254
P 2.625587152867713 6.573909294409224 3.776390291922494 -0.2361177730373224 -0.053980310871197354 -0.46486470753187037
P 8.24660438659846 4.440578329591288 11.252520767993142 -0.21744487921816744 -0.18433112738333415 0.40000065986863365
P 5.649474584581821 2.1329857444961355 9.209297905332363 0.2405624390722373 -1.538469198846428 1.1146637232487124
P 7.443649908928758 2.092865544935605 4.011639280671202 -1.0237924528884368 0.7062689257791126 -0.08340710077274667
P 5.879148731647408 7.994509579173813 2.7845825706981997 0.3044152718621403 0.5624157039051668 1.6548059604676597
P 9.289197749271109 0.6653207335354561 10.398527798315062 0.06058161823779888 1.769980069239358 1.160042665604144
Ni 0.08070318095785281 7.95554633420526 9.762918405123921 0.44562565679660027 -1.5972849834330556 0.09033982333683797
Ni 5.584507852130663 0.8404416725055859 3.6267223539758824 0.7958083647018424 -0.05879033066533101 -0.19148882147403792
Ni 0.22280146357807878 6.355030280109109 0.2396976657604428 0.2547186759679613 0.4356474625379658 1.784423498358198
Ni 7.981148619692259 2.401959026573108 7.078459991054562 -0.3220599815270969 0.1120371058046135 -0.07965174749537249
Ni 6.479720128231651 0.5428095055518399 8.316864186307917 0.9891548082099093 -0.27481236139404286 -1.0604257878407544
Ni 3.6129732548892783 1.0457190061267836 8.865636673147927 0.7656187284923396 1.1615668155581542 -2.1583688559006764
Ni 8.775612543501477 3.977236676061995 0.2757489306632184 -0.38371734932757784 0.5694348155354773 -0.39682406191286496
Ni 5.610455357939463 2.550011893230434 12.590708564693019 0.3001683236603282 -0.16672986936180317 0.6607352030133719
Ni 0.40375942507031753 8.312448165272569 2.2975755975955745 0.7327268628603252 -0.002638208953795456 -0.5739936385507534
Ni 8.425531146359459 8.37685508098567 13.175668538508733 1.5463830543768657 0.3228266844897924 -0.3771849475256988
Ni 7.165803531553631 6.061872914948207 3.691191782558068 0.22571097588170158 1.4803895210948763 -0.7034029170852273
Ni 7.56186454344781 2.401613806251308 1.8085616814870258 2.533043635410012 0.45027035465746323 0.9211139054805878
Ni 8.191863639895754 2.2645613384967413 12.061231094757932 0.8014467939345423 0.775379150313213 0.42607987345418874
Ni 4.77669229911886 6.214600251368283 0.41336494726742595 1.9452907382916371 -0.34661838759275143 -0.4039591302957495
Ni 6.792489739782376 7.1407703930836535 1.0286054084444753 0.8527804112115118 -2.174457533932423 -0.2820459030280046
Ni 4.639779785548807 6.159402320996167 2.705324649952423 -0.2860380549065332 0.5944807027605116 -0.5336512301779648
Ni 1.4717488740647826 5.593847461377196 2.1083202190174797 0.635044740225803 -0.1025412504990363 -0.08949855838246523
Ni 5.174078210626434 8.465408758666834 10.314325762744373 0.8281297025423674 -0.26516918187732397 -0.11301258234400538
Ni 7.670907513741746 8.00593917090908 4.675597793477393 0.009638808641344691 2.9280715246544027 0.20398849660294546
Ni 4.2320279341082685 5.78973666830123 9.992513244818284 -0.44523022113039457 0.233951618623939 -0.4866386088738522
Ni 2.0503008122855717 4.574607786960363 5.534193389770171 -1.3330568253127622 -0.24781192154579904 -0.9681424676243005
Ni 9.084258171748537 0.6974588794392348 4.149740471781723 0.6334956505711283 -0.11637944193370924 0.20096205107179585
Ni 2.222687046490308 3.3812091253349563 3.0983523881542467 0.5069657504669784 0.768248967026335 -0.9919650239651949
Ni 8.176440688762368 2.9464741071202187 9.512375223091581 1.0865114291842126 -2.106080588019921 0.27726647936149024
P 3.8480123123612158 0.523214986692056 5.39148957204495 1.937317747388489 1.5245960404087615 -0.6164741763124674
P 1.2019265366017617 1.0016520985629727 2.3120785832227577 -0.11813756227539654 -0.40990814879033277 0.571173395493139
P 7.406478077521978 0.9362375127213723 13.576752972599047 -0.05033448658849397 0.652719788908063 -0.5996751024772575
P 7.938341299789069 0.3765178095687171 6.537963461658782 -1.4461586249364642 -1.2500742136719438 -2.3611625608645723
P 9.740904544927849 6.330389013355769 7.838132237621625 -0.3813452495509755 -0.3835093470818298 -0.18973455778709258
P 4.611238462187025 2.9157028470851887 2.5318141171320945 -0.6268593762015333 0.1270790877394005 -0.13454711398167152
P 4.831461036658468 6.551871175487833 11.880305789242081 0.2848818298149029 1.0700591971654603 0.6313132982078289
P 0.7739494394432318 2.790387870271819 5.122374469727671 -1.024598750839816 1.6392086202500349 0.19251160631159747
