# total energy = -381165.3092598326 ev
CRYSTAL
PRIMVEC
9.26330138941347 0.00000000000000 0.00000000000000
0.00000000000000 9.26330138941347 0.00000000000000
0.00000000000000 0.00000000000000 13.55777793226568
PRIMCOORD
 96 1
Ni 7.493427355825431 0.9760833463059317 13.592621302292258 3.0502025243599085 1.1078739540203888 0.594531353492789
Ni 8.036673674491015 8.942189189684417 10.646882150071699 0.9315052760172409 -0.5139439815570245 1.039001299418391
Ni 1.4858243033104472 5.912598631946576 3.3983524023132747 -0.7176218888980866 -1.0723086553212693 0.7567360812907289
Ni 3.908455554407906 4.057585445859815 7.7807814538291735 0.08073058238184806 1.1135478644767145 0.7145064831975566
Ni 8.818876119617466 2.118480008415801 7.726455895632461 -0.45550537780415745 -0.7099111505173903 -0.5153408619045512
Ni 3.925555609046096 1.7445853684584471 1.5679573663925244 0.17339211187332718 0.7134685288513455 0.32942182120880686
Ni 2.5940579093500857 1.5000527344720183 10.991304669857403 3.02228188669024 5.395958777971739 -0.38097835312986
Ni 5.9256691504159615 3.3828095086635352 0.0708299825460425 0.45437383530287556 0.34107148963259326 0.43363788830710476
Ni 6.401478633888684 5.126051698399047 9.137643925795114 2.080877606391733 1.032754547177731 -0.012877113072984274
Ni 4.076890166263927 3.0723036411271654 12.382210701303743 -0.8027302886326563 -0.5043329408298217 -1.1786957619289569
Ni 4.907243252782203 5.281286105564157 3.6333086351702555 1.143446708918676 0.38832013820691186 0.007477025103335509
Ni 2.1487061613326017 2.36896894529083 3.959603800177262 0.7675966781543168 0.7981786647062318 0.2754461383232998
Ni 6.279851484701555 1.0340530873274891 3.0199548714785514 -0.4273877936323349 -1.0217304281530855 0.033390659645303786
Ni 1.2643295002477342 7.328614694870565 1.5857716215792543 -0.9139628962581035 -0.995102541152912 0.7118443629843612
Ni 4.329472609286427 5.417577061085118 10.247009507282634 1.1330419686455842 -0.3300329724302445 0.07752004586435036
Ni 4.447440754366249 2.0512932823644494 8.792991676131281 -0.8605867946298082 -1.5302792068364677 0.3594299375351229
Ni 5.91604458011852 1.487380537968744 12.091910873411079 -1.3290091376059496 -0.21240937367678905 -1.5617024583427557
Ni 3.619422019835417 0.6333291471271285 13.215729057957377 0.3126919100486357 0.7361541433743193 -1.9095063816031759
Ni 5.56379827585426 3.41706519774914 10.289499345104906 -0.3615973775000869 -1.6637289739889025 0.6224249945792635
Ni 1.795848479166868 0.5609123610277155 5.0734565249295365 0.3513988397005303 -0.3765164607037645 -0.8589428312684821
Ni 7.658990344204832 3.2559856473138797 5.888440867866979 1.3184750708438455 -0.5224494479248745 -0.3891470049835814
Ni 0.30448008988623837 5.375123350138842 0.4232578475204373 1.4277415558818574 0.04478141798074868 0.26667996209489553
Ni 2.113802041139373 3.8184533166697383 13.39560014189157 -0.5210767359470638 -0.0978117062338509 -0.2423696674843052
Ni 7.385370943390712 5.836982301496117 13.522392508015999 -0.37503499106223154 0.12096808974565618 -1.4359749995352429
P 6.025842493242283 6.2207053043847385 11.940958890546746 -1.7907746373872064 -0.4662271350970358 -0.9438383436612972
Ni 7.2768976823868075 4.468931613933205 11.425641426016668 0.23347339343593987 0.175663167295691 0.02997752019869676
P 4.773481178580975 7.947569977001984 3.432694240103179 -2.651108178355628 -0.28378396876503387 0.10281404454444874
Ni 5.133934768007444 6.399755659802713 7.797687905465231 -1.478745043512918 0.7865773330218776 -0.852846231452441
P 5.680552928432672 0.29674708576274905 0.6009539082536316 -2.339464764176164 0.16445701416722644 0.9674315576002047
P 8.330070224087658 6.965984229582789 1.594584726662014 0.9958445615252592 1.5405718470117276 -0.7379402887404646
P 5.956562261043462 1.9451821632526025 5.183586064248344 -0.03523876859763608 0.28972501683981716 -0.4613003872193797
Ni 3.0257277609967095 4.12468880219733 5.5470428160332625 -1.5355895633057877 -0.07549401657325708 -0.49569531975948183
Ni 5.243158356435885 4.472701777658961 5.734438479806354 0.364428676301295 -1.1303582511658339 0.4067176668774931
Ni 2.4107927517325574 6.042386749788225 7.4476675725604276 0.6963727497113232 -0.27682784916217484 -0.7025971333544803
Ni 0.6353531785130682 2.401066285118202 1.2306694414509889 0.20850978151206673 0.10603615102617223 0.17861942171053752
Ni 8.269173279780256 9.02458625686031 8.05384876187166 -2.012082856215522 -0.6617191641931959 3.261489611506796
Ni 2.162777116368036 1.1058992540521932 7.252055360323591 -0.47783335187739634 0.4446463236024664 2.2930229277738574
Ni 6.719283983036589 3.630788090821907 3.8547478584237433 -0.9369644993595992 -0.1283913787929208 0.21014783133612197
Ni 7.690077984164619 2.5627757400580116 2.2200585940853585 0.9490142314352816 1.0978602785381286 -3.6226884680168836
Ni 4.258580562620083 8.866739598661631 8.249216422947907 0.04498067847574834 0.3064621270888399 0.5758618021077437
Ni 0.40977325947232596 5.538268616816961 8.566983792559508 -0.5685750386383434 0.18586633308093795 0.20548282176028485
Ni 1.8257041000221699 0.5735827048706822 2.5141406279957743 -0.1283291580964177 2.0931607946344597 -0.5690154686098717
Ni 3.458620368446281 5.918842097182838 2.107787379451086 -1.5634960599080685 0.11731995147010764 -0.985950956560631
Ni 6.614182563792327 8.101146253191885 12.826932544816676 -0.34217217889593976 0.08795281116190014 -0.7232171235976771
Ni 0.6421524418415793 1.645671834641223 12.558881314556736 -0.7897109935548529 0.1862813091311695 0.2101930827517606
Ni 0.5959609887249293 3.407625893482447 11.118354555764572 0.02764424407982981 0.9626423637416777 0.6782223040545416
Ni 6.617526615647359 1.2660895275398556 9.449811629627309 0.4375500788773174 0.44347672877439753 0.9032269978978379
Ni 4.69836506641354 8.829769762225544 10.972296375102491 -0.44605940189990917 1.5968514954400628 0.672856411756938
Ni 3.548511446565999 7.5966205349529705 12.770586660554638 -0.40643458841943547 1.4609774351168516 -0.6240720432643833
Ni 6.1643844310368525 0.8564153853939808 7.175426551015085 -0.20696043474707582 2.7985331767412323 -1.0333155618875236
Ni 8.694497769873704 7.071178281842425 6.833188317731919 -0.9975566591203593 -0.32255800420943803 0.7828057817945873
Ni 2.6105373227852646 8.104610727966902 3.6020848246778674 0.9239133226025961 -1.9390995218792606 1.5118598237890155
Ni 9.286922956401778 5.905929054839589 11.154173890149705 -3.6132296365968286 -2.2866944144526684 0.9284317792982398
Ni 6.263353544663302 7.954711982487382 9.616261115963848 -0.2114578083967971 -1.284751196228839 -1.19149059970078
Ni 8.76012826126676 1.9853571020206584 4.0737323067697995 0.9721045375958419 -0.8624307898170824 0.26385534816190687
Ni 8.229192870344487 3.546149304673941 13.365555549684904 0.942494428038893 -1.0889226097288665 -0.25323797765737677
P 2.4261142524755517 9.413367022388396 9.441677524547247 -0.13042332162128506 -1.28422514852204 -1.8182684719321005
Ni 3.6219045846474622 6.382488865736847 5.214999772422249 -1.3158263203670888 0.06604366979363466 0.09457443024347582
P 0.07817485433511134 4.125161230575741 3.092244750346901 -0.6524431382079086 -0.7047625164369152 -0.1793071918061815
Ni 8.042768926902678 5.381033336519755 4.508137611360441 1.181862846803029 0.9433794017470076 -0.033785323980561166
P 8.142469841350588 6.851554665690283 9.51250287544252 -0.08186906686166545 -0.3296604195821742 -0.5539639735933878
P 3.184982441029087 3.471978049263329 9.989750949644012 0.6069644370498191 0.13952502681223714 0.3064888665617173
P 0.38616203018344003 8.725992995101143 3.775312268749381 -0.822538324497519 -0.2663457186839284 0.719000000192536
Ni 4.071795350418312 2.101268794159161 6.437517508520254 0.6859533541502122 0.24037886230652147 -1.1002192656886083
Ni 1.3262454077242585 9.110688644651198 0.3132172358963906 0.2944599604216413 1.3069734979621492 -1.23037982056681
Ni 3.924712648606185 5.473203186817693 12.729302904592547 0.44525798904453645 -2.120673912453064 0.1032166792995061
Ni 2.114580158468521 3.8401850220766693 2.382128391454976 0.6335918098293604 1.0214018411690733 -1.328511886254557
Ni 7.764712404652105 8.198447972541587 4.98348670874675 1.2902739258192812 0.9639453988238172 0.04135799412149651
Ni 0.8854919625899805 7.620214163968936 10.12134263229501 -0.4132608673126496 1.1008802963113749 -1.784095682705134
Ni 4.496767835053337 2.9115390429441788 3.54104800451725 -0.6254897495475163 -0.04426411202469796 0.9002949118527076
Ni 7.087000000868443 5.386739530266843 2.156676305975451 -0.465301795069289 -1.887862835191471 1.395245897246997
Ni 1.740944890954217 9.05908279178589 11.585527863213901 -1.1588522448404688 -3.8561965713455004 2.1149393239621315
Ni 1.324772542779799 8.11697723551944 7.772077655704556 0.8829919017978858 0.27926962583444803 0.8193097902578922
Ni 0.034574346658494834 0.2778453189755186 6.335278449451074 0.050835337484312446 0.5754180297021058 -2.221033324809433
Ni 5.86830152399434 6.919204556818507 5.113234994391789 0.06363891700688394 -0.02351916616786272 1.3792909165796376
Ni 4.375668694053845 0.5543057743711839 4.453228465166868 -0.9923429761299037 0.026719418272715272 0.20796136520776443
Ni 6.387324309139412 3.208539016838901 7.672794516155987 -0.9583277955267236 0.2481343378822243 1.8164003083751106
Ni 8.438052530110076 3.612104011620807 9.321257383550453 -1.2049593236111762 0.2603933577552354 0.297336767748804
Ni 3.208233327888164 7.31502543151508 10.076019150532423 -0.3873456901087845 0.7988638636987144 -0.7038454039392846
Ni 0.8241911383355449 2.766725850008735 5.854235200609676 0.5131762501530646 1.002638444518641 1.1793318528510592
Ni 6.6607584439227825 7.68577054894969 2.9933136162567555 2.5603328101432683 -0.4496044389386902 -1.7194977442190902
Ni 8.904302286396117 9.575567432309692 1.7923923413632337 -1.448841571085266 -1.1165038617812448 1.3823939809849932
Ni -0.16515540311175234 7.628162076688095 12.656009810167689 0.07644481052230061 0.7857499520245759 0.995216441022957
Ni 1.1114850248792942 7.170629087148822 5.373842235536208 0.6467807977158088 0.12427298574917309 -0.5027583972538503
Ni 0.4563398763012439 1.438349882930856 9.893774808744324 -0.3487991972941541 -1.000837129643844 -0.6707650764455481
Ni 3.1878262746010932 8.44090562698362 6.20924567405272 0.7674881776009104 -0.5833308567912793 -0.04928290539552803
Ni 7.03651500748917 5.447275205814283 6.65559507964579 0.5345596009248471 0.19595482766519157 1.2589483762331222
Ni 2.0054399397539178 5.248883076786048 10.682959930569726 2.0382060356651346 -1.186147333110996 -1.4080229944070073
P 6.295423094586062 8.173455584993462 7.2671721421026065 0.4743963011713894 -3.592636385826509 -0.390541828448579
Ni 1.5871648221304915 3.3673027418897914 8.478682296983623 0.09671924450062053 0.07237089756324311 0.030946054759553154
P 7.94949674372178 1.6754626123857623 11.359343976912914 0.43009490815085283 1.357251934501727 0.1771353809658433
Ni 5.215822353598777 6.664621240663912 0.9559004649160676 0.8392165564841483 0.7655271972197977 -0.5559542645505392
P 0.08560587482847877 4.940831984157111 6.423702220607256 0.2511201599834256 -0.27470848882632687 -0.06349236412669065
P 1.7550065826881134 6.392919343268051 12.424388365864202 0.2412088144069846 0.288706859987948 1.566527647645541
P 5.080874576800751 4.16525279962996 1.7889352772294458 -0.8547984700828052 0.34471937079782566 0.3434867839423052
Ni 3.280533396388205 8.437543048525514 1.3915433465921172 2.5080540553442097 -0.46756256607900765 0.4619976703967205
