# total energy = -381174.1604986388 ev
CRYSTAL
PRIMVEC
9.16267688462466 0.00000000000000 0.00000000000000

0.00000000000000 9.16267688462466 0.00000000000000

0.00000000000000 0.00000000000000 13.41050379822070

PRIMCOORD
 96 1
Ni 0.8287577120731724 5.381322609682804 7.431658485512673 1.331432659445778 -0.2369706079559209 -0.05401270677102957
Ni -0.19487547746037903 3.5403392408212873 9.284333430103414 2.0004907805025485 2.146696818879387 -0.2180146356787084
Ni 1.411977673549579 5.164322932570554 4.757778623420546 0.8978832170874214 -0.6103649780909359 0.9819032688538187
Ni 8.725406473902003 6.4288273213537765 5.629166606056251 0.4158579386158644 1.1183511994026287 -1.0797198601836757
Ni 7.552592992894919 8.435930022480845 4.784787446129822 0.9008081040437003 -1.6204022861768093 -0.28456686967764544
Ni 2.0218362855883485 2.2073163541515908 4.674834407016758 0.006814966039304393 0.20564814369355552 -0.08917614204603996
Ni 1.9416903507109748 3.6009961619243187 0.8584200460137831 -0.020141250834565312 -0.7547992692793323 0.4124247445645994
Ni 5.822917823060536 4.117138914591215 11.260357247440547 -0.3148657777715029 0.5274749261639238 0.7774609725429061
Ni 4.182056480454504 8.040771255651476 6.6409084735040755 -0.5923641706381411 0.6726718065499576 -1.38510649482015
Ni 8.569283622138476 6.809985517874168 1.4194883198076085 -0.41358328364907476 -1.168388209355362 0.6961832594083365
Ni 6.6075361716851235 5.447147280559568 13.32650057346482 -0.21247442258676952 0.6121583225459329 -0.3237126866391715
Ni 6.927707590733948 4.714710376902014 5.157290578046903 1.2123880119750796 -0.7987885303760889 0.9669852140914057
Ni 7.098683141758505 3.722603209791302 2.8207383312382404 2.121643989675817 0.38375591587499713 0.29207706201176153
Ni 6.177430955144732 0.5268914889427216 0.7723202036843324 -1.6121223055562044 0.611017009852638 -0.3927534913879171
Ni 6.264073227946888 3.3208473155912097 0.6317821490664468 0.5889744282303019 -1.3597528465467097 -0.47334754819190095
Ni 1.5705652854002232 6.278064635578961 10.808919486532773 1.4934923770254214 -0.7127704743430564 0.9827069957020366
Ni 2.8327331915729803 7.031786437683999 8.38042527460081 -0.9924828441418779 -0.4814172125739128 -0.3869775081360884
Ni 7.440918286791635 1.026302277315623 12.240799410585057 0.08278437958708323 -0.14104223478771194 1.5630443170826307
Ni 3.0009507768494985 0.3241782576588483 8.508897916271797 2.0431556663609265 -0.778206592459679 1.4041583692452786
Ni 5.103107088176393 4.699207127580816 2.2987882739497283 -0.6135179218976208 1.354988592388847 -0.32429015640919634
Ni 4.794114134950181 2.1924178415060425 12.508513588092043 -0.2554776656211729 -1.5282248954106004 0.21802543431198582
Ni 0.47148569797324746 7.370787157770094 3.458582507344229 -0.32750480669175214 1.1689217132613288 0.5900982574220999
Ni 7.987801820470716 2.0035933958729206 8.14166423984208 -0.2643819100893382 -1.2138234588700256 -1.8285032622862314
Ni 7.993198637167043 1.8052580916136736 1.5053022866176613 0.5554153613279337 -0.12566009590468682 0.09127081979153959
P 5.754509277296906 2.014781024372437 2.5097625747300505 -0.2270456355327251 -0.9917372242251049 -0.8155858044390857
Ni 2.1441763476076345 8.016325233672188 1.4840604527516255 -0.11371912149272673 -1.7552777300321771 -1.125026040319643
P 1.4992704964119021 8.408680221369 10.212769155409752 1.402836050889429 0.22256086028849414 0.2532266648034671
Ni 4.538924420502973 5.428125563307318 9.332289048482425 0.5010427001143243 -0.5841227565649553 0.26180283650825237
P 3.4960376979915058 3.7138803413789025 5.872499816589967 0.015686814607637503 0.6457862950130233 -1.9005440302035657
P 9.249997214674185 0.720107605615826 3.587457390531292 -0.4925261780028808 -0.16141179958299942 0.7422337739094959
P 7.056937985784877 6.554401808320097 9.484820130899669 -0.6564116359373534 1.7166330210767855 -1.911967441549159
Ni 8.992406878878185 0.88727331558379 5.9242112162318366 -0.697315830350883 -0.3401014124098401 -0.9609397792282741
Ni 6.725789679805323 0.401617537778845 6.663719873923729 -2.5883490928505357 1.216695895321814 0.17035383926763564
Ni 1.4402628571515514 5.561066842504278 2.4294471303299567 -0.46179609590887566 -1.4351841282028315 -1.043293499035842
Ni 0.7777976519374128 0.43802818325909054 8.469202451121545 -2.4335416859579317 -0.03772965334028986 0.6092581181800024
Ni 6.761615746499108 6.210297477198596 3.409526451469075 0.4486276768477177 1.4778271596843389 -0.4764210449109021
Ni 5.620147783179859 7.11141926265476 1.2232393570793527 0.5155766320644412 -0.9583349946155755 2.5388317028466982
Ni 3.016738069154713 4.298523266578466 7.9183395668631515 -0.9297445845723924 0.19955308653941117 0.4023028256392491
Ni 6.105568080188378 2.0488386944237917 10.550271777822077 1.0480850068872143 -1.3780716994605557 -0.8348546799710267
Ni 6.78512717543421 1.3444579074456158 4.4914590053383145 0.35550694833163293 0.3905590548397596 -2.365684617104642
Ni 3.807861918380986 2.06715488555445 7.186581617564167 1.022023276803156 0.10201571701286946 0.05861986652573776
Ni 2.411149264553106 -0.21202159475042467 3.888148042214987 -0.46607286890735866 1.3960197992985441 -0.7374003570765946
Ni 0.7409151285966226 4.217772595025443 11.754695577879517 -0.3307551953082497 0.6989145422965706 -1.0157037623430314
Ni 7.271298811948838 0.23171768502279266 9.324430220502052 0.762742692496125 -0.403246420499441 -0.077843233531724
Ni 0.15496743820596023 6.890580423919827 9.256452320552897 -1.1824734838038347 0.49153938860957924 -2.040752713346389
Ni 2.0395110893357424 0.6153690459287036 6.472740366682838 1.3129040045139713 -2.461345338433761 -1.5935640829380424
Ni 0.455803776452426 3.0096644825849945 2.65801560330092 0.5693587108819033 0.6176314298453621 -0.3865406777089859
Ni 8.116381665461477 5.197455172254628 10.5918840749806 -0.5853643422815403 -0.3079430825097406 0.6799493140479773
Ni 1.040742656115982 2.521394593059401 7.078653530046839 0.7057541909262233 1.8725843117658458 0.6812433502690526
Ni 0.31083281874849095 2.389671949890643 13.005104104513961 -0.527987089913652 -1.2144613495643406 1.1617992432839346
Ni 8.726469344422842 4.4727149171962495 0.5372049980656177 -0.6789519831317146 -1.208335696282577 1.2104725401199217
Ni 4.075091390279763 4.160945672868192 0.24006671621751804 0.5401633202648698 -1.2137998047209417 -0.32078934234478945
Ni 8.785541122421519 6.359557483961191 12.58467192598089 -1.785569439037183 1.0473301309990608 -1.5965614750034698
Ni 4.09672447044959 7.4442260131539 10.342207543226396 -2.007411933102414 1.4652385243860506 0.5588632106672182
Ni 4.088569688005225 2.8508111531041407 9.804218220017816 0.16408214732631096 0.689716163626754 -0.7986437772681084
Ni 5.261639723965614 3.1837370184030287 4.260852753023951 -1.13923189950638 -0.22146916988621212 0.46311095806555724
P 0.7656781791967815 7.830432844648276 7.242208229047024 0.7179216795266926 -1.1207204709657537 -1.5775520237805025
Ni 3.202529668732684 4.109863749129612 3.5669659799036753 -1.1551966503657523 0.1751808283426338 -0.2288587774820639
P 5.493913583476467 1.2876767986728839 8.515924773189306 -0.21799072441930845 0.3875421223903068 -0.3285059942627568
Ni 2.4913776635226137 7.748701766666548 12.462300710860132 -0.867536486474764 1.128864697339443 -0.13289440886959694
P 8.740680656300606 5.040883349322815 3.6771334256562884 -0.4769352655431592 0.865213237658226 -0.7816984076630216
P 8.47044582637739 3.8087048846561333 6.896351994101519 -0.7349488102123084 -0.4866627772435684 0.06004605744930304
P 3.031370864170052 1.15814403528413 13.640226049311835 0.09896561733263601 -0.017202994141847793 -0.36951123303052485
Ni 0.0036284200538973356 8.638480158115831 0.14722039488381325 0.5533335390982406 1.2091839032154852 -0.076571565908152
Ni 3.534154433911235 0.7101367806091312 10.831730886952426 0.4611702893994186 -0.6340898325117015 0.912018885157855
Ni 2.6318231751037713 3.0182407481669333 11.910941209513553 1.141161769539241 -0.6735506096104852 0.5869609973446988
Ni 8.782654879196826 1.6717578891255822 10.528747733507405 -0.5183410821834556 -0.006527259595556501 -0.33995408819869843
Ni 7.717429550393942 7.917020141389007 7.526551748866683 2.176116666802401 -0.6282475147983115 0.6916470621008799
Ni 4.728500205642204 8.083249425777405 12.949544380572503 -1.0157258738302184 1.0276043704353592 -1.567713697533842
Ni 5.874650296859285 8.906928266042812 11.042422977284113 -0.44778744033460943 -0.8727180306757034 0.6942945270260559
Ni 5.883089122287667 6.4007345539667835 11.212616035701087 1.5063962295712832 1.3020102404196028 0.6475968658592008
Ni 7.679853412411536 5.696940178310449 7.4726009909895295 -1.756308742399853 -2.055313127659067 2.1298630351514993
Ni 3.239583534131575 6.831600272690188 3.1494566953029124 1.4316532322314375 -0.39369271537273487 0.763538191814227
Ni 4.757179384351039 5.492713272802072 4.7239839221963305 -1.1339665373423826 0.7781826812002791 -0.11894951665373064
Ni 1.4717916283774624 0.9091162210547139 1.8797634825890797 -1.03617951369888 1.3524370296115868 -0.7159843532946637
Ni 1.4526049829409449 5.739665740712781 13.436922741635357 2.7762129159774767 0.6261831760701151 0.7031113539867375
Ni 2.064992493805158 7.383147608913294 5.406431093202236 -0.2815756482598054 -0.705655717675146 1.9599460263109667
Ni 7.550641342714414 8.732315132287454 2.3436734792982805 0.6659951658607304 -0.16657354628959697 0.992301067148375
Ni 6.539026836475553 3.7181134981084494 8.7057232113773 -0.7448719828632914 0.6691460527848863 0.4407449316655313
Ni 8.942177084091657 3.1930096474296557 4.840695351793625 -0.7209434970721519 -0.6414393308982372 1.15892654972183
Ni 3.8211477998914685 5.754014492744102 12.03476012758511 -0.8304447238287891 -0.18411001251146356 -0.13196392663552756
Ni 6.396345631729872 2.6403078139166727 6.234811302986972 -0.17257887194341245 1.1835201799007942 2.136998617755016
Ni 1.8018404131285632 2.1094956155268227 9.838777088495807 -0.0029050894619369323 0.753461010083883 -0.7956517845193201
Ni 6.169138732546811 6.791238680929032 6.069433231282935 -0.283966259979169 1.0545734428250355 -0.29922627146203307
Ni 3.4566015365976317 1.931730520916565 2.5203033182401606 0.2129022541528075 1.781612254161648 0.15170897047293874
Ni 1.2575957303977705 0.6797341023746951 11.824684685409048 1.289615980520308 -0.5450054788485194 0.551576704308134
Ni 4.228172233311234 0.9199327611396275 4.996217131952262 0.5110741162083972 -0.49787741501246513 -0.3435991411504534
Ni 4.291083172932596 9.069025183147604 2.2053033140358296 0.7984897681887474 -1.5550276174257411 0.39818006172012715
P 7.7888342915051085 3.2727890752308775 11.882269360946243 -0.4277114955203408 0.16235770843603653 0.2170777256867358
Ni 5.182923166685231 4.783567893833928 6.989125014019994 -0.07673894472395171 -0.05091607012357682 0.10317914119335134
P 5.415032098011814 8.159986844846571 4.466810488199453 -0.8653122251299356 -0.13180991755616656 -0.13672278147675163
Ni 5.459287827457077 8.140974290271226 8.526170478503115 -0.21518025155370685 -0.5767472900364906 0.3284746268041891
P 3.4765395215402592 5.99519447420543 1.0211922524063841 -0.09699075299445231 1.3012124271086558 0.5913652970599815
P 7.125474809025161 7.9687342898339475 -0.20778110787935478 -0.048616218345806594 -0.5993465154932452 -0.6508117732520727
P 2.3752865471517066 4.360536263863257 10.062652438356652 0.08742393524162363 -0.2478011229125216 0.10103098450209698
Ni 8.526200715336897 8.235762182840842 11.069284280895237 -0.39202741185517 0.18364489994958696 0.34947205499146267
