# total energy = -381164.6246931165 ev
CRYSTAL
PRIMVEC
9.25848935752051 0.00000000000000 0.00000000000000
0.00000000000000 9.25848935752051 0.00000000000000
0.00000000000000 0.00000000000000 13.55073503718224
PRIMCOORD
 96 1
Ni 9.098641383911325 2.9830574447557856 6.7939589979292805 0.16133749470163827 -0.3148588357929674 1.7710295935497953
Ni 3.758252228489068 2.2859024664888685 12.456743560876461 -0.4157602366957356 -0.9159033078139257 1.7662100606739646
Ni 3.305808378265988 6.583267262601734 4.795239126991173 -0.1494165748943362 0.8260468518714097 -0.09422990241986352
Ni 5.773704966958243 0.7652594989728179 0.04708404682633776 -1.049124503895322 -0.5219761078328816 -1.106460875722946
Ni 3.0194433073115827 6.661177449219299 13.07097117722836 0.1862049473672793 -0.2355493021283621 0.12465967966463046
Ni 0.9746689335461716 5.591738620222456 2.608448787387752 0.04036837651471757 -0.9674930069657595 0.2387197294365437
Ni 4.452999999563999 6.775769770047062 7.541606998745957 -1.4729520909802247 -1.158645013925669 1.6321069762082472
Ni 0.9836311510917216 1.3091966653187084 10.114783719828665 -3.1250910461386825 -1.1150715002100924 -1.4987777937940767
Ni 3.89966639252908 8.391802025941262 11.848735797569088 2.9161503477367843 -1.1738263496517978 0.023213976222618084
Ni 2.529558126763911 4.336528205428648 13.183062780123215 1.597199365697785 1.8215407149254694 1.3541051613426294
Ni 0.14753587709901828 4.4352977682136965 0.4848115284660998 0.5710618096159391 0.8310368488868333 -0.045044184723832106
Ni 0.6030313253624013 8.635624339021904 5.436188594871963 -0.15262634008088552 -0.17835048431986705 -1.7572698207615414
Ni 1.3120297630138926 7.738189722381701 11.020541718259619 -0.3255767364311038 -0.563849608138216 0.1457455538006522
Ni 7.146563004015797 4.189521913911866 7.075719822204551 -0.664970581250958 -0.5915383323027361 -0.5453476926792866
Ni 2.2316847537339703 5.545473949690313 6.655903813771009 -0.5626797561998309 0.28907169952653444 1.3733025602066864
Ni 2.8667152694692333 2.367571599721613 9.857549559292977 -0.03461759007386941 -0.3972855749303158 -0.9171356375591302
Ni 9.015861231974586 2.1766615524186768 0.527133008447984 -2.3665099412194146 -0.7542904479637138 -0.2685874635302536
Ni 7.331399482403567 5.196799246420256 12.894499743832741 -1.6438540894418463 0.5489665203787965 1.015353063871832
Ni 0.8603432572073683 7.216844195532604 0.7901879811436789 1.1203013811504643 1.2291431199462315 0.6348493363855453
Ni 8.371137078046976 8.83901482976637 1.2208049430778807 -0.7970134407535371 0.7022742027974228 0.6190658482990435
Ni 1.1409143656204457 2.7887680488948674 2.6154954235178325 -0.8339023433600864 1.011694126963006 1.9369881319632123
Ni 2.010351310920003 4.819802824687556 10.800572976753726 0.41609010923132855 0.30251214130215637 0.22670959234954505
Ni 4.207603743319365 4.7201722224069105 5.776299195632069 0.5681868020609891 -0.4465391697498051 0.5289911056981341
Ni 9.251573108516071 6.5059403608037645 6.667516736774504 -0.8091125380099161 0.9377147472620625 1.38475451079737
P 6.199095511739073 8.595655441145725 11.398634345113594 -0.4755867219350648 0.03624355571306661 0.501613999236762
Ni 5.7038311489662314 2.7817964065273064 8.882601945221888 -0.3402042565362915 0.5794315217368731 0.17486149733000206
P 1.9669752890182448 0.7347611096992677 7.839736831926736 -0.9660105088829621 0.2520197889795595 -0.06867930764426881
Ni 6.320261359898798 2.643076462844479 3.284941595307144 1.3002865728602768 -1.5490811700343192 -3.0066660345298537
P 0.16147082919386066 0.71099271622516 3.5033530589296076 0.3020812244123249 1.0877787259324105 1.0193133340711606
P 6.414734983695073 6.40434695881273 2.586008987113837 -0.05288013582848312 1.0611079015094433 0.30968886155625375
P 4.910156420789852 8.45304693199892 6.472915329827549 1.445544388391233 0.963978823164914 -0.4150051036972659
Ni 6.068393419703402 7.81206320770809 0.6533364005814011 0.09219127472327993 -1.3604817542929344 0.4415208905996073
Ni 7.3131510001904685 0.23646366586452297 3.3989441503728695 0.8054476875638193 0.47285183950240495 -0.14279444159212826
Ni 8.48716446470073 6.20328034885745 9.300126477578443 2.572711900533911 -0.5053996915314393 -0.044387267866123556
Ni 2.208205225122901 4.179606071978721 4.697388932183678 -0.21857179373375904 0.48822909328942365 -0.8816420726382107
Ni 8.298920862287378 8.50864415964461 10.306038182929841 0.21147272079513257 0.33126941594050685 2.2238036884657184
Ni 5.736948764834447 8.119630218930377 4.186594379626842 -1.451034464971527 -1.83567458322369 0.35990404895806405
Ni 7.479590860537941 8.124879782306747 8.348892631895179 0.13309315514396433 -0.4071503835395375 -2.2240553994652084
Ni 6.236490549617665 1.1538577335219735 7.389730741910002 0.853612420194504 -1.2469986600704137 0.1539021214695156
Ni 9.122852333169188 4.711598861407758 5.221599035591238 -0.4743271384963508 -0.9302732033823526 -0.2731519429724844
Ni 4.143988664026519 0.9168941092406533 8.258427933922484 -0.19505262756589634 0.6455798354291721 -0.46245532675942935
Ni 6.242786322273631 4.241989772207973 4.765766578320977 1.7745815725671115 0.48974784392679527 1.5934162445062687
Ni 6.252442926509176 2.7465956305891024 12.276939071368862 -0.8890723036640107 1.194389261404814 1.8170345995249997
Ni 8.792963104485827 0.4825052388063926 7.019971681184901 1.432771404996281 2.0932222440000143 1.2752607402399005
Ni 6.961374703038428 3.9190351519353723 1.197907773437488 1.6798171378000166 -2.240391674731387 0.761530674465895
Ni 0.24938018414737104 9.399403405571649 12.757745377407064 2.1854595414698816 -0.1917816701241084 -0.03620524627596346
Ni 2.360488855483653 0.5064800965896591 11.470033036276835 0.23651603691700557 1.1650061802570066 1.190142570313318
Ni 2.9396443888972272 8.48696077793833 9.18186964672534 0.8193995217582211 1.231167606575428 1.1529703321383948
Ni 4.265858157365441 3.1727731469519287 3.729378704070109 -3.0005231548569102 -1.8195619939325438 0.3515199386594269
Ni 1.0628282677080805 2.209316243826895 5.037540270296263 3.209031907927712 -1.9439859034372844 1.1916646633847994
Ni 7.078022408468578 3.770630828549399 10.461384521517935 -0.007143810133632858 0.7768336233715525 -1.2498024480677958
Ni 2.7177924706880625 8.385228498609298 6.347800736024046 0.4745983898798665 0.2888387575801219 1.1314226878746063
Ni 7.602441753732057 0.9480785525639196 11.940460575921897 -0.7484386171686271 -1.1999639272791138 -0.5485559152039391
Ni 7.2857180966910216 8.622440250401176 6.025537724894679 -1.7475842180426613 -1.2557298692958245 -1.234279155621216
Ni 7.863105258667406 6.808489270879679 4.370762395094377 0.11665043620690879 0.015377253787018676 -0.5430414131436131
Ni 4.864030627595709 5.214881075827756 3.2502111506202973 -0.8760188129141622 1.5069837266436368 -0.8476945120481723
P 7.091715713995302 1.4419448834675688 1.5074922094564438 0.04847352212035523 0.8027570281055336 0.07704670577235763
Ni 3.3224736588258947 1.1927526466509568 2.2172933581215704 1.7728139391437276 0.6571803957825779 1.440111904521752
P 8.602664117470086 2.7345503361399697 11.77611683752929 -0.4908822146415546 0.7071135331675951 -0.48306786080345837
Ni 3.0063795790504555 8.874771115056571 3.84591530762986 -0.7809934111761969 -1.170245574279075 1.3255134657478655
P 0.9068532777033091 6.474174484358741 4.6342154828256685 1.1520082253354418 0.4151056338308722 0.3311462600990813
P 2.793110280329643 0.3136581712669331 13.639221136213315 -0.7260833894018786 2.2122056992154744 -3.2157319456557074
P 4.882001355132809 3.0994088785315377 6.897988308428821 1.2943105577825 -0.17960878220700036 1.1313010746950776
Ni 1.392708237902243 2.86555795831924 12.132935307899624 -1.1954328721779799 -1.3795207732022563 -2.1300368417252025
Ni 3.8087850625423867 4.492570782404578 8.806433280422832 -0.6034780211631156 -0.2502544695490206 -3.211025284208657
Ni 3.5900810306612048 1.769241735174946 5.866560206842365 0.537572419609242 -1.4684233498719357 -2.024993907850235
Ni 8.47991506765717 2.6450022285980683 4.2328155352597445 -2.4775582007481973 0.24172560614240304 -1.0071003369447364
Ni 1.035062058597435 8.085771923926165 3.0031409595283134 -1.8827278279577508 -3.0555272790069314 1.8280314648561353
Ni 2.470026041208243 2.952198900252357 7.416479443057574 -1.0334687996359364 0.14658938985818623 0.35971712975823855
Ni 2.246766832640686 6.490349064991051 9.165486750086032 -1.366089330287699 -2.3925161354751894 -1.4887618043189716
Ni 0.6338269121392699 8.283912851294263 8.630043321732174 0.23401769597518407 0.2036514249785009 -0.7411767933998912
Ni 0.26922390404962054 3.5272899569071545 9.67728399702322 -0.9630352283047221 -1.4972266472568732 0.9442870011629415
Ni 2.9704844164222552 6.813498113536851 2.539163809308858 0.2645418327059702 -2.0828923228289162 -0.1509890615877787
Ni 8.128425783670329 7.4871457877251 12.766337255384617 -0.03477185626354657 -0.10701111334493184 -1.1697449804935727
Ni 8.836228024517185 4.9350617567377135 11.413065552229554 2.4494550147540783 0.9947844956918611 -0.2581333580764651
Ni 8.109871771313632 4.62865205666542 3.0753525460433115 -0.6010539851026552 0.16776756659769815 -0.11838978749551869
Ni 5.130795476913823 4.878686815999227 0.6037729303473173 -1.8896425527997136 1.7768765392488752 -0.9823861220275081
Ni 8.122111494035963 1.4362601710988006 9.011265317935731 -0.8727529976786969 0.4259202079478729 0.5466031623529425
Ni 4.7828059018445614 2.5394647102078562 1.2486729955697256 0.6731641728053439 1.389661204070368 -0.600367757668908
Ni 3.700932921852187 8.314326988316092 1.2172570900164603 2.4482656224316672 -1.0892478542787694 0.5895902074374297
Ni 4.291800444103696 3.666843164617977 10.765977706009197 1.5938199077025907 0.7569083452025351 1.2721535620694864
Ni 6.070282151500191 6.371812627764111 5.974220696806126 0.8224187682005191 -0.08052412279799681 0.02256220157123211
Ni 6.481914581329898 5.704599603569828 8.616817569910047 -2.215147555452617 -0.004413555686663366 -0.6371643576719672
Ni 6.672204309856439 1.606792283672651 5.264907470521837 -0.6530771722474816 0.31986117410356524 0.3663163802423111
Ni 5.482729168382264 8.316771229464878 9.29344647762068 -1.3475838152843436 0.0893329793388784 0.6159702400928552
Ni 4.959680079520377 1.2752272684440975 10.767928469683627 0.6775070231550718 -1.3390328403905392 -0.6983118757155651
Ni 1.3626366649808106 0.4304271629056027 1.6744912825515936 -2.1474105571169595 -0.5163394783723946 -1.2704126681189798
Ni 4.270959584914612 6.099761181112827 10.214557828691909 1.0138587387144928 1.467092546875654 1.5531275721895508
P 4.698599942571031 0.6977549283670738 3.951651883537871 1.5363356974431928 2.977291438022479 0.0063177146879117
Ni 8.074689512353826 6.387015067030426 1.3819850557108628 0.056363980612025515 -0.3014747011765776 -0.14437798402916427
P 5.503597803038947 4.925358860056168 11.856228692878606 0.0018789621902677318 1.027015844921741 0.48650388306820086
Ni 6.66285323576449 6.527355246323245 10.782130066267428 0.14377274634499754 0.3098104747357826 0.7930377439352406
P 0.9959912341736528 4.491459763700584 8.141023809924699 0.6532363235331654 2.302598230167118 -2.301879606833539
P 3.256756902484661 4.418215855639792 1.7585194788324856 -0.30865784918857814 -0.20836091463902826 0.7576053712695598
P 0.9466712622055274 6.2352221365972715 12.580231438127534 -0.1375679030858663 -1.5198909216236083 -1.6077789409858438
Ni 1.9716323090858188 2.2881707963428557 0.7247674964568434 2.977087806652105 1.8928538606481595 -2.4192172989154592
