# total energy = -340860.1268211631 ev
CRYSTAL
PRIMVEC
9.36142913497654 0.00000000000000 0.00000000000000

0.00000000000000 9.36142913497654 0.00000000000000

0.00000000000000 0.00000000000000 13.70139780679703

PRIMCOORD
 96 1
Ni 3.153865424687712 8.780271472612345 1.611435195007047 -0.009362157941190328 0.14918337583760757 0.020590165446525827
Ni 5.321391968770062 4.312304815733737 7.7369458292101765 0.9259771471101602 -1.3378704446513217 1.4156794825110006
Ni 5.394130271975237 5.65768258215996 10.300532902316153 2.59319562230956 2.81460514260243 -0.9686168361575577
Ni 4.193695510507279 5.083649118294048 0.8663637428901498 -0.47889418904174297 0.07782215048580146 -1.4078774699680785
Ni 4.691592472446848 6.962750035381359 6.858275551777745 -0.2555838521817341 1.252551985788475 1.2459388513473315
Ni 7.735891732306585 4.540967080095333 9.158411418132026 1.2691960221030594 1.2050379993679117 -0.514234773324566
Ni 4.767691528657257 8.799846220617754 13.800321850818234 2.392661659914118 -1.960771093315423 -0.9201502560157377
Ni 0.36285647656050896 2.823182307259191 9.972904419165088 -0.03678657270073019 1.0497060874304052 0.5018109457389164
Ni 4.29087650478951 4.982817166708084 5.871254222999454 -2.4389415168172643 0.4270576639864258 -1.4607511780386584
Ni 1.1733708702754009 6.564514846404762 5.705823730709845 1.5983216522276862 0.25549977710835997 0.08931241051358813
Ni 0.6014465363595691 0.9884545635557321 11.577667723735287 1.2473442163352906 0.4571868792716384 0.8720598282664143
Ni 8.383403052267404 1.8555101160477947 4.745821358264988 0.1167162564478377 1.1238153078409934 -0.5819118649565655
Ni 5.807680758769551 4.976245443561361 3.2537116178016676 -0.44601363626363827 0.7488299390697749 -2.4140763781444683
Ni 7.440416949286644 7.384014339658434 9.607036370900449 -0.06735338974399369 -1.9822439184772183 0.6105141020742906
Ni 3.069425335252618 8.862783107676748 8.055750229400982 -0.010945186157594053 0.09663748342009164 -0.09753171309958687
Ni 5.135455266291143 6.9642759483057395 2.000280870712756 -1.063683889766736 1.031140922833708 -0.3329781711014975
Ni 0.558326858316666 6.273505465010158 8.33339523477812 -0.49487770895419286 0.15021001732990905 1.078380315436646
Ni 6.212497032321853 8.633502989002212 11.846118869707302 0.793950228447181 -0.8161259932132718 -0.09753042754800624
Ni 4.981347422357605 8.012222393054378 9.236427694998342 0.7781245742688341 -0.10876949079693526 -0.6422625981304809
Ni 1.1118475589929797 8.976589999834447 4.773923431931862 0.6017096164087831 1.052945163192993 -0.44452445331262147
Ni 1.6943905618052888 4.050418839908153 5.24842992741217 1.380987330445454 1.4475449637610296 -1.6200567299119324
Ni 7.470270546316412 5.236305940735075 11.349580251113302 0.9985236510193191 1.560071864717868 1.2420135481509964
Ni 2.169595419887799 6.567688370830316 2.565682160912582 -0.05801360040030654 1.16969998618825 0.3800080187967907
Ni 6.819857183370574 2.6521021925777784 2.849246397836263 -0.6351771520386094 -0.4876927611699794 0.6232354062957008
P 3.3442581673629825 5.425425529068532 3.7045149750946527 1.593768742749681 -2.225279758790613 1.0939367751140066
P 2.630121557323499 2.316307734924029 10.235423227589985 -0.5001754670180224 -0.054761926232228274 -0.19014773406511123
P 2.8976992819713137 5.03017663593781 12.591022752245387 0.7946822215171991 0.3321299641685893 1.2104337164621863
P 5.5385958440553225 8.366280998655785 5.275147445732321 -0.12873307840305573 -0.6514717754335749 -0.1805210096086246
P 8.950593311546058 1.4893846284860954 2.689502037511497 1.2787738955994814 0.9693516574410531 -2.1973971734477318
P 6.419974382892805 5.422504763225543 0.9622528599725962 -0.6810183787424401 -0.10323056325657705 1.6104215208150139
P 2.865533411982513 8.244638590438534 5.855498001876592 -0.13652274965080358 -0.9173672939539621 1.0383125008814826
P 6.6740716498037544 6.06822805025043 7.8746318544200955 0.6423898677369646 1.2199452554970474 -0.3412594372736833
Ni 9.144019157212124 5.470538255342114 4.331381535717199 -1.4722476087140322 0.5364884425164438 0.2981554069953575
Ni 7.43289036038356 1.209945973315635 12.080960613341196 -0.29326156923816593 -0.2662421032265286 0.41603123096893513
Ni 7.7226546717233004 -0.04733512951436909 3.1891786071009114 -0.19998708875303625 -2.2950096191865827 1.3700210612419372
Ni 5.29731437342338 0.36311672428626235 7.135948641441836 0.9932829714456701 -2.52457750692053 -2.063233668057724
Ni 5.1519594655898215 3.4173615662985313 4.611438045200599 -0.7952643192729143 -1.500246150809487 1.6564473527258246
Ni 7.382769269603571 9.338839855796795 5.641906702036232 0.6161805563314484 -2.305007353829243 -0.17953884820101337
Ni 2.0795946416362474 4.040149352312778 1.862102434338282 -0.8936180140531642 0.6605207730097205 0.05739139343527535
Ni 8.717306501266398 3.026306593352613 12.302895754834937 1.1578240606862704 1.2537928001741119 -0.09817526022085672
Ni 6.182034942408128 3.4506040006204843 11.973651489041247 -0.27936964174742207 -0.2969621580182047 0.19475309404760655
Ni 3.3137492703043385 0.9234806295498326 13.14211977895776 -1.3152033420711091 -6.333505117976737 1.391309024086436
Ni 7.233669790176438 9.035913375305642 8.21376834222111 1.1590209092078492 1.4235054063133226 -0.8606407877961951
Ni 2.1081282771792815 4.132209644940795 8.899016518559067 0.4402633640434224 0.5064034502056052 -0.1529418144387753
Ni 3.905691147816518 8.520257782583549 3.7944380534856377 0.04655650760330046 -0.7473410132290742 0.8602237548634346
Ni 8.216273460617211 7.073055753099065 6.517864037349119 0.1714846104379692 -0.2058008672213359 0.5207952001509031
Ni 0.7191187625447341 6.5582801347014605 12.772155169369748 -1.7905941459452839 -1.5711816014777844 0.25869077324183193
Ni 5.517429653122645 1.284125936584336 4.274890928656542 -0.14283686479428948 -2.7667553701090024 -0.10735564116854414
Ni 8.983255337271007 3.916363176858204 2.7675314203783925 0.07688138383908695 -2.3977771267638124 -0.7467594296939912
Ni 1.1703096829976538 2.1447033802195157 4.045597703981427 2.0987845685791404 -0.9055026813058921 -0.9646982178294418
Ni 1.3688281460309801 2.5371063989391205 6.944937108310726 -0.09139937494960389 -1.5962475433074765 0.9672955462429726
Ni 3.9604274230855863 4.254544798902857 10.667264074333113 -2.5311417904016085 -3.1914892710582583 1.1198414107949102
Ni 9.482846717856669 5.985313873739718 1.843701609527459 -0.013195929864983726 0.68930401579 0.06114340427853987
Ni 4.298487346553449 3.4114919503256043 2.325058798738211 -0.038475016146746636 -1.9757958488590295 0.6450866978428373
Ni 8.347998127850161 4.939089931924122 0.07917522177452892 -2.3762829614457783 4.217248874975395 -2.0594652021542275
Ni 5.540337069846333 6.223215868508459 12.798941026121481 -0.5666845064838499 0.35935177599901985 -0.4930532541509444
P 6.311054156664721 3.1708002497196506 9.739720584604253 -1.5368668873563143 0.6251789031753169 0.6054569992663573
P 5.144460960973689 2.4816773779252412 13.748119714375115 0.09079156616227589 0.12458846010706287 0.44352917927888785
P 3.2532557162101505 1.110068887486032 3.140031104935253 -1.2320806053080007 1.341950014037334 1.177451862219527
P 8.221637559425005 0.6230658204550686 10.132923069359084 -1.3338371551222126 -0.3080261291418502 0.47257056081656024
P 0.31260432577474573 3.615383873595709 0.516739646198433 3.3875870520592173 -2.7901079287920143 1.3953070895022357
P 8.915047965694058 1.1703564901425736 6.746609618428673 0.9297906073189792 -0.998989534912144 0.7689789032138241
P 1.5107099637114996 9.034939786691313 13.497041508311487 -0.4658293854379848 -0.003429594506839255 1.3482674716149297
P 3.843053826485009 5.583362197456499 8.748671032934174 -0.77454122779295 0.7180571766632925 -0.22185766357388242
Ni 4.848415130785727 1.056025357961775 1.7722486305217782 -0.05144160360974366 0.8349189575500587 -0.37342728025547944
Ni 4.421449716257435 1.8535161316742166 11.61877188611795 2.563788372792036 2.175613244803421 -1.0894167757564657
Ni 1.02534795518142 8.763898333319442 2.282255536994965 -2.185915140950061 -0.009437491263816005 0.23817054180129302
Ni 6.35725280870044 6.080191956491899 5.220560953326995 0.4079957622589683 0.5694111613863935 1.2193613579691194
Ni 2.020758060472216 8.071470877093704 11.678892855338574 1.3059941647680153 1.5096191073839549 -0.81200322929415
Ni 7.904275755440624 2.3150813877271332 8.282193835093386 0.679578818082436 -0.5654562905037035 1.4162947474974963
Ni 3.2471520645126244 1.062110286801333 5.487710860670244 -0.14286977491475394 -0.029418562371433202 -0.30571625006175096
Ni 7.208403293348797 6.764718366655197 3.1213157361105703 1.802989434285843 0.8597874386569644 -0.674248149898142
Ni 8.86064870186841 8.29059384532067 11.5213680898259 -0.8329075835469848 -0.1085802576042646 -0.2633007612100175
Ni 6.9986698383927175 0.8202371738576066 1.3196254114343162 -0.1489172666604145 -0.9631007914353348 -1.9177369970430846
Ni 2.167423568363526 5.980483376384008 10.801455478103328 -0.5858392250354298 -0.7162882576883277 -1.3449816017748062
Ni 9.114165560182355 0.8922368603159495 0.31615698807414905 0.21606908191656335 0.6073408465526313 -0.5526663378278869
Ni 7.9233449862809 4.3902293505960115 6.7240158095759455 0.18222745077677002 0.3869821361217787 -0.7154750177584129
Ni 2.630561544485744 6.895497529560768 0.3581289549236218 0.5146620906699717 0.02564521137193003 -1.1928142036082103
Ni 1.7870967930331974 1.5769795194887757 1.4464699657379407 0.3089185590491325 0.5732004532254967 0.5833956485909436
Ni 0.9579363050681039 8.441163069098282 7.115368475963553 -1.4165302605470702 1.1233157424967557 0.8295160413669327
Ni 2.884134571373592 2.8058262179229754 13.137256516600607 -1.7046912753338772 6.907911161474561 0.6674678937515149
Ni 0.6749683911706997 0.630113104194175 9.16006932720508 1.1056463502414506 0.5655763610213357 -1.883327666325279
Ni 6.094224738538818 1.1179137649745696 9.937184950733988 -0.6158483698030104 -1.0795784495098053 -0.41822721017898934
Ni 8.334424055823455 8.005201321316427 0.981674080542668 -0.2382026805908091 -0.30413116496281817 -0.25187323609936624
Ni 6.8272339894099145 2.028144227940541 6.319454166892006 -2.174955042394132 2.194242944089466 0.3198771149431652
Ni 4.175599868281333 1.6810411640741976 8.242062325182156 -2.0370055875991304 2.481132548363017 2.269677825290014
Ni 7.3927579143294295 3.0097462254800322 0.7602893910731819 -0.5885085443374768 -0.18922856468495153 -1.6648726006750425
Ni 3.5417094274921403 0.25391097447416827 10.461537310982157 -1.201307842901518 -0.715994894817625 -1.4764313077780766
P 0.16986219277060274 4.954218001162162 10.903681346465001 0.19881980791781242 -0.9418020299575587 -0.8838257105530908
P 0.7908647542776123 4.635377091398318 7.027953324397364 -0.5816431846762112 0.38781311666350626 0.340123266786711
P 1.322760554001036 8.025936886515844 9.464185645320093 1.030733402982644 -0.9354568044658212 0.12258762762695018
P 3.639751673240892 2.9196424715096576 6.518590484238272 0.21241528721406 0.8467190355087804 -0.4213847819713646
P 7.566562204845168 7.077390094718627 12.842895743629752 0.6534929196286616 0.24215420903938942 -0.33384746108032826
P 7.290166014094486 3.874611203589854 4.499621392844886 0.9477358789434903 1.192209994365308 1.4118279699753944
P 8.863204371981025 7.735760672300809 4.39444948278197 -1.2098346494256067 -1.2663133012386256 -0.12076034461022428
P 4.390950180627774 7.766363183649293 11.281114504096395 -1.0046207650559924 -1.080591464155352 0.5761896177608077
