# total energy = -340864.27506016835 ev
CRYSTAL
PRIMVEC
9.28809575839123 0.00000000000000 0.00000000000000

0.00000000000000 9.28809575839123 0.00000000000000

0.00000000000000 0.00000000000000 13.59406699751331

PRIMCOORD
 96 1
Ni 4.664453749247963 1.088750566982372 5.693942551023252 -1.128766738308998 1.427559007557406 0.29979911324636754
Ni 3.3383180347571844 7.709815960483641 11.090066960475045 -2.9269307261817397 -1.8515755707246628 -0.11778994912799069
Ni 1.7142573655954743 2.35947350308536 12.488257863061166 0.3632878778286324 -0.21600429011689898 -0.21918088807266767
Ni 5.538027005316834 4.89972121095811 7.526911995373703 0.10650820556658432 -0.5748390172701843 1.2197156559847444
Ni 3.5720343845010625 0.6883881346780003 11.282110411661684 1.8891185619754434 2.2500675072582537 0.43949357575693343
Ni 2.0592451007040413 0.5765966159593531 1.0620333599705583 -1.2315018499863952 0.22249555426819748 1.1991892538966187
Ni 4.541302889602687 6.441387183995434 1.3122592996548152 -1.0375334566236132 2.0679542134618445 1.093965828579729
Ni 4.993001555133199 4.793846209140741 11.083663747363993 2.048421799855872 -0.7590927544483637 1.5303427130845515
Ni 8.330957354161734 4.528624639099949 2.2963098089140273 -0.7260193689331625 -0.5780492966773657 0.2597192145063462
Ni 7.6047861753664545 7.728689370755849 4.659624868342195 0.3723949823362232 1.3114089080256834 0.6347048403878811
Ni 6.033045348755603 2.052427638528943 13.568169878264486 2.069560124496384 1.2226845088050813 -1.1948667152618648
Ni 0.48125059932140013 4.408724612916913 10.412728873139981 2.0431932044670815 -0.8342296447925182 2.3523048533636266
Ni 0.9657297406755854 5.531469609818714 8.311168137662737 0.2542767033345363 0.18073415406069518 0.07834845530291668
Ni 7.212494169334485 3.3364325513490845 9.974429214331263 -0.9061228313883943 0.13712130246675094 0.5135647438407349
Ni 6.435164159939145 7.143353585640432 2.7538042461029346 1.0589525457293374 1.4328356825753128 -0.9129532240466665
Ni 5.41654800288071 0.4348574905769858 8.285488410930157 1.1825616726422665 -0.16985298837181717 0.8747054934193775
Ni 0.41784077061649777 6.955687613913093 12.150879864682922 -2.0570972161426835 -0.829460762648965 -2.8099067086854963
Ni 8.015403594029854 7.821969714930938 8.13331689656268 -0.9062357028171747 -1.2110276412924434 -0.3677063186113022
Ni 8.273176111394312 1.3508699130906257 4.626590827508468 -1.1587082630634369 -0.27058906734131466 -0.45019887798957947
Ni 0.4375194587777804 1.6569312395127647 2.660454241210797 1.6109449974186516 0.3664876157128527 0.8005337952019697
Ni 9.270169581881044 8.604473193579043 10.032570835208215 -2.039485159487875 -0.4197017378419869 0.4075723015683046
Ni 1.504402133464441 2.5463685628773693 7.647192833476601 -1.3228562306306766 0.4978470759951619 -0.002329676574441149
Ni 2.514640428285902 0.8547128491305122 4.115372187713014 -0.5227746924747771 -0.4955027441327014 0.4643270898608455
Ni 6.6492919160491235 5.9019531673668535 0.628411186109224 1.3795865934431852 0.058743279477479475 -0.67837914134738
P 6.703144294375038 6.488227050138516 11.946982017073836 0.6749611168047666 -1.0024934343003442 -0.34985129270775234
P 8.778764307633164 3.572638110715479 4.463380411512782 -2.4062779651459723 1.6481951400193615 -0.5231703852512989
P 7.975111835289284 0.6012732283664403 8.27768548181122 -0.4125934089319797 1.0463217443392043 0.3964358253355108
P 5.721634079264176 5.189695555789962 3.094716364859413 -0.08402545108303594 -1.009066716642488 -0.33348210732110956
P 0.9714233432823095 8.640167344994444 2.8681982892104956 0.7327708287243831 0.7620117278673716 -0.034626588934933915
P 8.882159387923625 6.805647717487284 6.307565231307963 0.9510127499225494 0.785162454952222 -0.8897161078955967
P 6.305140109545132 6.598114509257852 8.849587894251098 -0.44767482601614517 -0.10582377790504999 0.04163567326291539
P 3.492453981345416 8.352041331188266 0.21277819581836774 1.7969954214859374 0.04671643021993245 1.1415281517397244
Ni 8.254367717791348 2.4298958439730955 6.841444966763916 -0.2605167707069771 -0.04315905188597729 0.5391932430421165
Ni 8.37244727723553 6.131369128844969 9.940837887761152 -1.7939494355707621 0.8890213958214173 0.3769509771380218
Ni 4.702051960262676 2.796775620425951 9.596731592925632 -0.043901072258324396 -0.1667023585579774 -0.4663652033367968
Ni 0.9686647788872083 2.394805418772111 5.0462260581961225 2.6387835953520034 -1.1648516569570133 1.7251436296509577
Ni 1.96101420157074 7.553803818582916 5.456630779470135 -0.752157203670795 -0.145415167044427 -0.5597165598064489
Ni 7.723701663415211 8.356741107565105 11.86651924483558 -0.7530519475709223 0.3802949539095902 0.5366157121229274
Ni 0.22186009570230703 5.944919897642067 3.9817833662252635 0.04849409094564552 1.2046613327547833 1.5443194869796177
Ni 3.307908809741826 1.3181107998868482 8.06695066702626 0.08672742339523128 -0.0713411707471481 0.013990400741821068
Ni 4.393520000409234 6.799118186275984 3.7846156726925746 0.5077172839210223 1.7556415411294992 2.300074435304
Ni 2.3629751151289735 4.170847196341367 0.5262412056292479 -0.12217393712829927 -0.10055995840294941 0.6758327207764425
Ni 8.069218819973344 2.1095587146039176 12.567823405263841 0.9828764314003655 -2.7787336255168014 -1.9409787411798445
Ni 4.059863741940477 1.2390783943719785 0.042475390017634236 -3.278382787717709 1.0763807685081141 0.6386118887517711
Ni 4.902711977743372 4.879259536337209 5.2343954447053305 -0.08577277279144584 -0.02714287896337906 0.000560500489160325
Ni 8.231602595460059 4.870760928857351 6.628766153568537 -0.31293642195927396 -1.1074250394084282 1.305401782599655
Ni 0.04403764769863096 7.208342390598423 0.8149115018379608 -0.7002409744174778 -1.1077500268480147 1.9053792468086796
Ni 3.805583548524026 8.330056408887915 6.941375587393188 -0.5948650826831238 0.329754007737245 -0.09617262796853114
Ni 1.5263220390955483 4.117877187098061 3.2469157435137093 -0.4729431136646307 -3.046099300824812 0.6059547648383823
Ni 2.8826905047851636 5.371110639174194 11.81550066447918 -0.5722213771416791 -2.028263322630126 -1.775282455288878
Ni 0.0591094404391385 2.8813808833046615 0.6793387431286835 1.921971603949722 2.0546808933917062 -1.1873004728788326
Ni 5.002484700747336 2.861875882531218 1.8256559978699707 -0.9198381240919576 0.24472068421498497 -0.1849685038570169
Ni 3.766480666021076 8.908221784195188 2.638825981781731 0.4805684914203723 -0.8462729491102974 -0.6053287012186092
Ni 6.1581095560957975 3.2078853081564898 3.894237492277566 2.886227334925107 0.018641012139954994 0.5377809360756223
Ni 1.343402284223079 4.476862082285474 6.224138627761706 -1.6950658364289712 -0.6702128034865039 1.0991833682249263
Ni 8.205168675364241 9.274228479661042 2.508662609953622 -1.4359076366324175 -0.9186037374642244 0.3168344714620995
P 7.242791937202566 8.136845444083551 0.8170412621605087 -0.3380666413679984 -0.5814716920953534 -0.6184387562380058
P 5.765325280996689 2.8125560948612267 11.483696452274337 0.35220796586538694 -1.2951248261536792 0.8778486670340494
P 2.078490034800505 0.4780239149077363 6.418370354273211 -0.6593064409866451 0.19063444389354267 -0.8642282480371374
P 3.2799237776797385 4.305858954076018 8.461001838366082 -0.6598193760673218 -0.8820799315065777 0.48825686120356554
P 0.8980269541814043 5.596411974298673 1.9470783429228955 -0.20870389980074378 0.2187900803921522 -2.3576424635264557
P 5.930077520863037 2.8810093594804047 6.489209730653673 0.09634257788749213 0.08715474074063699 -0.9060045606429752
P 2.79223374167442 2.307785251035736 2.2430890210893475 -0.2397525415764323 0.029963893351941946 -0.18530583259177763
P 0.8144721749157781 4.667686006518991 12.571357525642078 -0.028336127940531843 -0.6531995567579589 0.3989223392027904
Ni 7.274455055124788 4.0311449503254835 12.739666177316117 -0.9974170482187015 3.005742751384636 -0.36103533434902985
Ni 2.271013680529993 2.625085173141621 10.040156422889963 0.5450034219659904 1.4738676608159584 -0.23841788192540878
Ni 9.053794106634317 -0.020175601276225117 0.15563876045734695 -0.09617237085821502 2.2801231889930538 -0.703290302766763
Ni 3.1266237596960837 6.02192749831474 7.016142899405598 0.34836288108768393 -0.6555644574457097 -0.16634934609393287
Ni 2.3082310796248438 6.847249097708356 2.95623364579665 -1.917450319040601 2.185323015892017 0.020449011882971234
Ni 5.9227956539076185 7.115052758327728 6.564276119344609 0.6470505064374276 -0.8641380023161762 0.594191453654867
Ni 5.309010431949795 8.323396844338124 10.536896779254157 2.5407507742462823 -0.925858876364741 -1.9661148741258396
Ni 4.731123699510713 6.6570939163585 12.754320934563896 0.11652470926232189 0.07932676005578597 -1.9331942121384194
Ni 5.411671752687349 9.076540652774394 12.67777216581418 1.2511389074910322 -1.0644027702106316 0.3191479500866245
Ni 1.8744398624234726 8.835291657493725 12.526578687914055 -1.0270937493475278 0.736397626843693 -0.7904033916361871
Ni 6.075538386154889 0.7711636427222496 3.7088554632598405 -0.2700128831228705 -0.8475772697440178 0.3203399135121967
Ni 7.359599027548669 5.389798287534274 4.571086096974174 -0.9273763414505319 -0.5233429062734213 -0.49871225220893467
Ni 1.8580556617737807 0.39774690458160905 9.899484499692772 0.28040065411509774 -0.07650188901248114 -0.9337915009482562
Ni 2.1265187771812064 6.684558815066628 -0.23614890198319494 1.9674683028299405 -0.24734938008708365 3.538022812246687
Ni -0.08668486748498361 1.8652353596775288 9.515642803043505 -0.11621334866949018 0.3664598477987108 0.529464702900443
Ni 9.160189241805645 8.931442023211192 6.233545610991868 0.31168146650625034 1.5535104094502663 -0.7250672894325384
Ni 6.885135239686867 0.8561004906141084 10.343806559692679 0.2381782551107769 0.7982683962065608 -0.18205827218875742
Ni 3.4986955815929175 5.043166559503374 2.6197129386428784 1.0955989933077777 -3.255985393859115 0.5209126995653739
Ni 4.0180115831380325 2.8743776592174344 3.977705892254053 -2.451183824519727 -0.4216076966154481 0.93417048155423
Ni 3.7015661658279364 3.1700084542735842 6.607830786071707 -0.24685238584600713 0.9026107044700779 0.007149209450271558
Ni 5.713887807528438 0.2715235429097353 1.416664924747252 0.8805339271756963 -0.6373093678902636 0.7865194832007487
Ni 4.15184375273067 6.020376386348472 9.512733771499581 -0.10464338444370365 1.2804317429178786 -1.6664828825849556
Ni 6.815808894080687 0.37455360104286406 6.42357726067016 0.5521179215235845 -0.13492506614638053 -0.8245083037396962
Ni 1.1598044983713427 7.948742931862711 7.899158433467936 1.6993413238758734 -0.20651383412796046 0.33095342736198485
P 4.5730310241941545 4.477512248977923 13.891776417287117 0.2116339289633452 0.46078128149111613 -0.4639589078881493
P 3.6303822011004763 8.732788234381477 9.07490966318591 0.5810667433474509 -0.7396739836021197 0.815810518855382
P 7.720627303769492 2.1839192080287675 1.6267068475999737 -2.0739975914424473 -0.629034015255349 0.8295152700359844
P 1.3996788555022652 6.922510536407026 10.021613668821344 -0.10599218516211423 -0.5296115128909524 0.24751907289572858
P 0.3113323206787717 0.8786891391288767 11.712525406110126 -0.3884062701628149 -0.22558396338553408 -0.8488579362286542
P 5.180713967338573 8.447940918324361 5.097054232592593 0.7346765303875283 -0.4492699384174069 -1.4860937705685051
P 8.660805493431868 4.063448946844548 8.73965306584417 0.36034884980496645 -0.34377063373131117 -3.043415326234746
P 2.638692233204999 5.102926166634961 4.916987780690411 3.066983086252357 1.6722092435457716 -1.9652651245310344
