# total energy = -340864.71656487155 ev
CRYSTAL
PRIMVEC
9.27040672881080 0.00000000000000 0.00000000000000

0.00000000000000 9.27040672881080 0.00000000000000

0.00000000000000 0.00000000000000 13.56817731468770

PRIMCOORD
 96 1
Ni 1.6893925831720795 8.665670353082643 6.192258144910952 1.6337383411640833 0.489149548221164 0.8023988734351665
Ni 4.451704967732497 8.763816149872737 8.719073458493902 0.9642601018507587 0.7239450029026371 -1.3334044384601682
Ni 6.855215527511221 6.396599232715457 0.37142441068038123 -3.2588020373723032 1.5481856548032433 -0.6987502488045644
Ni 1.0383411840248686 6.91255299356834 11.323159466835028 -0.848569458453958 -2.327934394939062 1.4550045053628684
Ni 1.152107616272723 4.34332464183536 6.642830507726478 -0.005143491874152432 -0.4061209138337587 -0.37455496610201944
Ni 6.567313773934837 7.967469664951355 2.259725623272249 -0.5284313765399221 -1.0713136383978517 -0.7594429386989306
Ni 0.3130180667192373 6.67209718199363 5.937135622738186 0.7041374812584067 -2.55661088120699 -0.5089395863638977
Ni 3.1799627517076097 0.5111155355440379 4.2791585941294645 -1.0165352571053912 0.3134347017519312 -0.22379421847496297
Ni 0.09495863093230303 7.494947759955805 1.546107321592118 1.4512638073735136 1.79463360612198 -1.502350855857316
Ni 3.1751514105784833 5.175232407240996 5.587253783379314 -1.0954411275736746 0.65311779567743 0.54208727676046
Ni 2.790753992622381 2.8569446971733656 11.058946383754321 0.1542458779621795 0.15168017411753232 1.7771668167957846
Ni 5.06087266895795 4.79757457502839 10.712103383744443 -0.7356046986287524 -0.028276478347190014 0.7508274291157779
Ni 6.385660152691625 2.8550998862201937 10.275479274999983 -0.10065046123422666 0.011149845969232412 -1.6756779188206623
Ni 1.4111505934811486 2.9802874596454734 9.111234842144887 0.8693874236405738 -0.05650770527874139 0.10247543025810739
Ni 0.5462540854782187 1.3765534353040796 7.510976293312758 -1.7896055567797695 0.3750866702357734 -1.3158715717827272
Ni 8.862508900664022 3.05609157604791 5.439821868837776 2.2123496809925056 1.1013950311642644 2.8315577112963686
Ni 1.1174641060616546 4.707345705645374 0.17275959295942933 -2.0450369425440393 0.9855087268168898 0.7179337637115506
Ni 4.165583132261688 7.099082848788278 10.031577653217765 1.0773259060302025 -2.467575635614189 1.5658136522976516
Ni 8.434586922782588 1.8823746415247187 10.242237450297052 1.4496311568660971 -0.35363312834768773 -0.10674628971931939
Ni 6.557505683540588 7.159201436885356 7.84127996055101 -0.42962336783107297 -0.36584766813600866 0.6540230811005189
Ni 8.07922441892364 0.7521210822419803 12.53331929752914 -0.013647672690421659 1.5631762146748045 1.1378697290515305
Ni 6.92555937430854 3.379054008141355 12.471692414245727 -0.6444824885999352 0.2632873914735788 -0.5761001433707948
Ni 3.8264716515228905 0.8061898028614706 13.218186359560192 0.39764758625542485 -0.4876084289862893 -0.9358504403598141
Ni 7.006860841943293 0.9965409197643099 1.7263333001881527 -0.7244977900823135 1.0331548679399434 -0.9190984177124558
P 2.862284451490084 4.773990660129552 10.335830550307737 0.21399163056224438 1.017752160231628 -1.5851501478427346
P 2.6381538262899227 6.285808601050356 0.9318501670335426 -0.384569412915228 -0.912300420954016 0.45520738694776436
P 0.7672633647088678 5.782128858800484 3.911488698203026 2.0097814617758547 0.24483021320965576 0.849053597179228
P 0.7354204443920364 7.350653878116018 8.026757624599165 0.44252850592851534 0.10958838715380481 -0.19248718083156527
P 8.689022507811483 9.416693819159518 2.6304223070188413 1.7207881808957395 -0.10295776921116462 -1.6238534779502034
P 8.25520455120534 5.779551685710124 1.5678028546258251 1.6572567360009973 -3.595678772197259 1.9144961215082834
P 4.5852359072776485 6.621286082323609 3.081699220751157 1.6881945632304343 -0.025164157970453436 -0.4538837830403344
P 7.938527454922199 4.74740313342756 10.645551133328263 -0.5334861653550103 -1.4524048629564923 -0.20105898166097635
Ni 2.4244338679260014 8.185352035968412 2.302098798673039 0.5042645494857316 -2.395010105541637 1.04128598168751
Ni 1.7604224400725899 2.4375329527342005 13.308428207512728 0.8781800822315392 -1.0847378822235576 0.8900647494842671
Ni 1.2038828382499287 1.3899862547570732 3.341434697347532 -0.07434627612205906 0.9302570054324367 -0.5550541213337732
Ni 3.4591225116717266 0.8809732474752431 10.339670352804237 0.5694517848163417 -0.5237864215687431 0.40568639739950135
Ni 6.156087798699947 4.6109890973676535 8.369462315013587 1.507039776692553 -0.1239207446160769 -0.06574542182692548
Ni 6.618996291844044 4.114391945912873 5.7208727917890645 0.12570997530601577 -0.7394598107087845 1.596212062083851
Ni 3.1652969681502348 4.195702683954425 0.585988903103769 3.0150989957885557 -0.8079977076791827 0.5371818690390426
Ni 8.615702860431409 3.5485448556631547 8.199561715511233 -1.0826519462288064 0.9900595794123658 -0.2561469237740557
Ni 2.8812887854297924 5.637491971909104 12.287911234641946 0.774955175401917 0.48842064047493944 -0.3605535096166049
Ni 1.2160270711577426 0.6823455113814907 11.745007474181195 0.7634651724844463 0.20421963877714505 -0.07350166873357664
Ni 4.622373156917878 7.271957394792025 13.096303686159063 0.11042888077722918 -0.09972409276521535 0.08166183594686581
Ni 2.0974109976542192 8.123879968478555 9.857334795170358 -0.5560347400794875 0.9792030963138361 -3.047237271083997
Ni 3.028808768835929 7.11457369855084 4.278086935103401 -2.4913711953718902 0.25649659380399054 1.931658749330499
Ni 5.967620428458838 0.412632295946429 11.339698799606655 -0.7474479711205837 0.6017615526926411 -0.5945740338052664
Ni 7.806451969244625 9.116703455116122 8.659468450933536 0.642142527612849 0.35247381793226396 -0.9389851293340538
Ni 6.426635350746996 2.414579425497753 7.212259683163662 0.7734554509279389 -0.40896455393014086 0.7280731661383977
Ni 4.927221214124401 6.999361082842208 6.135991410839215 -0.2254667210813794 -0.6993775979759181 -0.7187511174065234
Ni 5.203674015302959 2.7739838267214387 0.5436416848420189 -1.5426711527429173 -0.8058099559992444 -0.4317558407930435
Ni 7.324641116635617 9.230173234346381 4.107562437223417 -1.3631238199014717 -1.1930314618253388 1.2921158641240262
Ni 8.976952072608267 2.0322400378512193 1.3872922745410348 1.480424745208186 -0.037103589720516736 -0.6649230158424743
Ni 7.886548283995396 2.302212824676677 3.7634189796736575 -2.0242446883890364 -2.0836412851797985 -2.975429702223392
Ni 4.8903806175017674 0.42570171545286845 2.1867017018690893 -2.8909553365283953 -1.0571810556512116 -3.050020490256089
Ni 3.373158029416645 2.3482125832175713 2.303605239778016 -0.7064226777481576 -0.04249750704257842 -0.8122336001374012
Ni 7.2092338223841885 7.171762838099163 5.333812913000043 -1.1235839085564778 -0.6136428775112593 2.084130566111391
P 9.171074390997287 8.102140864532888 12.815306531567213 0.32491493447738884 0.30826164219142393 0.16193836151043078
P 1.6647518418980576 3.502943724614654 3.8960479086371826 0.7475101918170868 -0.9838292822319379 0.7974962939272265
P 5.391631513170076 4.920620684482903 13.290409317815845 -0.782289247169485 -0.18870560230194597 -1.1784201396700673
P 4.486524615672763 3.898697390900582 6.582383747228686 1.0009016643331923 -0.7546701999006358 1.4827194547796336
P 2.3758847475151463 0.5182583839833284 1.228639459608949 -0.0195259858480696 4.40260535829945 -0.9686212070329318
P 7.732427770947761 5.5074652461342986 7.043389952897453 0.8800742139304586 -0.4686897377049154 -0.4167817359817145
P 4.821445872538025 2.4323415249262808 11.716310929932236 0.21066770839533397 -0.6479881877603486 0.750499613462714
P 6.093188088562912 3.4635074140880593 3.3993441475042037 0.29849247861980205 1.088374193424564 -1.4422081249291483
Ni 4.269726882251289 5.758350265358849 7.9718879408321675 -1.297265783756082 -0.33809029551708225 0.27368518976813516
Ni 5.910403477690116 0.0450625204134286 6.925944096190735 2.495030646501348 -1.2703689593652379 -0.5484319880315652
Ni 1.9241007425308783 7.939658444551781 -0.1435568844991974 1.2113372021130622 1.1285721057996885 -0.34247068397296504
Ni 0.5662420095793921 3.8004588900424894 11.442152554436642 0.9515143721493161 1.3420893678286756 -2.0791950764829874
Ni 2.972157312881998 5.111007028931581 2.810851307523793 -0.8502411897294261 -0.2660320440982515 0.5616027210855682
Ni 1.8471100140580596 5.408651980054614 8.574111180323847 -0.4073617282193952 1.2148763256145725 0.49918996317630154
Ni 2.1340383749204572 2.0189184632798236 5.915427111134959 -0.44646743597160526 1.0966721717672983 -1.3799632600563139
Ni 8.69770887898295 8.640686606757026 6.289392540319181 -1.371454194144038 2.3417548457619217 0.9440296337364967
Ni 4.56754797110352 1.5578176994616983 6.005084923459103 -1.4322692685488816 2.347787939329879 0.08387195622430717
Ni 7.156170013861802 3.685821039555448 1.2678875808775067 1.96044919119963 -0.02499755048560211 0.733388407703724
Ni 8.4468702117924 6.408381919758076 9.37358920866222 0.16323445461403502 0.3157823760485013 -0.40055704659273594
Ni 5.498853038217231 5.106186417395655 1.864362241112595 -1.664363779359424 -0.1436778726383461 0.6622359559286143
Ni 7.213145934053728 7.811291121594151 12.221536048995643 -1.7563501371607493 -0.49497772486716685 -1.0778115874173695
Ni 6.2075014748119575 5.425922747922749 4.141129653205022 -0.963809130356269 2.8700345272153283 -1.6861243109649668
Ni 8.86585551751877 8.609361902180305 10.667056623022575 -0.466225592435139 -0.1415086329011692 -0.6855286079079678
Ni 8.350263302531081 5.326414201333076 12.750124447276054 0.7874335103745858 -0.14318782037580502 -1.473403062474714
Ni 0.6949467753445374 8.463899949083737 4.035908681945277 0.4860156305778726 -0.5045735960857182 0.5390469472722393
Ni 9.0333439571718 3.8933205549566643 2.793320968265262 1.7633229689341567 2.6401588784329757 -0.19545397676937304
Ni 4.324959965964842 3.0236173410280083 8.889693441563924 -0.6405972946129161 -0.11008126762982332 -0.6182446379493288
Ni 2.8329250731549345 1.0418083161680154 7.9206003422526345 0.19322920120391238 -0.2810033206961031 0.40730105018478885
Ni 4.949062292544866 8.431240305927838 4.119176402862279 2.08947023315675 -0.4371106773470536 0.8040765182479055
Ni 3.903545813656908 3.3019334939733382 4.443280022032786 0.07997596360401066 0.014278878516517343 -0.22534279390900547
Ni 5.425125492937962 1.6120773904612657 3.8512319810446303 0.5858479667861781 -0.4320378908098365 1.5172061757025934
Ni 8.32621586729225 6.9079641422024105 3.485108388972408 -0.9207914891441625 -1.3087956387725526 -0.24040971554445695
P 7.745647371044359 1.266708385132565 5.65793043778075 -0.21443077498219199 0.40578049977520436 2.7449884107455564
P 3.9395149920403556 8.815331800459544 6.163737738391189 -1.7362510524180292 -0.03485258890281095 0.32166326030931053
P 5.984538920868579 9.070017686472038 0.15039659063613245 -0.22978386039949455 -0.2259500884757012 -0.2422488256357247
P 6.632586708212636 7.788356135171302 9.982949734349111 -0.08909283830361431 -0.3703260156223364 0.5965126455888758
P 8.962592212475286 2.8456440712843394 12.951002111100133 -1.202348882571523 -1.4134701335645077 1.7341273212068071
P 3.2782476045997018 8.304152299108589 11.625702900911106 0.22933314601532115 0.3021578432865312 0.6841047309772476
P 6.078920932497931 1.0966335019823743 8.858255638024247 -0.9106508011657349 0.44314377091501095 1.29069173008299
P 0.9337617249156732 0.6749060099246048 9.410331538972777 0.13411671131247224 0.4664482499689064 0.9987812755560799
