# total energy = -340852.8373429985 ev
CRYSTAL
PRIMVEC
9.36632637624437 0.00000000000000 0.00000000000000
0.00000000000000 9.36632637624437 0.00000000000000
0.00000000000000 0.00000000000000 13.70856541440913
PRIMCOORD
 96 1
Ni 6.141022615854745 3.7298398137424824 7.244579129078212 -0.5090668559703813 -1.110729678301629 -0.2584614308398452
Ni 1.170556656711818 9.300415679284153 6.551776308916855 -0.2852045032616443 -0.10197997867892761 0.477668544164758
Ni 5.688170094987694 1.0339768834117842 2.6677414715900576 -0.8975674856192155 0.5042763765602735 -0.8263980645632413
Ni 4.051854119465645 8.981717053148715 1.0703781747952195 -0.30679302806569747 0.386814757305979 -0.5086058571735628
Ni 3.841636287073247 2.7213674374419305 7.919767635587942 0.6122933054619003 1.5941055572638094 2.1224081215353516
Ni 0.995827835499904 4.6983460747864685 9.338042086176273 2.4950352744870385 -2.137889505000402 -1.065711718830042
Ni 4.988009088713011 1.4791864818393325 6.490704113482377 0.5763672809892525 -0.10708181868186718 -0.1536748359500579
Ni 1.9635847904223698 4.76639243694699 12.031254346102095 0.11737034509206883 0.08029580883727461 0.516250261092698
Ni 6.72595907329271 8.957055515424193 4.198741535099837 0.6245289282961438 -0.05052269133990009 0.9657626545382141
Ni 4.116341277548949 7.147462499300674 10.227275506094063 -2.78578873259137 0.4293112359072928 -3.153920054555233
Ni 5.636458606276304 3.262216595954971 4.68822013918678 0.2601763566484229 -0.871843084269918 -0.547939878886495
Ni 7.578332251827637 5.4435122799849385 1.503774962217007 0.3364152218075045 0.2968719122972436 0.8819950851022552
Ni 2.7112705374544506 8.040148347173368 7.917477568754046 0.05195839534516214 1.3386271203116882 -0.88087305568267
Ni 7.778293956681732 3.1292522246912706 8.553418357251218 1.007741055852529 -2.243859578675329 -0.13559946650558583
Ni 2.296604529805356 2.1371147218398523 12.979530278497696 1.753010274154239 1.476636224700031 -2.420484595663657
Ni 6.908424480209318 5.252598446548195 4.142138950680226 -1.1985814451092907 0.1118051922994655 0.39001269541798633
Ni 7.07625031877673 1.7376127968250157 5.589776834905616 -0.0321902115792994 0.36604718574132444 -0.09492512871467522
Ni 6.440201817524589 7.987060008463685 8.084997128444288 0.20794799547132575 -0.3817334861283297 -0.5997468362554574
Ni 8.097095612408879 4.357758343576132 10.367431342859051 1.6819529531960968 -1.0843193066289003 0.5631122157515592
Ni 5.87914949271007 5.412341145329712 13.673197610596757 0.49171859449992084 -0.9556831588150252 0.8182924047369714
Ni 7.243523544079521 6.717847834527259 10.00005591780438 -2.9640086048706435 0.17747656635534598 -0.5036986496799325
Ni 9.170870017199887 5.314491132185736 13.482195733690736 1.2230850866776097 -1.293528685311153 1.0602728072026577
Ni 2.52818695298759 4.32897562218325 0.5278346478148922 2.1988305634601484 -0.1216561169516163 0.6094884890232536
Ni 7.5192026325132 7.453235594839894 5.799668719135154 0.03214650282555754 -2.081233189958938 -0.5024056419001219
P 4.017545265426555 1.3338398269175162 4.337513965437969 0.782829178833355 -2.541008398783043 -0.007609951136773991
P 2.4601124918475104 6.709436873313197 11.595705176846241 0.4196603430810902 0.8508402567660055 -0.2449181449377717
P 3.1115779665499206 7.499261723354252 5.509952317147453 -1.0762900085665206 -0.3526504527194443 -0.5105660662237271
P 0.31900771491056457 7.28580314198628 0.8868815353288709 -0.48769636071440514 -0.2529466716692031 0.491008970027406
P 9.288614107870215 8.757224939141363 4.658184203305655 -0.8327530602469916 -0.9364893594953936 2.186052952079506
P 7.301351244007817 2.1571305616109515 3.2980062662167158 1.034369714183651 0.856443461885396 1.8166599897944005
P 0.926088041504746 9.30269169662827 8.695658201666683 -0.37629508872157774 1.7674655303476206 -0.16876695439648998
P 6.748269663060964 2.8641008872649465 12.703262048125971 0.8002401752209508 -0.6273748823853712 0.19501020436373512
Ni 8.664573237215432 7.366344183723147 12.736806609921112 -0.7926579919983188 1.6829299723973854 -1.0589931691592858
Ni 4.781303628765237 8.650214658661806 5.983171915030066 0.997267667125031 -0.7809440459955002 -0.0035632918712261213
Ni 8.345883977406512 2.3849008898999533 1.4222092443589618 -0.8087749521648394 0.6729178611224926 -0.6849660505362783
Ni 4.655270339125595 4.934827086738139 5.931806043767228 -1.5984517500476472 0.07626354774942995 -0.08713442902566285
Ni 5.879243155975261 4.35637212725132 10.774192170926112 -0.2340737460241001 1.2682030620621707 0.14975570340130984
Ni 8.997639808231012 5.120898529364559 3.5233207436924356 1.3615539043111906 0.580335264498065 -1.0542574542465135
Ni 5.494202839105757 9.013543830660272 10.312885603743013 1.2286044738339421 0.4671707299572277 -1.0104646254312792
Ni 9.363947472062518 3.143910525693503 12.430173685607448 -0.761556642607824 0.9249145101736006 0.12070969387794694
Ni 2.545917409088054 4.690890478877345 7.202192755049138 0.5390456617206587 -0.5115752242145318 -0.8922715273275987
Ni 2.900086313750938 0.9747161355260817 9.269169614016775 -0.2866036976020161 -0.47450351617321507 0.881638730204101
Ni 3.416760983518444 4.331335936466037 9.955571486635048 -0.9765859704059633 1.474612509401783 -0.7035494699654207
Ni 9.291620698682813 6.327206454399394 10.204779463060735 2.4376847615920276 1.6479935655315165 1.4054624327686827
Ni 4.782184063458023 9.082789082615227 12.471202878923922 -2.0838351463581595 -0.9872766173505901 -0.49842351732392226
Ni 4.374861255799822 8.433655823216046 3.293291257447052 -0.8170035107222188 1.3646721382251983 0.28921722396546323
Ni 4.951452316309361 5.687589382743517 8.262591108938365 0.43307275983225413 -0.12000906826649654 0.06352347447494221
Ni 5.504309105419757 6.696211620268372 11.659080551971739 2.282394501525734 -0.2996983260024451 1.8832980986389243
Ni 8.156403191927176 0.02505586007097247 6.4224900940771645 0.4066706156896415 0.8103857482953849 1.779656673097174
Ni 4.2715132089891945 4.315703537505829 3.107594467881391 -0.6709944188475347 2.1164827571898517 -0.6798351570676162
Ni 9.049576088778858 0.4224925100883697 2.9177034373005224 0.6751467504530114 1.8694048855965997 -1.4579707870800438
Ni 6.706271054949776 0.9458584835210478 8.464339908892285 -0.40989169373010054 0.14719385621140454 -0.7692460408322817
Ni 1.7112840529801114 8.697168053501544 2.175124211486599 0.40117668245460586 0.022623908047102972 -0.7621536527618745
Ni 4.904957871469053 2.9105859657787354 0.2001490313844756 -1.364320154202418 0.7763458851018565 -0.4814912603449578
Ni 1.42506784721256 8.296485971345314 10.493454329539523 3.4838573819478778 0.058138813124261154 1.072829817932062
Ni 1.4713000349103358 2.6399646936653163 2.99713082281428 -1.3639524864503543 -1.2447970244334046 -0.48207027277687947
P 6.649735908081102 5.656268386863986 6.440955806809369 0.14780912119790027 -0.28397782994339477 0.24153354473625502
P 7.554644812061089 5.505404965622479 12.020328526217682 -0.312822522089229 1.2971002047124953 0.708630998253386
P 2.822289605684138 6.162818057664454 8.61364009023777 0.008219816806631006 -1.772848649036405 1.653337089231617
P 8.81550222274257 7.653684348672978 8.409327726715599 -1.4316547748933344 -0.8292787285451461 -0.12170933878705492
P 2.862040295430767 0.5056261510056952 11.759715173989814 0.3499294542438554 -0.6473914347166141 -0.6606007343180365
P 1.2132202740058555 7.0166617494628625 3.697008029395438 0.5107874382059139 -1.2187512351889462 -0.3816923484777491
P 5.687364590907061 2.6496588416124793 9.474003681926053 0.43244078267521013 0.08421468427570658 -2.964480916521372
P 4.501100604622882 9.19944667940935 8.203493335134091 1.6875240195259709 0.6390410058693897 0.03866759177352695
Ni 2.6288562304137844 1.9229162006768792 6.160930742870876 -1.7377764879236202 -0.7205452331924688 0.1074656843838472
Ni 9.202125448793785 1.7163325029738514 4.539577473962927 0.5046342741203245 2.310977712480065 2.7870616857665222
Ni 8.579367764872103 5.166475074206006 8.072645753663684 -1.5394171645819938 1.0751037015679032 -1.3398280825983249
Ni 2.3916352786671133 6.522625490891776 1.3469517474114618 -0.3960576160604857 -0.6907741725776232 1.9305976550558364
Ni 6.025563908855052 0.9308985868049036 0.07770679133221786 1.624948510786595 0.8300626578990221 1.4362861030177587
Ni 8.3059927927621 3.794870218763888 5.613396837121226 -4.125020833476908 -0.48930715684495085 1.5351409058041432
Ni 3.587340522082442 1.9317861118903703 2.277322073400694 -0.5814992028991791 0.13576144600474685 -0.9612033173023059
Ni 6.390728880851241 7.784353969939523 0.146041636349526 -0.0746550656117295 -0.2605507092687061 0.13249563076928147
Ni 4.838522517469798 6.524311429665196 4.26807951368733 0.004985111919417222 -0.633003027205426 0.24814565073613393
Ni 0.0717928927681223 1.7687745651537234 10.127312449687404 1.0676544443787095 -0.47987275090492837 -1.0825447312269807
Ni 8.615727844418855 7.634783101757639 2.697914155838359 -1.1921513732132307 -2.836109335222793 0.5525449817586742
Ni 0.7440993806079563 6.5190756531410745 6.947981286997003 0.7958764989356164 0.5501386863100268 -0.057487809803823585
Ni 0.8182329183731764 4.363556099691391 5.305311195564466 3.4374618254024734 0.21874791430030713 2.3632268995927688
Ni 8.265605192812178 0.01831397824259746 0.9797374231729167 -0.16294880505281614 -1.1786438256450993 -2.989569998279516
Ni 1.9347177720908169 0.08274587499943896 4.412279730243221 1.807187788637907 0.5636673169240808 -0.7345222641978512
Ni 5.982647400745002 3.564505418029124 2.1126273977885828 2.637279500002651 -0.5425719297063624 -0.38649799739650853
Ni 1.1625297148850364 1.465108893081278 0.8429056956895217 -1.1513675064276494 -2.0326524528367576 2.284556799284375
Ni 2.0948632229126507 4.611679455506176 3.6114391435831723 0.01122646484343873 3.1088139062452136 -1.8108061021167845
Ni 1.9118077374253468 7.889753242257812 13.307987680233277 -0.2571421978077894 2.236017199812775 -1.3069912385739622
Ni 4.022406388889915 6.9105506363291305 13.478495098083078 0.011434209978870631 -0.5399519755850121 -0.7499995338978438
Ni 8.731917124887028 8.608937257692581 10.712709730390102 -3.369145043303946 1.7542364332518563 -0.5262940184819452
Ni 4.362029388468795 2.653452203852674 11.04031666967776 -1.388363568304867 -3.015102852443298 2.531734429680285
Ni 9.117332094817291 0.9406133406704087 12.56157013381187 -0.6489870613385081 -1.7703749906849318 -0.11176328331793654
Ni 7.265009897114103 1.7719965814762586 10.710776520596582 -0.9314127163034346 -0.4028638403490417 1.4289517741398747
P 6.62412837137816 8.537809374107308 2.1382349344915244 -0.5090434589316136 -0.38019365244503556 -0.4375613917312271
P 3.296459885708429 3.30729672549091 4.7657695762334775 -0.14816676164763515 2.768523774863335 0.2028350997247926
P 0.723821283694325 3.589794499630419 1.0260145692379836 -1.081657186415705 0.013835363221195525 0.41326240997454633
P 4.588497797371656 6.536122367405652 1.8739883842069356 0.001674045268313246 -0.2735836311932643 0.8382590776668853
P 1.5281255379010987 3.130966262444247 10.849205206751465 0.6148806065731023 -1.0910311714314371 -1.1526962525414017
P 1.098042556801733 3.1301045604044995 7.362857100360124 -1.2906089405611965 0.14665263899595388 -0.04253915891379126
P 6.998837630097208 9.167910258019884 12.191712632229663 1.53792978140319 -0.03824824484792123 -1.0057381664898872
P 4.3927415731245905 4.535484389274125 12.424127721839435 -1.8972013389835776 -0.13153789484170247 -0.13959753192138538
