# total energy = -340860.3987975843 ev
CRYSTAL
PRIMVEC
9.36435353175851 0.00000000000000 0.00000000000000
0.00000000000000 9.36435353175851 0.00000000000000
0.00000000000000 0.00000000000000 13.70567795708827
PRIMCOORD
 96 1
Ni 8.688987189823969 0.7902802871047845 3.9514566852110256 0.2185208858911656 0.8255873957364878 -0.47222089078662544
Ni 4.828719644959676 4.405535134807669 3.6298800953839576 -0.7758820580915605 1.4929028230705386 -0.16037564500900123
Ni 2.74254764605184 4.86818103164686 2.7015533146563757 0.4336785117370531 -1.8638129933311192 0.42259320045716897
Ni 3.3171631206363266 5.724345165969575 7.507107421318293 0.34432599201414893 1.7157313351981227 -0.5487220084681582
Ni 0.6885328379090235 3.4352007996092646 -0.02270668496418731 -0.66098768534381 0.2907218335354477 0.7838136542338113
Ni 1.513935070174927 1.8705577538977678 6.203560350327587 -0.6385386123116745 2.7810249926541393 2.0916451293208818
Ni 9.021524755711157 2.0317838323489448 8.259247632049505 1.5313184467342595 0.06132158172761697 0.044382382770117114
Ni 1.1441273763772029 4.325713383473648 4.658134831374382 -0.04306366395869358 -1.4682325740173683 2.1237882897123295
Ni 4.60132504293668 7.7809726288076275 10.827307401874565 -0.6343274024438044 -0.8756035797536146 1.5579167660480782
Ni 3.671978484086119 8.024380275736908 1.5278814022093892 -0.5302676584177126 1.1999788396774496 0.8248831705806118
Ni 6.070292486421559 5.751220861221644 5.203072796065887 0.16458582643560685 0.8139109878398241 -1.6745803148811096
Ni 2.5378241444487952 4.008243062764361 12.173959529595166 0.7268701469692321 0.49190165704500444 -0.8338228962724027
Ni 6.089592419492819 0.8655106957969617 0.5117881524293699 -0.7273105769407604 -0.4675319699513884 -1.7356329592180562
Ni 2.1080564936130926 6.516326019714699 5.072348290637371 -0.8029876560591009 0.6258034241331932 0.20750396595537168
Ni 1.244354054524554 2.6328442419131672 2.4966125600464153 -1.2868384177751708 1.02961728710033 0.6900915446883018
Ni 3.024901640212256 1.1931404038856803 2.2189491706775537 0.6772008047685627 -1.2359030643778843 1.1628906765759004
Ni 6.246576445696891 7.68694515284037 6.438283495592488 0.45303686165900686 0.5165950460266264 1.161238228574142
Ni 5.79003610750033 3.1411600919733846 4.9929235879021965 0.35083679654947325 -2.150182206324826 2.000092516622865
Ni 3.8301986049847123 1.5919775942971377 5.819184531406642 0.9079264602560364 -0.8196347776974787 -0.8796278704216592
Ni 5.012204792265964 2.2682993149209008 2.581450795682364 0.5144309484957721 -0.14913606753943992 -0.13117871173007087
Ni 1.1302868615400745 6.121243935155535 12.137172602337943 0.03182588626134519 0.5443431626741722 0.7762975483624243
Ni 1.9470083378830967 1.7063069891865155 12.540408229704068 0.7162296365362504 -0.4304831447282069 -0.6864405781992758
Ni 5.732136308286551 8.828637797243518 9.013416161802178 0.7459114798713993 -1.0043304875090833 -1.2768522530967366
Ni 4.942496542978018 3.7977417548998087 0.3599011439694438 -1.5401522429758057 -1.0333968087474201 -0.05041393367617769
P 3.7429790141910626 5.5595325400335405 10.989513928162985 -0.29893188015006583 0.9141986664179933 -0.3489940869137796
P 8.280457893285021 1.6523214898387177 12.569697118916576 0.27354866419027085 0.04380079923503424 0.24412084584745697
P 4.421061233319143 2.426650536771943 8.019438706264951 0.9741997295619739 -1.4211890994753202 -0.058236257934073894
P 1.9279331493017502 8.045777824047354 10.721650334989697 -0.8561642400820804 0.33224360692831817 1.2463872517386598
P 3.989401983026674 1.7233875704198862 0.31641495804207126 -0.27907807864893225 -0.12002912287115457 -0.27194635270015743
P 2.902762374298409 4.380888155747234 0.61169550611397 -0.9166800380789503 -0.06394127873865117 -0.27254413418515644
P 7.474196400076691 1.3758295811235268 5.680359859987521 -0.603541013190567 -0.22250146780546842 0.7590788704912926
P 3.927456782994465 5.558493096767694 5.459122320552761 0.7565638173789229 -1.084462517074984 -0.4361125750998425
Ni 1.5082321787433903 0.8792931516408626 10.220090866157483 -0.813343031151496 -0.24118798847137815 -1.4467371231477535
Ni 2.2541029546414104 6.371899591884502 9.314242280162675 0.21983883337164076 0.5736120868416186 1.9331278776768581
Ni 3.2872252817091954 8.76857483231433 9.034741604588778 -1.3801447799395006 0.7101104110123899 -0.3144747129806713
Ni 6.965740084710277 8.75215912019695 4.448986672626179 -0.32100454367938913 -1.1742058444784036 1.7171801518295073
Ni 1.7018495568032455 6.18422857845359 1.0448165320262464 -0.04285437616136491 0.6458253757810748 -2.338343763197844
Ni 5.116579879122955 6.249910155630598 9.24090253449189 -0.914721885911315 -0.21303080931087184 -2.5052754641578083
Ni 7.507908073563606 7.842309145846322 1.2289384553872869 -2.622950742084805 -2.4193134581736917 -1.4777641676568873
Ni 6.271775921628361 9.462304886552586 2.5207210887664333 -0.7548620041964678 -1.1162963737561291 0.7506770195808427
Ni 7.704072555842473 9.368754992626393 7.812812367980645 0.9513346520383422 -0.5567137684243831 -0.9050275414416864
Ni 8.585520445280375 5.599537059238014 0.9384140625831673 -0.6333023036133997 0.11878753715456962 -1.0591209529864019
Ni 3.252680180738853 3.656667765710811 6.707586389936594 -0.045565861555257006 0.5216295231267404 -2.360756326565089
Ni 2.492706688098806 9.050095398991319 5.926952323625941 2.561289774739899 -1.525582829802063 0.26661131364048923
Ni 8.315190281330292 3.675883419598353 10.525576686942168 0.7552849506664994 -0.3173602620585824 1.3969731643507488
Ni 7.40267146616195 1.9828550840241843 2.0900469684880822 0.30124690143648764 -0.10651231933164237 0.16464110515357452
Ni 7.942919762497274 3.364003618075647 6.685053881952089 0.29931831695520705 -0.855609653130191 -0.5520104494114428
Ni 6.13416674332552 5.825330356770382 13.655227988161272 1.7151654353923236 0.39601647840990506 -0.8690277263083097
Ni 0.35028207980117704 9.262478941958891 6.044327006353637 -3.6356087756229774 -1.5091128571714978 -0.09950014967986735
Ni 4.29038167678861 9.480097158670679 12.417865360143754 -0.688994197859065 -0.9891586648646513 0.8259769178654225
Ni 0.9941104293604259 9.029100517891967 2.8622119132705226 2.3426560174199524 -0.2930391688147147 -0.8660419042071085
Ni 5.786590025321667 2.6901915442559097 10.022853228939281 0.5119858293893892 -0.6557727168017738 -1.0086381137455016
Ni 0.5751885730337636 4.840219071360213 8.950958731620045 -0.3283183037319829 -1.1262406294530345 0.3489439504021345
Ni 9.108613245552357 -0.0825982822198178 11.521609618126725 0.8507199291380574 0.08841303862777032 0.6995110382299888
Ni 3.833176469476056 4.016174670387533 9.194632326195721 0.3382620452082561 2.338214436708831 1.7611640136096247
Ni 4.7896890185448235 5.950082277379464 1.923071176836637 0.36560212778410583 0.6520924397367093 -0.51153151546079
P 2.301842430040382 6.925089425097304 2.938332872003979 0.1651257580994769 2.24136972237394 1.219282425102068
P 8.3808718585073 7.178207906861566 5.447801753308779 0.10532215567828312 1.5761651707353048 0.48682681362525837
P 7.156220404265101 3.7885085021058926 8.807775889967365 0.11762462719472 0.48845817858109425 -1.4883249738918691
P 4.445708212379577 0.12059976615794404 3.700436755121324 0.15652490380434333 1.277234833247136 0.14165749977420763
P 0.8052754267588397 4.267392188341283 6.972667833611838 0.21703093160920042 -0.5750940707037838 -1.7351907294743147
P 1.5392469183513529 1.0667216283097447 4.381924789706956 0.2744269530301661 -0.01395003442218888 -2.2795405770167068
P 7.608855806949427 7.302632075089527 9.013032223298579 -0.9474625706774457 0.3079914192491728 -0.8660637585839794
P 6.738654506360912 6.383998336924806 2.9534225916308725 -0.5729441142403164 -0.23249148913864476 -0.13877735001293517
Ni 7.712884412717804 7.648345286697851 12.258125404632125 -0.7387090485856891 -1.0858395999281687 0.7439489568283898
Ni 1.2924493753658877 0.8939783311859132 0.8678171361246916 -0.6870692129222102 -0.10932870573451493 -0.8501712557234391
Ni 3.6331164160387015 1.774713593303716 10.540735702786787 0.45217425654839544 0.2515122532155217 0.18934580698910616
Ni 7.892942206552921 3.093598539295594 4.1635246494573455 0.9930256040192253 -0.10059826784005256 -0.9416919867422555
Ni 5.493204822448033 1.9538817735329292 12.277587341023198 0.1508111412490177 0.6371533019283736 -1.0671278824512784
Ni 6.697020589604571 5.675069936556199 10.63135736329649 2.259826900637863 0.05965756376163273 0.937261718885044
Ni 3.7591325244035434 6.363312479499086 13.335378185165032 -0.7230127208963548 -0.6196574591364553 -1.548290555812224
Ni 8.417111907505737 0.3350687507048315 0.7120102091865367 1.4048903623152966 1.5659689469285936 -1.1243608959318185
Ni 4.354611779134932 7.397558529016434 4.041544577557186 0.1499721902874901 -0.5478833146169468 0.1162999948460255
Ni 2.261547615869771 2.5974376203981584 8.431047938751076 -2.3646746877828884 -1.3411635135802966 1.3871602920253852
Ni 8.725751642632199 7.6174335549810985 3.0261452263897732 -0.6153398055977081 -1.2717023334646809 1.8729128987498584
Ni 5.5759388877971725 0.8902307168166176 7.121155581661834 1.0409910761549104 -0.1938336675571307 -0.606498296046678
Ni 5.16763433574814 4.188553694150631 11.694904475686217 -0.6098109053596789 0.7392770052740171 -0.2127644430233626
Ni 6.467266170437489 4.152454110458391 2.011308672882516 1.5104012369656181 1.2131290039061624 0.3851260567496464
Ni 8.252421018168404 5.109837544425571 5.14428900185845 1.3424850606051977 0.5603367098889511 -0.33006691099197344
Ni 9.241474696505792 6.693265483752277 10.214828099352024 -0.09637651644922111 0.835904975612412 0.36058667684738543
Ni 0.5363265049863464 5.510613156062526 2.90136895846095 -1.919873069549481 -0.20558566588673624 0.7771020465415907
Ni 3.079439636431089 3.0407835841660917 4.181931223181201 -0.34413907281432343 -1.0263031351254326 -0.05925492900657538
Ni 5.772852518375749 4.4152740627038884 6.997173410930703 -1.89670974405914 -1.0480209864184982 1.6811744231588595
Ni 7.827335544205884 1.1109213779925904 9.922472038955116 -1.0511204512794285 -0.1863648699839113 1.7283215131583074
Ni 7.6592828518736065 5.579693993649466 7.476474747343181 0.31194346191838535 1.1870464478864977 1.240639293511289
Ni 2.2921222308516547 8.58426562187836 13.212041218407027 -1.20010430951172 -1.23168748363464 -0.9422167488974742
Ni 0.3155337723545382 6.91992030182931 7.274000563510013 0.2582053489649811 0.05608193059523245 0.05473030166334446
Ni 7.016270137525666 3.4679760377215443 12.92472879893791 2.5905376158614226 0.7388016082994954 0.4955863049854432
P 5.9899556956314886 0.21262701616497737 10.910487210462032 0.1295910555279768 0.9650381176673638 1.2865116305633713
P 1.1933651483755932 0.299376516400559 7.992781200455172 0.4258690429949633 0.6968656301873418 0.19471452750018722
P 8.218559515021544 5.386020429467131 12.371417229126406 0.1425206191054513 0.4157625506885807 -0.8006872900606985
P 1.2668378678695775 3.162651283821294 10.49726075408391 0.05602048122967771 -0.5987896145485107 0.06462622062081774
P 4.389793656160028 7.67785236535265 7.519826086576606 -0.5422860230348274 0.059737010849316485 -0.109360844524031
P 5.288546871321212 7.876348571714361 13.758856736024677 0.9580588581360532 0.5422554269072081 -0.05348768750549498
P 0.36699932410918895 7.780073650847976 0.47528683796141147 -0.8638832059928927 1.1537038678703098 -0.5403337844044629
P 8.62701389673052 3.6136198315387684 1.827227016242585 1.7028418808299643 0.6039680734256566 0.5208165403071418
