# total energy = -340858.3747857362 ev
CRYSTAL
PRIMVEC
9.40001752336245 0.00000000000000 0.00000000000000
0.00000000000000 9.40001752336245 0.00000000000000
0.00000000000000 0.00000000000000 13.75787581377299
PRIMCOORD
 96 1
Ni 2.2146159569494692 3.725997793891877 2.693888076568194 -1.041126059070878 0.17361194119361714 -1.345121212676464
Ni 0.40680456359334877 0.06561588316442941 7.9893090563491125 -0.9081766285936294 -0.8174143730073922 2.998094490810759
Ni 0.4338860144266421 1.1503459592592655 11.033417350298892 0.3937225401694058 0.6661648586693752 -1.272495004569305
Ni 8.094505593808492 6.300700226742412 9.783872064837325 0.35079771578142166 -0.8106834820414619 1.55029447361613
Ni 5.462350253115857 1.4445665115265627 4.361205866210505 -0.2898718268303266 -0.2701051857263606 0.34536394636036005
Ni 1.2066332649134692 0.9181523634197956 6.173214367444816 2.909873256478821 0.7838792173644241 -2.356291091704884
Ni 0.9608134034967892 7.4071951036909125 0.1536009883170533 0.2982556800186476 0.41758700549182926 0.7878047776710756
Ni 3.422292623821458 5.178798720874866 8.770370622442343 -0.48071170186645595 0.8287218276004115 0.7786177118551687
Ni 7.365167624803146 8.893638693822933 8.12837291737922 1.080673482346197 -1.2396445336981876 0.5621609075818835
Ni 6.9375608221629115 3.6001879577402636 3.7590228758816755 0.06900892306954566 -1.0058420390576033 -0.5257422597435332
Ni 6.147094538416536 8.397693762908473 2.1641547822312166 -0.004603045989650137 -1.397876907111941 -1.7864688109230007
Ni 1.2926058262884437 3.285230966549591 12.574037942123965 -1.3220023672708134 0.3314573635815969 0.05780302705139721
Ni 1.6533503034246115 7.783177009428527 6.341541423403464 0.45464997178239763 1.038045106152709 -0.5279156132457682
Ni 3.8016491358933853 6.695491567786315 6.126478419719008 0.43301850955555105 -0.31146317984785715 0.08103602943740883
Ni 6.070493794632951 6.398310009961057 13.171034002716658 0.5228752226083834 0.009774819998576713 -0.27935215824592535
Ni 2.638754153078949 2.08701071742779 0.6809588981953104 0.8266443762460925 -0.11807816979237085 -0.7376186437349876
Ni 7.389419670325498 1.4860863894615357 10.862173468865208 -0.9142773421747286 0.004920063009436688 -1.997010535263432
Ni 5.078256132151192 8.462525684601365 13.687283911744618 -2.577739692765806 -1.2852137376875543 0.3146955707422258
Ni 0.13932800152591385 7.037868410445478 2.8087938922523934 -0.26316809228689514 -1.9379895766445334 -3.1299506882238286
Ni 5.3128053724123285 4.854394711951649 5.137699963730359 -1.0835639165201147 -0.2871698545181312 -0.5471598061873609
Ni 8.673556080716407 6.120633488747768 7.540265513471001 -0.036459014157982375 1.3453323002460056 -0.5893343826728819
Ni 4.938007868897898 8.771222264040919 7.008867476009214 -0.13196546929742434 -0.03198246644386749 -1.075296791415316
Ni 0.1931609625731849 2.218751964712971 0.9779524556676826 -0.4684243998586706 -0.13351661583462812 1.3337026864268773
Ni 4.367492598011028 3.0530881308053996 8.665246465118827 0.4014993559013473 -0.0744573477786266 0.22488410910503207
P 2.0306858117030093 7.106761139760717 4.224631129852613 0.8871923130324786 -1.1319937298867278 -0.33595782255511175
P 8.30335518583005 9.003064299220492 1.9670326522227144 0.08614275453635487 -0.20606440529536768 0.6374862597877602
P 9.382110610710155 4.727757674247335 11.084706666571607 0.5115507987344997 -1.7120335746315614 -1.2472981935887035
P 3.7420154239578025 2.096814935830819 2.543171013664419 -0.007887373167876738 -2.7471157415012044 0.8127622189473616
P 4.215860913390459 4.09132007962083 3.402914487447687 2.3043481229786895 1.9658549355962336 -0.4222345315661696
P 6.50963441892277 2.618450114967212 6.217857871242996 0.4261639485275628 -0.36210259927127963 -2.295115805747144
P 7.295720294446891 2.5345079574034113 0.4857477917738987 -2.003035401301273 0.4173720612675458 3.4172143880073467
P 8.774051669351861 8.912936930046726 12.191720424494076 2.070701951410311 -0.25269521778002935 -1.8716330035961704
Ni 8.625982591418492 3.918820355829866 8.5570409820115 0.11066696492996425 2.131475631054258 0.2031346332430824
Ni 2.786259229953659 6.916326182304387 1.980886398226917 -0.7715016696356778 -0.06563666416320309 -0.17832065952319612
Ni 2.829593311293986 9.248310759560868 4.644672798292697 1.3801388664022296 -0.1537663672225997 1.1065503501129588
Ni 1.70784220570875 7.211505536371404 8.409377984840365 -0.7893209572052858 -1.272344337924054 2.45774785089049
Ni 1.0570037840511424 0.5801963490587587 13.274987857843454 1.045021537470542 -0.5778245822610694 -0.41225325198374163
Ni 5.578534471199684 0.3645251642327146 9.093488708951817 -2.153217907827356 -0.8212933963468243 1.733119448767583
Ni 7.3884232684552 6.0418049407824785 3.143495620504966 -0.3353363869210289 0.7657020322347652 1.7541922102774823
Ni 0.8774079869404793 3.0749619718637384 5.423795140745904 0.08839375535406066 -0.5209821193507286 -0.8133898252290314
Ni 7.038056410798363 4.60807664959982 1.4893453755788222 1.2063788296665223 -1.0274835285867787 -0.747508392044874
Ni 4.02062254691788 7.56889420720855 9.057236600904723 0.6458127773755845 -0.047718132011569436 1.0348242852225662
Ni 9.26958299948997 6.917153383857087 5.185425733314114 -1.8508878006290188 -1.527296212948744 1.0953092299815008
Ni 0.3197049401028201 4.54514353147108 1.3263669296597926 -1.9691387485538283 0.3681115244695209 0.6588171600550524
Ni 7.236622383517035 4.085849269351834 12.876271069431283 1.3059198598866542 1.1867481999197884 -0.840447857788088
Ni 3.3228122370915925 2.754411970174694 4.783613519091665 0.3292804105349361 -1.9677950900417398 1.7262160367795303
Ni 5.646280398362316 0.15242410610798407 11.625639141930032 -0.4777752449459513 -0.7805717502577459 0.04953924438070823
Ni 7.264427635708941 8.767725457477232 13.523607044514614 0.22157921310151518 0.007463655366896824 1.6828615810532952
Ni 4.888620176194628 5.77778664520639 11.053036127124358 1.164359290701627 1.630673329085514 -0.8266703443880214
Ni 8.256082497096752 1.643743485392114 12.819754403346558 1.7979009640193422 -0.6516651223913035 -0.7420229434502704
Ni 4.1531815957381175 4.8843431681664615 0.11134978900935211 -0.9845651319566978 1.916209504654964 -0.3746153870263097
Ni 3.1592895301509567 6.92703280240127 12.645812716848955 0.4794896565338968 -0.2158165995861251 1.3271353176220047
Ni 1.5799737656930297 3.4778373280817605 9.991932995378525 -1.2592589654950055 -0.26206611747196806 -0.11102254849717008
Ni 2.600251680807803 4.901836601002546 4.67725137944439 2.048231281111621 2.433540143296035 1.836836464742275
Ni 2.9196172802736635 1.815810808371439 11.6817027271643 -0.4819077790570862 -0.1929936881543386 -0.28192249007626285
Ni 6.973722690040621 0.29705841759411805 6.06191251852545 0.2131220834730975 1.0675685695331227 -0.9312155126909639
P 8.107975819092806 5.975422016178272 0.20714818882793692 0.6656928041289633 0.17203996872080696 0.0691171665126358
P 1.935050032189671 5.460188249057663 0.508312534129095 2.0053604498900235 0.6227407260474694 -1.0348852203674888
P 0.5592803697983766 4.63797810572641 6.8011374260890936 -0.19556453420530837 -0.3300784809561993 0.15449527496882423
P 5.135925240399111 8.407479181276212 4.364438532278387 1.1985374792452326 4.687031588634173 3.992674583801298
P 3.490912752625013 4.48027400970761 6.793639032014217 0.9522329954828956 -0.09267489922791781 -0.7408674896895885
P 4.225289131087716 3.1527941179587295 12.658498040659966 -0.836222763963147 -0.7274296190171279 2.020875257696171
P 3.061388346385337 9.158211590440036 0.546272625382163 -0.9821837762087148 -0.4321669601885331 -0.6230315178150109
P 3.4442134649680183 1.1311605232472033 6.562562158270892 0.2202718071440013 0.22280408664755175 -0.3034225689315677
Ni 1.6152896319827494 8.260312505036698 11.371929845704472 0.39558196197564777 0.5649235579286851 -0.13058581534107833
Ni 7.281375867521654 8.390220748881235 4.108583212024628 1.303184206123046 0.08531974441442725 0.592433847533812
Ni 5.725926747862663 3.4829415376626276 11.33805782212492 0.43452749000090973 -0.7375960180271683 -2.061552937921191
Ni 6.5639947209598875 2.194640919455284 8.246883639830019 0.9254814384206642 0.6285869004156013 0.9087525557017574
Ni 9.069071223118925 8.407723581734965 10.037127340210665 -0.47572350462324525 -0.12302111561994297 -0.06508490542479115
Ni 6.1764601935374 6.402887818553842 8.541645633113628 -0.5354707998852068 0.9197208817878032 -0.23623295845894798
Ni 1.601029805216312 1.4964264088702903 3.4144708691396173 -0.3106517396901553 0.793494371856685 0.28954606805979166
Ni 4.75101331789939 6.8260672128836015 3.4244593278884747 -1.1134378212614116 -5.1640804969370615 -0.8916346650745482
Ni 0.5822793929687407 8.6801924931733 4.0417472065699656 0.23132806495816288 4.0345354857011415 1.2927879504903863
Ni 7.022790782143984 6.569540731370037 5.786686581912035 -1.5879541929504328 1.3213737325478792 0.13669604200387428
Ni 8.748549421482814 1.9905195363088186 6.921491491999942 -1.5514219023523539 0.5769316381331548 0.2991098004888268
Ni 2.7881392334825232 9.215034697099966 8.1220993456034 -0.052773177936973635 1.576053070637473 0.1476096035925845
Ni 1.0516363739762342 9.322683699162749 1.8658565023098126 0.29333304590604964 -0.5639141428275644 -1.2694937558491362
Ni 3.9066849330510456 8.976499849357635 2.5923143059089377 -0.2889775971508313 1.7482082247799053 -0.7084145113672058
Ni 0.5306215960043659 4.983353554014111 4.21138180498294 -2.4531085523462655 0.29813380972880266 -1.9660683371586203
Ni 8.394995957844552 1.2532385523940206 3.8192553689412017 1.0207148424043775 0.17297919270562467 0.8848037581956439
Ni 5.267158886731499 1.2550903558699522 0.41153089246491414 -0.34398326396274953 0.2645176643362541 -1.0383765213501988
Ni 9.247239157549416 6.437564483643748 12.184910111710764 -0.8203544294723226 1.23941724817873 -0.795927663888526
Ni 5.15584387778743 3.3191838302808834 1.4344238924883388 -0.0779260230535174 -0.42310099333152296 1.191420151474161
Ni 3.0479651211892445 4.532566307862976 11.330656248231781 -0.38186255550702625 -0.7815917068818281 0.7688642320128307
Ni 7.91579245835463 4.473346196703744 5.6885513377070716 2.110714487247507 -0.9913644142667185 -0.9923231786355621
Ni 6.362025941853973 4.652341332686936 7.157149934343109 -1.220366402194866 -1.3160860017863787 2.166115846835947
Ni 6.7373498463564845 1.233460915270366 2.253389149728771 0.10958838715380481 1.1437357009140046 -0.6045697115653974
Ni 2.224072374699658 2.7722532036636185 7.723506637424132 -0.5494827978935827 0.10134414486714158 -1.2323497998089874
P 9.222883711832976 3.155538923110872 3.1116192206713036 0.06446886910734703 0.12326202798615546 0.4517597947187961
P 8.633681205869191 2.014564781442996 9.187454105329758 1.2003328805827584 -2.8322889330354384 0.6162633458532419
P 5.580668275204945 6.222398079765204 1.531100253954903 -0.3586719763231758 0.44308155021850787 -0.49362583882496275
P 5.945746160475147 7.656671571971233 10.316082263823583 0.5972739492349327 0.481383788232816 0.2892912717365082
P 3.6404670333461855 0.049177132308038066 10.784813203655963 -0.2730519270595104 -0.9594151150536315 -1.1720738857370654
P 6.52483424745364 4.2958174634730675 9.479644253785883 -0.5773777245316379 0.403242306734383 -0.6169266904688536
P 2.665506603294691 6.522907243836554 10.58951937707928 0.2532153519495574 -0.13906762755984434 -1.2911887243240665
P 9.078085840039831 8.89844210283918 6.060316395529444 -2.4527642816329696 -0.28250150250818445 0.029202075485252936
