# total energy = -381172.53454117256 ev
CRYSTAL
PRIMVEC
9.23744896655386 0.00000000000000 0.00000000000000
0.00000000000000 9.23744896655386 0.00000000000000
0.00000000000000 0.00000000000000 13.51994029819777
PRIMCOORD
 96 1
Ni 4.250649159669955 4.686961593678333 2.5135459300102085 -0.08668782840654748 0.7055207347591784 0.9572070516587192
Ni 5.296208312552605 5.12122331398337 4.623576065346898 0.5846480329408059 -0.7296412819564659 -0.3617603854405124
Ni 8.907672180769346 4.486444285757602 2.156011385792165 0.650498355776712 0.30598287345957625 -0.13852692456502594
Ni 2.5152650192903505 4.871608964020963 7.0662107172323765 0.3780814911980392 -0.41336473988036554 -1.205544249580369
Ni 7.827389456666627 4.229486163749451 8.762286740396563 0.3168866648562736 0.5132860362580515 -0.3344293017257272
Ni -0.04889289441625435 6.117168127673952 4.396320037220365 -0.8324748668849405 -0.5867578801949572 0.5568729197100667
Ni 1.9287516626859869 8.90465153490902 7.110894106087316 0.06581638427417696 0.6557020114648385 -0.6239632856006609
Ni 7.930608713068075 8.745305537690031 9.954718562959373 0.3538580998743003 -0.018789879012993446 -0.7844656859955135
Ni 3.851369659160182 3.5998801070276034 5.636936241852375 0.08639729374932216 0.30573810443862187 1.6429066379269124
Ni 6.3538130990801 7.441190184102482 6.94488236558756 -0.4785506896593952 1.4929951256740288 -0.0633326986203748
Ni 1.2852617199455811 2.1001617684480482 7.208534866968733 -0.38058574567713166 0.3942483307658888 -0.2396484118984002
Ni 4.878361539323403 5.075026830963535 0.4025828123129911 -0.5672576053785005 -0.24829117517506272 -1.86261485925796
Ni 4.411417724052522 9.20908090791476 1.7532392057723336 0.1829602151777365 -1.3874526264548235 -0.5095934178978127
Ni 6.914775671434741 7.3720848272795685 4.224494246248167 0.010706330673910594 -0.7385221293858636 -0.2517323396461278
Ni 9.008000115598067 5.915172827894958 10.243369449133244 -0.3621977300882472 -0.814036714784411 1.655426624770794
Ni 8.381119106364894 6.799021196585399 2.0880736425372795 1.328797021595144 1.6520034580218583 -0.5165012007612395
Ni 4.407879781041805 7.046612545191809 3.476558313863954 -0.09064707016461163 -0.8207002428475157 -0.5710479256588682
Ni 7.077613424418876 0.2063452145668439 5.05276642608827 -0.25139243980820575 0.6530625169594624 0.8722297781853752
Ni 2.287377149644411 6.31387036911054 10.788033466270887 -1.7781014127949122 -1.2016444003053304 0.7498149286908635
Ni 5.606808301566593 7.9376845990895095 12.63235669154342 1.2255906267082828 -0.012769126740210267 0.07284012389017777
Ni 0.24997738171259307 8.51170892449155 4.9317900212547015 0.7059634787235519 -0.6285370210142723 -0.084549441907306
Ni 0.23551985010404583 7.915468533969993 11.657812276215576 -0.27307738098080714 -1.6499810282751906 0.9029686020301287
Ni 0.9976814541240407 6.8609952426921925 6.795798250589474 -0.08913577572640778 -1.607597163992341 1.1331728377964936
Ni 3.529324470693769 2.579197404609343 10.8863374759987 -1.9427597443396671 -0.9875463260722089 -1.0715316679459288
P -0.08780749629941002 6.4579376254947345 13.321791858687755 1.1347643506533296 0.3392285228865835 0.5849894754406247
Ni 5.47281910216593 3.0423446282943103 9.664323646392754 0.5381432045110474 0.003599544425800252 -0.8691488252672065
P 3.3673365630281347 7.291774444681199 1.5411787814385687 -0.5176224588498763 -0.818673442225474 0.778092435479318
Ni 7.836885554355967 2.3857652201591617 10.207906881984043 -0.1962952417237458 -0.2911992873924985 0.1580783643343923
P 1.4081105557145859 1.3859129654932971 12.949250154638873 1.1288713822076621 0.11400862770868753 0.5467006071627553
P 4.80243894505425 4.560722614084437 7.595191393264027 -0.8495040544530853 -0.473417739308204 -1.3097914270269184
P 4.2703064513848545 0.489819434257147 10.576703724162051 1.2064402790320772 -0.5843377007892389 -0.22507925583497365
Ni 0.14461503711666324 0.9303035002854722 11.284417955613456 -0.2980286516095061 0.6030859279310194 0.3662860412250079
Ni 3.9669670973745834 0.8980324718052091 12.831464364729332 -0.18401205348101857 -1.1337942734305764 1.1480219869941841
Ni 7.98480482702076 4.247914874732168 11.919963692115699 -0.120031951084632 0.32430249770437053 -2.1314018403935293
Ni 5.62449801662018 7.917214411852566 9.514076536551197 1.33893513847041 0.9244565967005756 -0.5978601607557058
Ni 3.3864118954488425 4.433384378045957 9.364275595501853 0.22324734483255745 -0.5233336503020406 0.6681363805734493
Ni 7.990005510872023 6.765064333641805 8.457628278652793 -0.20173466757176223 -0.28687417765458334 0.6386784803236485
Ni 2.6765693557215386 5.382966434632649 4.621764601575613 1.7071034843197954 0.7217677927456602 1.3987521106280427
Ni 7.5835208000532175 1.410161269417926 2.8965665963341762 -1.305037714392017 0.5811191938519411 0.346667495663132
Ni 6.496393126156917 0.6575752051496531 11.565903352509485 0.11618686630692893 -0.7230641429595805 -0.7676671263809359
Ni 8.062491774070715 1.9794744957717532 7.632371202203546 0.1390102919593477 0.8834130484957045 -0.8177352466819208
Ni 5.718877034219392 5.413634765691608 9.2767073491345 0.6662206516079752 1.2043517719341645 -0.31040028580098156
Ni 6.185746949897359 1.0755623876053912 0.7039019362019983 1.4012771910427415 -0.4264172021889495 -0.7742509502460407
Ni 3.2864626960338015 6.553341999945617 8.498580661810529 0.08125457320611812 1.5830552129869189 0.05206149658192969
Ni 1.2073992613624587 2.4325898497187595 9.75382621460461 -0.051013257823073435 -0.8962220273349145 -1.7055759919316755
Ni 5.3206967901542015 2.515588330009346 12.230165547072867 0.9712041372687596 1.5484972725063912 1.3232665786952178
Ni 3.590273159948893 1.2813265666229554 5.715013932999857 -0.8670394922336874 0.5689776733934008 -0.09991152618567309
Ni 7.285031106827873 5.522572003094711 0.26014688944235453 0.3548135218090341 1.035151329544682 -0.431550923871089
Ni 6.268412882019836 1.0449679561393455 8.72678352847126 -0.7044596404845158 -1.023125251618083 0.5546172909066706
Ni 5.3020094305962875 1.0647822844891848 3.5500117379848954 -0.6273561133322938 -0.11287245722171527 -0.5554739824800111
Ni 8.84355504646807 1.4704818121332883 0.7697538634469101 -0.22696670266567362 0.09960633624042846 -1.67943172943614
Ni 8.491635947566515 8.78114684025291 7.084624648296512 0.05767704299649421 0.47055610148969285 0.4181287369279121
Ni 1.1190338231365544 7.694453326464976 9.442528798182504 -0.5471595490770448 1.1501719434576514 -1.6518340223235295
Ni 3.491062956462984 2.2479147670287865 7.923387799095549 1.2337284253240688 0.9123585278854609 0.18562773470757066
Ni 3.2431852469340354 2.6972335293898793 3.600819555602512 0.3331794884790262 -0.6521333202769737 -0.4030918971994477
Ni 7.917861033290556 3.847877903395035 4.52804421409824 -0.9395482009263755 -0.5620176971357999 -2.355921881290923
P 3.614826299694289 4.716724654724105 11.737742075910443 -0.5067176390119144 1.1179858456434102 -0.0060287226925831655
Ni 1.7181008730870402 6.207113169698374 2.8765157892870143 -0.27536463435308706 0.18073723938448874 -2.9438534700790076
P 1.7054178554533201 1.2794328895545557 4.117511653077616 -0.36665987962465885 -0.41795878700895117 0.168401086416639
Ni 5.763032040985002 4.614586179869012 11.438491216878093 -0.22600896673809465 1.59905724484213 0.7017414702224044
P 7.4173298530406475 2.358302283942811 12.623040724111805 0.9524132298145018 -0.8185718836506031 0.5644533031604859
P 8.207057852707072 6.534894814064671 6.384926675186361 0.15551574581353864 0.32550808797669745 -1.9693655198526534
P 2.5606208944407993 7.400859481270128 5.466733470689532 0.3902955167657278 1.046086745510263 -1.1357503687156827
Ni 2.5750036027115217 0.47085125624616314 9.176051484862226 -0.32091892594411825 0.5362429021645411 0.7885167161364356
Ni 1.3722230659061352 3.985109447434763 11.232204198240668 0.5999846632978764 1.4805484152702437 0.18528089289111316
Ni 4.526553289811217 8.589488246032646 5.125247146817491 0.6553230308588649 -0.11749272960254604 0.6447943634133991
Ni 0.42613923129897047 4.107283949418435 -0.24789341319244212 0.5550170974482506 -0.16650746893835194 2.815715344947473
Ni 6.875996860053564 4.922073148531533 6.40071809444699 -1.4696045146642303 -0.6628003130725165 1.1504164553682896
Ni 7.7608243983501035 8.499524729109995 0.2534977735699935 0.46451786571541287 -0.6642676416466624 -0.015046095699845056
Ni 5.834539134577593 7.0132838287879755 1.3495331196470626 -0.7322008151535261 0.6603243407281981 0.41334931326139784
Ni 1.147051006299754 4.601903162235292 8.737004765916062 -1.8338881807472287 0.15697356130598772 0.6864596043626693
Ni 2.24533751872594 8.474722178238517 3.250626012195479 1.1036419182169122 0.48054046639591436 0.7179682164939118
Ni 0.0965950816416955 9.044349477862225 2.6366183120477755 -0.7599784994874267 0.3468986378373316 -0.44445374797568615
Ni 3.135855325676793 3.2933815454202953 13.217526923046586 -1.317140411192822 -0.96123159943708 0.4577604923869213
Ni 4.264357534155345 8.825218709976493 7.8251789350936125 0.2956200421680135 0.25235454661115897 -0.9619970168481948
Ni 9.108734498187811 4.136317251984191 6.289097378076229 1.8592168893200045 0.18378245396871576 2.2745058428062763
Ni 1.0744908435081506 8.500420761674066 0.4528271455346448 0.16145679388832193 -0.5717845467145766 -0.18220611062053135
Ni 5.946450830595451 2.480338224189771 5.19941739698969 0.6734811898251304 0.6283470164906533 1.3913434768687973
Ni 2.495718576964822 1.0958847756565087 1.36931326943518 -1.4009529749341034 1.284091194047337 0.21275235883850457
Ni 2.163059559466257 3.9275970892501006 1.8625745772322573 -0.9271986782220869 -0.17817410664300282 -0.27864227666309427
Ni 9.051720962255313 1.5814605257906178 5.182896219249043 0.2782059604566241 1.021731199484034 0.11046256222864202
Ni 3.343531656660985 7.586984843471021 12.990702283793683 -0.18081051582458538 0.5427045986294847 0.2600691416465973
Ni 0.3339310142415821 2.387963733048328 2.719860660994976 1.235786336294362 -0.8846070688038055 0.18644123174780147
Ni 2.2709160153230057 5.627472475234934 0.057512358184662396 -0.4342919769513359 0.09250134976453102 0.18537062439144206
Ni 6.8454116660366315 5.3991966327262 2.8769758142528987 -0.8477343641471723 -1.0166422149969008 -0.12873873483001055
Ni 4.441153072750953 6.519532936187849 6.2051659154251135 -1.0494078394636959 -1.0565359658680449 0.8246903378435153
Ni 4.2888367743078275 7.012701869493784 10.958046869726891 0.6856913587380772 -0.888939120520256 0.22448533100471663
Ni 1.1342756141748924 3.919246435250914 4.172091121168537 -0.6839257821972221 -0.5739483871351148 0.5695592569284836
P 6.710581858766582 8.69949702753299 2.343357015021037 0.39382641273712177 0.4183189985618473 0.46536170177294695
Ni 2.373303901304181 9.0767913991511 11.523545953341488 -0.9558045148842378 -0.3831355086821788 -0.48409501651639203
P 6.817994917065851 6.677650352674657 11.108780793136763 0.10453411255934901 0.171130312422344 -0.45421468401719195
Ni 6.717583845195103 3.5482335290304228 1.1062260999397933 0.6788537669909535 -1.438378466770413 0.05548877709592379
P 5.942515677272826 3.3904671356099523 3.2511534705398963 -0.04240160489466246 -0.4923359163689457 -0.8668859973749587
P 0.2196674636792628 0.7338571361893453 8.684695862817396 0.4592759005901832 -0.4660363592424683 0.733150580661305
P 5.66497651863836 0.8301455345204513 6.64599730954013 0.0777244485656726 -0.4348403932556382 0.036323259911066476
Ni 4.6219207144656425 2.5219714073472193 1.4180657546248994 -1.2029554058072702 0.2751897993381196 0.6402396541631812
