# total energy = -340890.0399372087 ev
CRYSTAL
PRIMVEC
9.11943256759041 0.00000000000000 0.00000000000000

0.00000000000000 9.11943256759041 0.00000000000000

0.00000000000000 0.00000000000000 13.34721136904187

PRIMCOORD
 96 1
Ni 6.291496510942772 2.436830927929484 11.213499566765297 -0.03919672480411959 0.04227022152312075 0.85876696781225
Ni 4.789015283001206 0.28175398782734873 6.463053099815301 0.6626804996652006 1.7058284742621137 -0.9702741692553224
Ni 3.2952248742724635 1.9532183007780042 4.798322575853891 -1.1991252334279026 -0.43753413803771746 1.2315417020853952
Ni 3.8432389340377684 4.784820344031741 4.979617806738358 -0.6228391992985467 -1.084460460192455 0.28946482119989503
Ni 4.116548327330935 2.827644209530372 2.8472938508292973 -0.7306010747665741 1.3424765759647652 -2.1066750270708106
Ni 5.400801534534916 5.214354736207295 2.464295922917173 -0.6078684369213273 -1.0554201070960467 0.7535324867517668
Ni 5.301718899962669 3.400362812052807 0.2512203037891714 1.978382635749599 -0.8984923114263299 0.10970922900238525
Ni 5.672815968407073 8.252548404274625 12.40144153494664 -0.20395841469595843 -0.11956375319896181 -0.28309157068369956
Ni 2.3455636470460006 5.622814119777562 11.461931148083027 -0.09323642815834265 0.41092090632556333 0.47320922284182376
Ni 0.5723018444552513 0.5426563931466954 0.33980373567545175 0.5834650683762984 -0.29787130009603535 1.0897461340714263
Ni 8.496347313860861 9.090460105127566 6.989146779578645 -1.1456730271460336 -0.37821518856242603 -0.2347427470666667
Ni 8.786500299059682 2.8565892884196784 1.4998657746884319 0.36980151057743404 0.16661828348460336 -0.2531685578720221
Ni 0.8386996198245968 0.011492308889824731 4.863443531695305 -0.10443358242574272 0.8258509338105197 -0.02487722285765393
Ni 1.9476919246573614 7.12308844504389 0.43804647051055157 1.2302312108040876 0.31530749329461183 0.12785736066632175
Ni 7.692432857525668 4.033898910199937 3.9110665374577414 0.4783606851357761 0.7641768538394904 -0.5804062269453166
Ni 7.781994804523739 4.3962595622688045 12.718397444330577 0.7642107924012194 -1.6239167270879709 -0.07931956096693436
Ni 8.314341679181348 7.426501085159235 9.016694839179292 0.07094264975714878 0.3481571928347811 0.11543224752909152
Ni 7.145348979879679 1.1282561941351497 0.15459535628707807 -1.750638688598269 0.15693139521414265 1.6915022874474288
Ni 1.867185574173809 6.871328270848213 9.416444252728393 0.6365375227212458 0.15948270088108663 -0.4440822235688804
Ni 0.2923097309950778 5.595784121722142 1.4710492797979722 0.4479769306375962 -1.948762498890321 -0.31195580321355953
Ni 6.5323133660876715 2.121280323100318 7.094536413697157 -0.8293057251283397 1.7013832940065665 0.7836426758735858
Ni 3.571498083141881 4.7586931697980095 0.6723256044658652 -0.6207962007265889 0.5644396763137312 -0.5058439781577094
Ni 5.9206365477444685 6.160021651980224 4.7949192036290995 0.5693383991669291 -0.5435420069291155 0.3669918090427809
Ni 5.496674128852268 3.328018353694626 9.024904152353884 0.05392940302860389 0.017444677839008667 0.7836583596028697
P 0.3356844879960882 5.939769117218245 12.579293268103129 0.6188817573126955 -0.2933114486394949 -1.1343565736919496
P 4.025691420911855 6.602514757798409 12.760588498987595 -0.5651927524296717 -0.03847861569117244 -0.3749064359041672
P 2.5093395360734267 9.13137899894493 1.5146547584423034 0.4182992010675054 -0.5359976189229543 -0.7305241987820515
P 6.626307357301307 8.27596710704329 6.037664401673483 -1.0662012568719508 -2.05287957851691 1.1998415427686366
P 5.062279079131659 1.3152228001176816 12.604065294661071 -0.9498536966174416 1.0264741134856579 0.5057532182161161
P 3.934041123861594 6.456412329037987 8.334479210121287 0.4500129872310185 0.31806551565572316 1.4871520366296902
P 5.138015966395581 1.1646883271416961 3.8093073494343246 -0.41941120318476155 -1.2839027321856145 0.5291453718878113
P 0.2519343553572346 5.961601038724546 3.7769534266607017 0.34081797886089044 -0.3690749168240547 0.37939763890630146
Ni 0.9375415013777266 7.756296243619496 2.7171987620104012 -0.18688423282249103 0.6606411006376688 -0.2723839544582083
Ni 2.061511562217989 6.891327186413509 4.982059990773189 -0.5156910461551183 -0.5188038807524872 -0.4148351537783049
Ni 6.255684499349104 5.882599394610476 9.403110730408276 -0.924965160905878 -0.4364686728876806 -0.34383953929603367
Ni 8.625952689152234 2.4212093399844994 10.344743209224484 0.566312982077044 1.1784147403534286 -0.5289132012723472
Ni 2.4434789942528314 5.308686146424997 7.194881177733261 -0.5780354127202948 0.7206501342014492 -0.8771950926104507
Ni 0.6973529751349933 0.5551336007510901 9.034860748803583 -0.8225138990174865 -1.1366476837189716 0.9929315016435223
Ni 1.4327084495603193 1.441335432745349 11.668265604898927 0.9444682639358121 0.7707197971643307 -1.2393401150838914
Ni 4.479975953007251 7.199947022510516 1.589973063752533 -0.925627219969909 0.31124309341725104 -0.9123053060500224
Ni 5.818024692778346 7.802604722069369 8.26403250567516 -0.7129342536144302 1.1611053025407037 -1.6640092242334825
Ni 6.960215379838153 1.0316814035120392 5.245160179335234 0.03379715105510308 -0.9097486010664396 -2.861236212197408
Ni 1.241264202199511 7.733251437585068 7.241676633880893 0.012922878709255162 0.06615628411209896 -0.7014151972312371
Ni 5.1861392119213745 4.9135228955014245 7.2892189715537405 -0.19387377676644676 0.18024821556321216 -0.5625234331276248
Ni 1.0929822290614772 7.934417000035984 11.64900536336956 -0.9140801385622581 0.08882441513357606 -0.3874925000992939
Ni 4.565023780896876 0.7187973207582458 10.443498456168463 0.06695358320241372 -0.5538490452820785 0.4357420791343012
Ni 8.160715718573517 7.6013023681303205 4.767022859482159 0.3430059876511447 -0.16822676562230385 -0.8858761653242163
Ni 7.31430470659114 6.311440709912815 6.774684172537781 0.7156758209153093 -0.09220464445971863 1.2371042837748372
Ni 2.5919159977440844 5.856399264916406 2.524077451005061 -1.1418945339402078 -1.0204970699666167 0.5419196408343442
Ni 3.3891185517281333 4.554116939576268 9.25801326311402 0.40179323299268216 -0.26280093875546356 0.7368537405445051
Ni 1.121854352490445 3.796784544667218 3.7059066635532916 0.04596155433177891 0.318900867072825 0.4154429625656329
Ni 1.4703625865275358 1.441189521824672 2.7864572043962625 0.01172988684241851 0.6682034863659588 -0.36132021257930036
Ni 1.2293907010294176 3.362289181188644 8.200566726840178 -0.9883541666854849 1.8980726858449377 0.9488581654733917
Ni 5.650509836408571 3.0006307254255358 4.666772025601242 -0.5531926426450021 1.5399822930568445 1.2020904867038134
Ni 4.065798685232954 7.18045879516759 6.358584528383564 0.2066200206885216 -0.45739745262054776 -0.9347258398370676
Ni 8.546668342629353 7.588608118031417 0.13048448858845277 -1.438757961597019 0.607891833960095 0.880640885067206
P 0.37492723011217594 5.843121371134796 7.924573484549809 -0.5510773960742122 0.036769346309549575 0.5491603815571574
P 8.549668635935774 1.926170063857499 7.884504521845388 -0.685987035601625 0.8046807274908078 1.4265349371682658
P 1.7686774638517277 3.6454566810600517 10.492069465832085 -0.1832558920412844 -0.7595200717937693 -0.5057401055899935
P 3.991137891009025 6.593285892065587 3.8725998590510042 0.9795296264153195 1.1851476882018879 -0.06161288771579067
P 7.11446146185886 4.2605076894439105 10.457526879248306 0.14852311654578937 0.40840868142667086 0.3015220094747452
P 6.328457571036774 8.016537490079525 10.32460203051153 1.4130209618422311 0.2949600399865114 -0.20448677639560267
P 2.6794807890153884 9.065345187906031 5.97905654455379 -0.30745688690194145 -0.3771224697188795 -0.3872053078761783
P 7.146735133626111 4.413075795876832 1.5851014628884283 0.18279617879604648 -0.29400230405893235 -0.12478823482269476
Ni 3.311776644336764 2.0404912702079536 0.5240864926607803 -1.142902663489748 -0.508302467000531 0.22847285489755492
Ni 1.3990030268839249 1.4971372404717713 6.985863783863413 1.6489376746123408 -0.9039975575152754 -1.9107168569715094
Ni 6.858907603725581 0.8973284516391367 9.209228858728906 0.1686612820565611 -0.3115158874626635 0.05630767345279335
Ni 2.7854303562919984 1.8789496421533947 9.237511866815641 -0.29940342046984564 0.9491813531407652 0.9884852929467105
Ni 6.670107991802044 2.1892383344056454 2.557258506310273 0.3907179490151271 0.0751471747567996 -0.30864705055530073
Ni 4.156737666544914 7.328549260222235 10.513238404592558 -0.04447108582918147 -0.4434710723474427 -0.3318877662507962
Ni 7.570268939188823 6.424539912302599 11.33410497408066 -0.05108190627747977 0.5572135908789371 0.7158352293113092
Ni 7.861963108487295 4.229911993264445 8.366926151106842 0.014149294917188535 -0.6345176640777395 -1.4994354819827336
Ni 3.2817372335423802 -0.14009910631781494 12.46612202219626 -0.2652162330651755 -0.2578613353620011 0.41884298938611736
Ni 0.15946330937816558 5.240582224198992 10.07918624553554 0.2297455509623914 -0.8078023038389248 0.6877734380780866
Ni 8.672115256681431 2.6402033930556397 5.792583299871797 0.2324858327116899 -0.15189280434897065 -0.5723612451536529
Ni 3.5215144733774557 3.354610618988015 11.712498500502168 0.2833275979539056 -0.9590813858632968 -0.1419053541189556
Ni 1.3610297097777273 3.9229792521877664 12.950318293030449 -0.8412567268426286 -0.5037670410240227 -0.45646182818015585
Ni 3.2116270361570662 8.85194134698333 8.183468702766593 0.3165490790111968 -0.7307944217243028 0.49155661500075987
Ni 5.809926636680771 8.08952942814821 3.4126548951765927 -0.11088679425025419 0.7066173102574669 0.9374802626537531
Ni 3.137522527318219 8.836356236768514 3.7196277617564584 0.9639173737993593 -0.5048067951424466 -0.32428501420287376
Ni 3.72961080456053 2.829258349090362 7.014773296965803 0.14994647925587723 0.6853740846079744 0.25465928348493566
Ni 5.127966351733951 5.05522975777645 11.550876621441239 -0.06388060070404482 -0.2828126059907 -1.0398911582225123
Ni 7.927568306196705 -0.07244386017289214 2.2641672399463184 0.893577390623216 0.705775788192778 0.68417363654197
Ni 4.889894445784288 0.5067157975541797 1.807492504581581 -0.663739022836702 0.5076748607188611 -1.7399526696393324
Ni 6.160422907012086 5.910568694217753 0.09200777880591944 0.056032308304219625 1.3149259200400063 1.535238864834588
Ni 7.796923315595508 0.38624353395393407 11.462691708757056 0.8769714066354187 -1.3776878337585756 -1.1436961059253206
Ni 0.17281689444987666 4.909218523341453 5.925094126371152 -0.17210321785857458 1.1598495757567315 -0.36624798889822086
Ni 7.59330462579071 6.5766338082433204 2.4998790367540296 -0.9839105290918344 -0.3017986601748996 0.24907818985273233
P 8.607130180384896 1.4812876667132286 3.7752991615975255 0.02863746123103455 0.8936326693411836 -0.5927902024319662
P 1.8847678401153913 3.6086780096168973 1.6556411855464852 0.8743193137245523 -0.3539627437729646 1.018646389911123
P 4.735739558089004 1.4103567203991065 8.367980357508733 1.1637751360633828 -0.008631707533069006 -0.32959871310630334
P 8.73736479652169 2.1739632848972685 12.603250929335042 0.3559566342745418 0.7410670072949043 -0.3172571608218149
P 6.461236508852872 8.143096974901766 0.9992773238594331 0.8043138310696921 -0.9216965174569351 1.6219436625220003
P 1.9691225911318004 3.661506882334525 5.869195652659781 0.4828542021307555 -1.5831865963584606 -0.5519214892420623
P 6.841389173811795 4.273995330173994 5.994806716497622 0.6935684474933087 0.16197101452057913 0.18436249484190187
P 2.342827817283306 8.934381017165853 10.208534452829221 0.83634077759825 0.27102152689304293 1.374523319987665
