# total energy = -340875.7135422502 ev
CRYSTAL
PRIMVEC
9.22082341004701 0.00000000000000 0.00000000000000
0.00000000000000 9.22082341004701 0.00000000000000
0.00000000000000 0.00000000000000 13.49560711571779
PRIMCOORD
 96 1
Ni 1.9891160291573537 0.9122732305021222 0.27335499875199987 -0.3452032524127797 0.4545576691789075 0.18428690440896006
Ni 6.010178812279385 2.0541873800648425 2.2996650633572124 1.0416348803864963 -0.5269877021148602 -0.6321139397322534
Ni 4.549240769707246 0.3666153289508707 8.635974257259365 0.5744734064006494 1.6175324208281818 0.03921035165087441
Ni 2.7060903753615038 5.230604295845543 3.3507836088224607 -0.1377324536881886 1.3032248295529942 1.3013785203728747
Ni 2.9115764253789878 3.3384083417042887 6.738653369458712 -0.6834354728243649 0.32968973015821285 0.27235901475754387
Ni 6.28591831596899 5.774586773780543 11.459551754285565 0.9496708911826742 0.5216326084505338 0.3637681598991606
Ni 8.55837180731783 8.33733944900645 12.24488836327745 0.8569671955993499 1.479419700982439 -1.812166215689105
Ni 4.0193016058479305 7.317184428601048 4.986087422354018 -0.10516531838544468 0.4916010950854502 -0.34037986288220734
Ni 1.1558855412156928 5.011157919163196 5.570176793856711 -0.12171190989021619 -0.39039193313427606 0.826001600455771
Ni 1.595414531396685 0.8427353127277514 7.373446204808663 1.537215528944985 -0.11275315803503162 0.5694893229224965
Ni 3.988218210083563 9.058878102805782 13.045083407135753 -0.038386313087682276 0.6287835898074398 -0.7922620421114807
Ni 4.275622055405302 3.4355036123654554 2.683425591383807 -0.5737951493867022 0.5200719488316333 0.4591056935609061
Ni 2.5429924506269623 8.385555134693746 9.58812939323762 1.6687184567836937 0.882240882564474 -1.3370443492056006
Ni 7.538170682795306 7.868322265513547 9.680641914656755 -0.35095712417742136 0.29765352765827446 -0.3442316325281297
Ni 0.3202345871250711 6.4300121236254055 3.7118858074477554 0.21058980396954702 -0.03575118945768036 -1.3278135746359518
Ni 1.4449491347538623 5.978228659113104 1.480184667306333 -0.12096243331870135 -0.7267058534772258 -0.6336859122050634
Ni 6.069966631364571 5.994807699630557 6.572913678813019 -0.14732883912737205 1.2531451392877837 -0.4122319118275029
Ni 7.135912260896596 1.2076235814511922 8.668727544145932 -0.8093066562985933 -0.24747870657609639 0.8629300980510041
Ni 1.029873768294942 5.071452883536736 11.106628426037904 1.3259171289441873 -0.3260721880102836 0.838044647663234
Ni 4.802914842941754 2.6184280070637156 9.468761223594305 0.7371717860055562 -0.29520172368367226 -0.6663232386241106
Ni 8.846033835695458 4.387203239666535 1.0522877458754893 1.7601391718895363 -0.36567026201787994 0.8184029621729066
Ni 7.922549928073692 4.075548628738066 6.224376696268443 -1.0047007263643084 0.5242769880519164 0.12212482905791869
Ni 8.915540402670185 1.4768808462732943 12.778531531906431 0.803023651503359 -0.4817123752168284 -0.03788083420617347
Ni 2.938196942605843 7.149577521211872 11.66051499041328 -0.4560458236886598 0.7126825426149404 0.7398853282819774
P 0.511582348585597 4.299033726080393 3.2130613901524523 1.7036744040335887 -0.3471781167509634 0.16906597369414755
P 3.765055841561097 5.485403309537854 6.422816193024839 0.3967011631817555 0.1389647834333929 -0.08907792590527885
P 8.620723015315058 0.5490022942073584 5.62043489193256 1.5086803976197696 0.9398395069145491 0.7612370544848761
P 8.213116515830073 6.152244038782387 5.611568148127453 1.9864985799885142 0.5696425606709093 2.0601506582570264
P 3.4451393728441757 5.556071700264082 10.414141820602495 -0.7362150785192418 0.4766701848072307 -1.0959345222703254
P 1.0472826829206097 3.979937910648261 7.732443289446119 1.2173630965921678 -0.0445027103980653 -2.3706144503060913
P 6.383013586630158 3.3044111657377435 4.776702808192607 -0.35167111952531044 0.00872041059213337 -0.807014774940623
P 2.937542264142696 1.399241513038059 9.860214684604053 -0.20111426037894398 -0.0641816768842314 0.2401847440178444
Ni 0.3893833861509232 1.0967524005936544 9.455157742795974 -0.5610126529100531 -1.597939329187603 -1.5118353983089834
Ni 0.7108821481675086 7.2869585694151695 10.323221735388792 -0.2641026882860226 0.9968979424904381 -0.0560248521050519
Ni 7.027189531896993 5.432641757902222 8.668255437986591 -1.2071329342237276 -0.2583953534886001 1.949926437291435
Ni 4.5610065403970514 4.118379353545389 11.315580583580699 0.7869396014573028 -0.3085174669559719 -0.1879242440512312
Ni 2.600668701147912 5.884240805946032 8.3500291462034 -0.7132497279723199 -0.872705175159897 0.1322392917841013
Ni -0.332303722905546 0.36833685668424576 3.4094354224617347 1.178335550376061 -1.8374581574866742 -0.9741210538052384
Ni 1.875229639039968 0.741146734811771 5.037302641901342 0.2564731967652228 -0.027230039360546653 0.212137350962325
Ni 7.670554044702463 3.7439309350953107 2.9236879769472157 -1.6326919021774398 -0.23676054882764386 0.3332329674247809
Ni 0.49251091949647147 8.011254249418462 1.6668961987489639 0.5942462181522025 1.4131757422525404 -0.7070826799296597
Ni 5.017575612266726 7.077111069917844 9.567251604839614 -0.2723039931498923 -0.13953402567330161 1.6976978747351792
Ni 6.885004434689472 7.567474459638723 -0.060690537698455345 -0.997885760325004 -0.5165919607028329 1.6435388721942725
Ni 6.487107462270605 0.8166200966245646 12.75777545837763 -0.06456374281399849 -0.7355573903305849 -0.5416005669320285
Ni 8.936453230197205 6.283714539170508 13.191523914353732 0.8551026315867855 0.11839312992962837 -0.3032814153680132
Ni 8.867804199800966 8.899920327788891 7.707691833127432 -1.164455192849543 -1.1319855023566117 -0.681256462895175
Ni 7.137654996523848 5.847634136950321 3.9435110477093307 -1.661058883355907 -0.5505228091223229 -1.453056380497562
Ni 5.458413959374013 4.639079252333243 0.8226099435211928 2.485814527219719 -0.86395776798457 0.2818085902062179
Ni 7.56397054673737 7.79645516774212 2.4884005655415455 -1.482120387743054 0.44142241734853005 0.05946807345864596
Ni 9.14133992669209 2.3869484558122496 4.264112623606701 0.09794643203950228 1.2620648103749166 1.535060687385511
Ni -0.24932368874277547 6.028519030070939 7.795400305542343 1.7956239950597075 0.5769591489369806 -1.276409509132363
Ni 9.110726792922376 4.0614223272515595 9.328878565995907 -1.9065892079563809 0.0911083260717463 0.7375625936860717
Ni 2.9564265105163017 2.6567313075695544 11.818805177814227 -2.434168263798337 -1.7806465478142688 -0.30062469447145646
Ni 8.362715155070982 4.063266491936482 12.330261201118907 0.2702134291694508 0.8302968853970153 -1.101609461167916
Ni 4.863302015549539 5.080692148608197 4.558006084454682 0.16299277091687414 -1.665549829247725 0.18216882962469272
Ni 2.618225148948374 3.618315657581818 9.697619294746152 -0.8445410540208552 0.6240342480479124 -1.8566056769494024
P 6.637840262792742 3.328929335223787 8.200376104104286 0.46394913769613644 0.1647264657785292 0.44102415346884694
P 5.460119811707567 7.941803007384282 11.815606474168229 -0.3242485045379835 0.07607380033612705 -0.675197915405921
P 6.086204501415314 8.078335739832516 7.981032078561952 0.9422236908760095 -0.36773022987070214 -0.8474050058322115
P 7.833495215438786 0.6617692763609964 10.789669997475597 -0.10748625320913746 0.7496714611344637 0.05871165490859565
P 3.623396331288779 5.330087759773685 1.4224908972208765 -1.2442594067623798 0.7973322575455366 1.1370120090369258
P 1.3191863240655757 7.9758555082913745 12.973934611509103 0.9795021156114939 0.18594680860988622 0.7349516384257858
P 5.620838763998559 8.666799469967845 3.866342898551093 -0.7826723415405167 -2.2590936220162643 -0.5035340990776102
P 8.311465818476988 5.964932231734813 10.545925828987054 -0.7348832470816956 -1.3787257881047867 0.18334150977655522
Ni 0.8975531079870712 7.647170036497647 5.555885439630904 -0.216974110229336 0.9689258827575442 1.760588343611813
Ni 7.3840446192529114 2.679691157896839 0.45758889494043753 -1.1445661672350997 0.050538375069183926 1.663362591788419
Ni 6.862182896713557 1.0691729177306393 4.2830337532740055 0.1062518665814041 2.4542156693675152 0.6305720491664302
Ni 4.384077380525591 1.2189836359103146 3.9624312552942924 -0.8543616396557029 0.2281362974937426 0.7042138430222968
Ni 5.031794121987479 0.7525787116936051 10.922251607086382 -0.3579880628822738 -0.39101799675404914 0.3880668845455252
Ni 4.533952644469238 2.4117248083541827 13.293875054366927 1.0286346114720863 -0.37142079134841194 1.2067950912683345
Ni 7.492463061079503 8.105804572814435 4.948069967374342 -0.34251233584417784 -1.1006908060083882 0.5279621502129875
Ni 5.297879423551514 8.963119851541185 1.531589835816204 1.0642114801354317 -0.9349060741686738 0.7927567223597122
Ni 3.0318251836593557 7.8068193732713835 1.3898316627332423 -0.5856772455362688 0.15082965319177896 0.8016671374754645
Ni 4.693758735241194 4.699272787649112 8.330392480638347 0.31586156602586896 0.07487798025581298 -0.19703289122071874
Ni 5.602360233855635 0.2523739371316372 6.2092075196526135 -0.24843849938620435 -1.4109062294920733 0.4109080508097569
Ni 0.12890342314670936 2.1034819020928195 1.8131486011690814 -0.3773327859574727 -0.5139676357061084 -0.3462545764954295
Ni 4.646907731420739 6.6934233863963035 -0.018072813912240002 -0.19077122658172305 0.10229545303681738 -0.4371710982713439
Ni 5.199133625497342 2.583803815104296 6.704442270388716 0.9771567553077688 0.6681163259687913 -0.38758223159962285
Ni 8.86081481564511 2.2202267474718353 7.197004826496364 0.4180433763029575 -0.47509075613525276 0.3216691738465815
Ni 7.101527810346218 3.2528944252644347 10.58096126967121 -0.717488448644016 -0.9514475234671226 -1.6224056897600834
Ni 1.6792686996201085 0.4355953869080524 11.358550542821733 -0.0733620578319188 -0.9455057040613909 1.554211292172033
Ni 0.6555359997259586 2.5647074897919238 10.89936275709947 0.11595392436051644 1.9330875113572257 2.115514479739312
Ni 2.8420790792276853 4.887792522565309 13.02277546902459 -0.23886422543420796 0.02198601735278794 -1.018342485517459
Ni 3.8640229393774606 7.806644177626317 7.574382700548443 -0.9911101321640673 -1.7319359699824428 -2.4064666841180102
Ni 5.042001573518524 6.550528285785088 2.619699558613969 0.4246092024459332 0.8028688710930495 -0.11940588746485885
Ni 2.102237090930497 3.557080169218968 1.6066252085163284 -0.5544923352930321 -0.6850213292542461 -0.45237248860213064
Ni 2.1615546480210273 0.9233916993875196 2.688041535590168 -0.13372204697721488 -0.1871259165196519 0.330753652646353
Ni 2.2466075232896507 3.1534017405128685 4.3738588640064355 0.37509309799367657 -0.799684559827797 -0.6498702352744097
P 6.169450095292713 3.5951990532563154 12.524045104128216 1.0739225367756084 0.2375398501958296 -0.2851404827929283
P 3.6387766647610325 1.020717490634302 6.721986731118725 -0.7206401068991203 0.3028085894966527 -1.1998852515223788
P 1.3470332108079046 7.56422872979326 8.008415157886024 -0.41801200884438977 1.308296587648947 -0.40051410916994246
P 7.52794478961741 0.34298235851358944 1.0947634689809655 1.0106158062971626 0.6489806335806049 0.680304383394551
P 3.971749819447205 1.3744098355555785 1.6206334834629992 -1.178273329679558 0.3425907544905971 0.03429183130333449
P 1.1713119788050692 3.3943418565979866 13.004893526157238 -0.300225916371141 -0.5041041126484673 0.13732261984427965
P 7.490001101225132 5.949616444026532 1.4865138405049867 -1.2912753705006021 -0.32369571735830704 -0.21267676840556274
P 2.244081017671307 8.09575387528161 3.7673665799113047 -0.5389101645840589 0.045459932105012035 -0.597002697851417
