# total energy = -340866.7622171169 ev
CRYSTAL
PRIMVEC
9.32887298849683 0.00000000000000 0.00000000000000

0.00000000000000 9.32887298849683 0.00000000000000

0.00000000000000 0.00000000000000 13.65374859560010

PRIMCOORD
 96 1
Ni 7.921500513686809 0.1487554092987191 0.6427294934290744 0.23897349731856266 -0.05467219473189939 -0.6729057769376346
Ni 0.9650905637740012 5.969014050930366 6.029099455786295 0.2630953300674308 1.1372997154806737 0.05219442261536817
Ni 9.247506513907554 8.393112356483767 12.376071861144291 0.2849407080772964 -0.22297763611093857 1.4440518630061068
Ni 4.11726075822024 4.13968736877695 8.337375139306907 -0.12311624643691055 0.36306830561865855 -0.3033387509685098
Ni 5.084151794472381 5.785058005353098 5.5113358127621535 -0.35065116290122833 0.41831719878963436 0.4071290433832988
Ni 1.9947929015562258 1.9812753646607715 13.594531815407919 0.25883424079823164 -0.7131926494821395 -0.04895971772815439
Ni 0.6763936643337921 4.237696507923701 9.979538509365003 0.05201547383534268 0.8011907120596782 -0.09155389824959717
Ni 3.2974300750529455 1.5836694709263661 7.247163865837108 -0.4748953522949951 0.047005936435893236 -0.9261203575562437
Ni 7.778181038652398 1.3963457022164145 3.107019382285916 1.3543229337803901 -0.6263811510135342 -0.4257034639513765
Ni 5.747695869213488 8.567123823503026 1.1350374408516808 0.7195900683680511 1.4391248580181346 -0.9529390204109847
Ni 1.5606364836283149 4.448239841390579 7.806394349096099 -0.8292866989649459 -2.302467618126525 0.32941385078900687
Ni 6.599729821782514 1.7877385665703003 5.144936864799088 -0.06597065046385413 -1.042502113482798 0.8313569512304133
Ni 5.245858478078869 3.549757430434757 0.2088268208452327 -4.350696328134984 -2.4208275808253727 0.2864103506442874
Ni 3.8746540884457876 2.132748274647997 12.014301899935903 0.9950709165840284 1.007412983089149 -0.5800082201759496
Ni 7.075017240519299 5.695640758187516 6.573065104247472 1.5949172545318273 0.8525361564111898 -0.24430982192981152
Ni 3.082567473413124 5.00315851957498 0.16270860456064518 0.6249901842032786 -0.06841422690834024 -0.9400737344125423
Ni 2.2122302721285143 9.002381048438297 8.330889706836432 -0.5048219646510984 -1.0300420333425746 -0.48183913060267985
Ni 5.4124161756160944 5.684697990224529 9.96126977747931 -0.6093946437578666 1.245499449817068 1.5673262322874362
Ni 4.814276829083426 7.95761258085196 4.362413277421036 0.34099101410364496 -0.17203431229385213 -0.7561496126596398
Ni 3.036389552341697 0.05403283209004191 3.5200319096868795 -0.5731372040877291 0.3450762399166122 0.42215354181658904
Ni 5.978883998504825 3.1107313408302235 10.182774536655064 -1.3470469689442672 -0.9902482983844042 -0.07028470445817572
Ni 6.04425141122149 2.6434947394438715 7.562415402111624 0.5379711977095575 -0.4172314219246234 0.9208827633063881
Ni 0.8053205541906286 4.720736220076718 0.09288012480229199 -0.8041857901322602 0.02497363922620215 -0.26137963292790467
Ni 4.174633326824135 -0.028757183736319608 12.920077623759127 -1.6043812281582046 -1.7537978030525407 0.7805974612893589
P 3.8124864791488196 8.675683917949128 1.6445534273062783 -1.6685801314336166 0.016851267229383883 0.4213220470542292
P 6.678036381272123 2.2478852245194227 1.5041650841507839 -0.4415535436097557 0.15685400500898794 -0.2775935236836058
P 8.730323126780512 1.575702613432427 9.896428513196673 0.8894222308042617 1.1584899764050436 -0.8316140615465419
P 3.8245766984838845 4.461524156462439 2.0897197810823704 0.6133528570746662 -0.925808996963412 -1.1366497406015006
P 1.013236877036554 2.106814007864448 3.2010665490934676 -1.5093159743212392 -2.37368280481877 2.1827513985100992
P 2.0143555481192124 9.231973940456257 12.209877989651872 0.45731826264318015 1.31330921037219 1.6194021270470689
P 6.743860908763031 3.8828448388903762 5.590787024961956 1.5317123397385686 -0.07934912865328915 0.04792947669142713
P 1.568202199585674 6.365117996120832 12.408813406514877 -1.7397364398634683 -1.6840232054615643 -0.4832558084445483
Ni 2.6198647042774215 6.4292913131007 7.829510363363348 0.6150724108689343 1.24765506270749 0.6961891729456074
Ni 4.8156388445332095 6.467185194998102 1.5725158704348514 -0.7758581468321606 -0.9249103964085426 0.5989235690232136
Ni 0.22002146837769995 1.8151281375330701 12.117783355951442 -1.722710594729433 -1.7597007988005373 -0.6754007754453465
Ni 5.320330870788609 1.0569519756508385 2.9027870313654662 1.0890969305232017 -1.126251428086312 1.0543651834689713
Ni 6.481421055110223 5.770122479770198 3.360024013843442 -0.35045215951654485 1.4766403384650892 0.020457239413087348
Ni 2.3534880662423636 6.220380532398975 2.369293975670913 -1.3510424632569054 0.7755012777133742 -0.9376718098392691
Ni 0.9771248098714035 4.741455646884727 3.9514633638279286 1.0876303732800043 -1.0693022643947778 0.2554984915567793
Ni 0.6130851338758068 0.4728348580398796 1.4471339522966293 1.7832922129672322 2.977464216154917 1.0281574147253518
Ni 3.4653777746587857 8.219352769033987 6.311950883439968 0.8623487716262374 0.10173109589291511 -0.2740577426162054
Ni 0.36873862929734985 6.777407535868657 10.351234391385514 0.12727089203523242 -0.16611871814036552 0.41865221353154997
Ni 8.951520033149121 3.88884330419319 6.12554974026415 -0.11147146310913059 -0.1471941133217207 -0.6580674263732215
Ni 9.167977872062318 0.6019763119744217 7.6553431041659294 -1.1642014249675239 -1.5973939982070942 1.1617046266875992
Ni 2.2754800306869547 7.65053407016344 0.31502484466198327 2.184147250416361 1.0170330226774162 -0.8227409274266282
Ni 1.4463484611947681 2.073957717356657 9.224595734845066 1.0919038038443776 -0.06454265976807594 -0.5608401318879309
Ni 0.6456867461522345 8.630989287675753 3.6951143313200783 -0.4867517374129488 -0.428977506716958 -1.487745190128999
Ni 1.7103089211374018 3.3288310613815164 1.8118658306646505 0.45516959173129345 1.92445426116226 -1.1067470395047971
Ni 4.69538034341568 3.40797721943606 5.776231958661041 -2.6874527784229327 -0.19349736726363448 0.08966413742605203
Ni 3.065644897893211 7.404466388526865 11.456041619463061 0.5265652698654608 0.2342542374660224 -0.8449012655737512
Ni 8.179481166072517 7.955429624583129 6.392671755247411 1.5858721136104235 0.06911768073326806 -0.43620410637238427
Ni 7.593030897338333 8.319488891211908 8.723967365643952 0.6869987646955911 -1.0033928061861623 1.4875880957258445
Ni 9.16920928329089 1.1423764651965074 5.112141211965431 0.2615256715874657 1.052519388509484 -0.10064531902790408
Ni 8.72756178038917 2.5457001643748267 0.5467820352028864 -0.2218080412828696 -0.4025483659911519 1.4428722408757089
Ni 1.811471219339131 3.1599877899730786 11.587034854676931 1.3130209897078098 1.806593349587018 -0.033494532213019734
Ni 0.848398490782857 9.341933365843916 10.498149214052436 -0.37305781273120264 -0.2866486919073386 -2.360992096724979
P 6.7586565012517745 6.748823869169091 0.5025044055500952 -1.1744151322757321 -0.2190271361036228 1.1835353494094456
P 5.434824128426917 0.4912752411877363 11.313891985095792 -0.6068451378631354 0.6009269726064876 -1.986080261504173
P 4.434339820704432 7.598152448584437 8.339928451831604 -0.14247022548349014 0.475551240711439 0.4110386628503501
P 3.005408365295594 4.8804651826191385 6.2478736538514195 0.7257851414351695 -0.0446844873915682 -0.0512737105733117
P 6.9882214066509025 7.782052520924043 4.53289469891839 -0.17130411899604692 -0.5748747556041262 0.476852733131682
P 6.846198644955668 0.5048300935749653 7.3637393279164565 1.521779911116205 0.7763181171877146 -1.4887399499421006
P 8.584839353223156 3.772456285347306 12.512322849149246 0.39608204154051785 0.6135384907229111 -1.4685953566734256
P 2.395197457173748 7.260269999435744 4.353948258111902 -0.15299040828852362 0.5713168630495387 0.41354368866039104
Ni 0.4201211285840801 7.699547968609759 1.3771991233867178 -2.581531041487438 -2.9565480348275406 0.9151625729931594
Ni 7.736994064605861 4.573722511356593 10.291471765533437 0.3788065422895218 1.5937977962154035 0.03628057959858913
Ni 2.4127450671808903 2.1252012164365257 5.0444182588304765 -1.7400742828188611 0.11950384649530385 0.3242402770078674
Ni 8.518539053212118 6.21260025236391 4.393940203534346 0.2696727261746324 0.3516495222587557 -0.11173808650695594
Ni 6.55027746630784 4.458604219231055 12.400935173313902 2.531496602637866 1.557232338386544 -1.132587911827301
Ni 3.266346270404462 0.2020493946516182 10.300756792774324 1.5053022251761559 1.0830039302515864 0.3558825865034968
Ni 7.493902293438335 8.141111511654985 2.478701131780304 0.9382083990690294 -0.6812307518635623 1.3077008630464768
Ni 4.8114501805814776 6.469097613951565 12.820896778170646 0.49130773221474744 -0.4022999974257717 -0.19979425601593975
Ni 1.220169936674211 8.651503479278999 5.846288995806517 0.4016153126539212 -0.5970772598430943 1.6370782041705936
Ni 6.698233391195282 4.551379860656376 1.304349021681893 1.4666660008611967 1.9778177643850647 0.6096319565796534
Ni 8.418486890890692 6.324052297422565 13.029799162886722 0.4879992366668047 -0.8953044006166517 -1.1330831062961646
Ni 4.009017845454226 1.586066991272903 1.0371868925449732 0.3076026684511864 -0.46574325348208173 -0.8888951546561982
Ni 6.431763464430787 8.330039846511259 12.484865177413987 1.4402229761783196 -2.7131751228897016 -0.16649384209159712
Ni 3.4847538437628978 5.150228201532768 4.000507114667668 -0.04210669936206297 -0.30688430222792307 2.101563416875858
Ni 3.5776041161717695 2.483103426922447 3.037398936394208 -0.37169358539382436 1.537432272941481 1.0492042080933222
Ni 8.558326696317097 2.9674211946687548 8.33513527691312 -0.4826426003405817 0.7454769634371419 -0.07571436011417927
Ni 5.540072472977997 0.396399670462782 9.0125252648773 -1.0710233608509427 -0.7748800991896074 0.791077020664444
Ni 5.821030139424093 3.645639586550339 3.68397285836339 -0.2638188384970166 -0.7089143338217597 -1.7253827422449575
Ni 5.928097614199199 7.907245995828801 6.651423905425566 -1.4699703826440815 0.3546065480045506 0.3745912186565936
Ni 7.6530155503664705 0.48469838576241175 11.164643078418349 -1.0127544499067203 -0.9959018971257557 -0.09400364534167037
Ni 8.402907673074676 3.888302229562454 2.6810359899440006 -0.09259493791960181 -1.3529386518383537 1.2074409523824496
Ni 6.3111131506496205 1.2168861733980207 13.122863066486005 -0.4055915236928499 2.833576027277978 0.6489772911464952
Ni 8.700209524918174 5.754533933081237 8.288917241688035 0.124222849237528 -0.7033779773845629 -0.04201182565541152
Ni 3.022060403500139 5.121868427783851 10.449705309742978 -0.5240383896785491 -0.09870850701650742 0.1340028114424273
P 0.07429234546192451 5.59964665559661 2.1888595796299004 0.696998042000148 1.5175144509716316 -0.4313532060379861
P 6.380837147031006 4.857824007984724 8.375086175294612 0.7853874264788345 -1.728015037661482 -0.20905485538225932
P 0.5428583112427566 7.501803848821669 8.126041650301696 0.3905328295875145 1.138656486618884 -0.6470659330563953
P 4.184867100443399 2.076140673625488 9.04073391088453 -0.09654800903007889 0.6558171968864641 1.604943271309262
P 7.50935090703314 6.8809860121628095 10.967892483598765 -0.10474262902572927 0.28575651911037236 -0.5500800651579494
P 0.9990476612891519 2.0615130008497307 6.906816728456684 1.4001610751604274 2.1262313519361835 -1.0314191161957593
P 4.3982370824122246 1.2714600801187985 5.2185174172554065 0.07041994448445936 -1.1973200618983637 -0.8481151445253586
P 4.552163485983649 4.432418072878025 11.901590457029846 -2.008971821390366 -0.4606601825322196 -1.0840714522841524
