# total energy = -340867.3624648702 ev
CRYSTAL
PRIMVEC
9.35412598970604 0.00000000000000 0.00000000000000
0.00000000000000 9.35412598970604 0.00000000000000
0.00000000000000 0.00000000000000 13.69070891547960
PRIMCOORD
 96 1
Ni 6.316569889360031 4.6306477323756114 0.25447899264153157 0.3585817306022147 0.4850121290140228 -0.2530502871266029
Ni 5.6990479199344355 9.153489164799241 8.581446019645796 -0.5467954808694067 -0.39870765208882303 0.757793833131282
Ni 4.184287557008267 0.3359496867900588 10.590940484149433 -0.5971060561985008 -0.5248241188046381 -0.8284732019247151
Ni 3.5266083254834206 8.981999976337665 0.21602418143957106 0.2745380246867336 0.3455215549841469 0.31842829831178066
Ni 6.7341754819896416 5.340251716267786 4.223240943115862 0.19789935298607209 -0.21163521451492587 -0.9675575416551078
Ni 3.3773632481963176 7.262056863784884 4.633346397671589 -0.30659685289449135 -1.1115943402947694 2.4988412784966902
Ni 9.158577809239492 9.207462470718802 12.127777519398089 0.6142056919932648 -1.4537233246575996 -0.4541635190642824
Ni 2.5701957321133273 0.29255402633563526 4.113469341331351 1.096599152437518 -0.16661674082270658 2.1703435117640493
Ni 1.4252133165539067 5.776724580654718 6.378912331641158 -0.18340218781116155 0.157611966220935 0.13048888475189785
Ni 7.7266950009835655 7.075460762141315 2.739853382741446 1.152552527874686 0.3559260381469225 -0.4699007272938811
Ni 2.1434418044422388 2.4402669246223927 11.420104227072951 -0.06693327148743956 -1.6581023718307446 -1.2253137188978123
Ni 7.992006071312247 2.438845097499382 8.801852609027016 -1.4666893978999642 -0.9860077779404954 -0.1879504693034763
Ni 6.2272379878813835 5.55595785742984 11.727419999348216 -0.9747735997875728 1.440881435697925 -0.7007122576269416
Ni 6.812123412358393 1.9956372625297656 12.813093515626461 0.6845847559374598 0.8500262455051425 0.941023242810005
Ni 1.9703062898382284 0.40131257629500156 2.0116169156497627 -2.4094067405829405 -1.3389834752098424 -0.4190347936819493
Ni 0.220522580541255 3.2254803074309972 10.386456487720773 0.4583729291599396 -0.4199614192612767 -1.4120575694876971
Ni 2.9773434120881594 8.98755632706838 8.533555701740012 -0.314314019033091 0.12730354504538077 -0.5095941892287611
Ni 5.515753824701544 6.249921742968894 2.1746873908829856 0.910463110634961 -0.3418039969232436 0.0799772491555913
Ni 9.12535195436492 3.973380082386374 7.4416392418966515 1.1888853008674494 -0.46169145201021133 -0.9879782714033051
Ni 0.39348223758005113 0.5645888422960283 9.717637427769654 0.8693465431003092 0.3849823320829305 -0.18364747105274823
Ni 4.278371354398031 0.6073456159576779 6.4139734659995105 -0.35495004738689834 -2.017992022611105 -0.7743998171190792
Ni 0.9962237528144001 4.944310279012473 3.777471948499665 -0.019306156527779655 0.07779978188829827 0.17842710319407334
Ni 5.935595053399572 6.270164071220181 8.798019288270371 0.8274329335856588 1.3116536770466378 1.085320494199905
Ni 7.152351676293618 0.9083136784587628 10.666513401975209 -0.4442655432242801 -1.0318194369579714 -0.7151340894792264
P 2.3579599716265154 7.67710878006856 6.715360593336851 -0.870805644144339 2.2960735416747227 -0.522296467286778
P 9.290891918811793 6.578345100132804 12.260563076911179 0.458031743770437 0.13515595121026402 -0.06497974730549455
P 3.9352339573361195 5.557940932101408 11.85671459710928 -0.18523666991673904 -0.971382828938469 0.23339985988552706
P 5.709954830628059 1.9990702267017724 9.302152415461007 -0.37035326931584606 -1.1292243946717069 -0.48506766484230646
P 8.0758003303118 4.971549493369104 1.9665749290529058 -1.7749674951516206 0.334644760170643 -0.008956437862339413
P 6.651859174867956 7.693534624989659 10.399626161447662 -1.4946583723090645 1.6985026300246617 0.301729497499861
P -0.11101663592972709 1.0798309292977675 7.61458019068383 -0.27226439816120857 -0.2907028073720542 1.200437524481423
P 8.741346381642252 1.8878309625777843 11.879866058487254 0.48686152351793566 1.078353833074085 -0.11981057910244527
Ni 7.5242810725965015 3.136045510568447 4.068166374624415 0.7651847262787145 -0.11894797399183384 1.9113084678089214
Ni 6.30563491628898 1.5400071484854223 6.86181065783214 1.7294312012827182 0.615129746469431 0.03739798103248398
Ni 7.464863665455939 7.048736024704195 13.2380252595899 0.1269217362259298 -0.8528986819569311 0.3234910575466687
Ni 7.736984539373776 9.206601891144349 0.32350495781338934 1.046520747723888 0.9910697658444352 0.09051414413117315
Ni 0.7048109298274974 7.732335538846564 8.101613975895097 0.679480601941675 0.8640631832141827 -0.08629830627761266
Ni 1.4585420668123805 7.571266846536528 3.2667946748928554 -0.36832441181127534 -0.4509630098491137 -0.08710974643531451
Ni 6.0226445481807565 0.7437053849424942 1.2429182419574467 -2.7641433864074525 0.6577432102645833 0.40940806922546263
Ni 2.8754769820250723 3.925346646355708 12.896989734597335 1.074611335312517 0.356900743355366 2.0221677512553495
Ni 0.6517309429227236 1.7524580538658474 4.176898733031515 -1.3483286638701681 -0.8013889441134133 -0.056987216018321206
Ni 9.262062503067584 3.2189604817419273 2.3911643120117256 -0.10582223524315323 -0.4633636975063116 0.47805009587389286
Ni 0.6541050200531194 9.432981089854794 5.94280801981111 0.7483553134262015 -1.4410878952817763 -0.5526719942548418
Ni 1.5531216328700361 1.1380135918315049 13.49851801971422 0.19208943117251434 0.0987028505895526 -0.6897562728360701
Ni 9.643916626854116 7.9951864740874035 0.869068443625918 -0.4841374397185534 0.9967418765285477 -0.40740877940724674
Ni 4.87668930353717 2.4517724993678103 4.095493517763653 -0.15112430161406232 -0.14560671422994279 0.3128852570063644
Ni 3.8130690742668896 8.04582035709305 2.6274523361919457 1.1231560769904398 1.1316152635013867 -1.4949519922900834
Ni 8.5567801252993 6.808662385808959 10.147580176929125 -0.8085391820049495 -0.07960083965277903 0.04898722853198015
Ni 3.6617286727985072 6.323922232246129 9.8675915477931 -0.7082921268567285 1.1044718703173753 0.6753832919438497
Ni 1.4678774843700446 7.509333179553268 10.549526027541415 0.4187859108959368 1.3443246849170976 0.46517401124217306
Ni 4.102934724844936 4.190957048710286 1.8691105505956673 -0.4049366637176704 -0.2387197294365437 0.3321399914709183
Ni 3.5978119311436796 1.7748144145500324 1.5920104755095474 1.3254913542606785 0.3681660318565401 -0.4307705940616388
Ni 4.045462975872705 3.720285500364616 10.492271294287958 -0.5867519666576864 0.4875796326308829 -0.5296536789827976
Ni 2.0093691192177925 6.574332180160622 12.885722690060055 0.5165235693587428 1.0483711706690655 0.7473489836488741
Ni 4.258849293834058 7.025949374232782 7.113035350104622 1.098200692596683 1.2264642875624878 0.10444695216218142
Ni 0.7200834110363129 5.72885016476281 1.09632973640018 -0.9822724792677794 -0.6145877579230319 0.31759397533594336
P 5.982524702584743 3.66508680396404 5.68208234195414 0.9979238126517912 -1.092792634207234 -0.76995078020879
P 4.0816353803772 5.215813780626899 8.205457868154266 -0.0025168528845827625 -2.1131367235357543 -0.20690155648468236
P 1.903480415056714 4.010525315975035 1.5208190302128408 1.695757463179357 -0.6096481545295694 0.984183323137247
P 9.052183982284712 8.545760965095964 3.8429545708149666 -0.21010052303795426 0.5159923794456209 0.05969073099241333
P 4.221844372132536 5.340981338080909 3.752240129541706 0.6186321031957346 0.6538086510968676 0.28684563840949306
P 8.830856011511278 5.238478827462791 5.426832569345923 -1.222999726052655 -1.1921333754911017 0.11928941649165263
P -0.07977572655188524 1.245754412902821 1.2636946907924442 -0.046148473531604395 -0.45744398958776705 0.20810200455068675
P 1.9622710957680547 3.870793384635972 5.523119263363773 0.45081311453481065 -1.5788499166563197 -1.0265874991350707
Ni 4.071757423522598 4.609208076020736 6.034453196602394 -0.44443703580513777 0.3142404854826782 -0.8980619087571308
Ni 2.278085091341052 3.8211042683370633 7.748763254592825 0.4449725965936337 2.164876832222523 -0.7917802173790557
Ni 2.2719207224327347 1.7264442299902325 6.209283678803047 -0.33806329893388876 1.4155280445348009 0.16363683225877623
Ni 6.15948605464475 4.225380231688445 7.752473100888786 0.8075261673594029 -1.0515950769230018 0.545298584608906
Ni 5.742245272921703 9.156856650090583 12.394636697548206 1.732689560319016 -0.2948494825505761 0.05017610663375875
Ni 7.774999706662702 0.9552994523987889 2.9955268972488236 0.598676228899098 -0.2585005116078967 -0.46453457788596125
Ni 4.054059417491436 6.0466565891331845 0.36751705515864463 -0.11791567607257758 0.49040938877019413 -0.6262433398840892
Ni 4.671272700765326 1.8821810705889777 12.147930048041607 -1.497766321810427 1.340050483021776 0.24969525461144096
Ni 2.44408340795258 2.7354457186601127 3.37630716739245 0.42405435838372774 1.5272059672277827 0.11851088645441524
Ni 6.383180619247933 3.528142402116143 10.614981522891869 0.9522715620303149 -0.11857902068818933 -0.5521557167400555
Ni 6.464393139524124 3.234058040798109 2.142198641122185 -0.3593571753156585 -0.3523277792727029 -0.9191405838043009
Ni 0.8873828865479122 5.696148140933558 9.056513071709247 1.0580444320927713 -2.1040314188003766 0.18149571481706805
Ni 8.160614189024564 4.09793026753697 12.093755628417147 0.44485895383390484 0.7281659829625201 0.7837671172665921
Ni 7.473375919942385 -0.18373467455850864 5.157864971238395 1.1430523016937348 2.2677250724390174 -1.1731187820618119
Ni 7.940679982996714 8.584056756159168 7.703377971578767 -0.47660333612503725 0.7900784041966006 0.5236702077058529
Ni 6.301696829323273 6.2016357455413775 6.264854669410832 -0.04268751156619745 0.6284375193219307 0.06604161291110561
Ni 8.211107760143072 6.019136751002275 7.6594313531141776 -0.5885918480799024 0.6611558354905582 0.8872632754797299
Ni 8.56850084493833 2.1813353680956427 5.960647273141993 -0.40988012376587474 -0.21682524335629755 0.19264993166167468
Ni 4.079109766408695 7.688109232020276 12.101066813149682 -0.600117846441631 -0.8537314622708716 -1.4345223262491167
Ni 1.298118809183185 4.9668163057096075 11.514036487624605 -0.5181551914248947 -0.5320545751148062 -1.059155405768763
Ni 5.811419033281347 7.700540865220812 4.149119785615689 -0.4469706008602689 0.29747612154014574 0.8044120472104533
Ni 4.419300613840681 2.5892781487642638 7.670274655752297 -1.7344443382265933 0.14470708523380885 0.6252719771097555
Ni 0.4629412987768787 3.3248491859030054 13.834461158616211 -0.32656918225136017 -0.3933613001752451 -2.045311279251348
Ni 8.837768710484339 7.313916137271546 5.866550379976096 0.3424873961435134 0.1777334195611584 -1.3853088406389433
P 2.281658367400198 7.4156703178249215 1.2365733384210102 0.7569847069664254 0.06234128124138297 -0.051664261143511025
P 8.112412378729331 4.616962646316631 9.380175178836232 -0.25520178625196693 0.24793996248323105 0.3184874336844902
P 5.568043387975433 0.46538646726342503 3.378154607239783 -0.039938230955834444 -0.31888209801974754 0.09703111931408451
P 6.149112329122256 8.448496764931043 6.448420034292194 -2.668654414769507 -0.9954105593116341 1.6953530286520866
P 2.0951651611405318 0.17650112907019047 11.59816562432813 0.7878191758487787 -0.8956826098916768 -0.40771268380091075
P 5.554956965968247 7.717322166922665 0.3956009470758536 -0.44561922903869705 0.650212706215493 0.48967045372164053
P 5.075922829149079 2.762404309242465 0.3993238891479481 0.6386136885239841 0.16765160984512417 -0.20051879288679014
P 2.1105152815935644 2.2404253808328805 8.943441334339221 -0.16005065756941467 -2.464757192328787 2.0153052198075616
