# total energy = -340870.0918730684 ev
CRYSTAL
PRIMVEC
9.24995665398814 0.00000000000000 0.00000000000000
0.00000000000000 9.24995665398814 0.00000000000000
0.00000000000000 0.00000000000000 13.53824656305933
PRIMCOORD
 96 1
Ni 4.788674857865775 1.0772129628868177 9.185727821979292 -0.3375974150410637 -0.5701968905124825 -0.9908360525670741
Ni 1.7534310508500037 6.291358081227837 12.613043070645212 1.4544532608450886 -0.7074830006918719 1.3373428542826258
Ni 7.117009220433007 5.2738165893136 1.0556106139007122 -0.2802021649510465 -0.5190100832260224 -1.10403324011806
Ni 2.328167863345792 5.084340475315407 2.9743661416834297 0.11123337895639554 -1.0420691397104378 0.9223236095179728
Ni 3.312418760928868 6.967566919234276 6.572886064785902 -0.768994844053424 -1.7780209372659639 1.2036976832899335
Ni 3.027557092959314 1.08348443356104 10.979734733094109 -0.8168428167746383 -2.90040285509454 -0.6302591459117016
Ni 7.578545062263403 8.69120385940335 10.294265763388609 0.5211111887294251 -0.15505911789209423 2.852457437563513
Ni 8.547108033204177 2.637874915136824 3.8716674458480806 1.349431924236676 -0.05452949850644802 -1.5887270665607154
Ni 1.0706084937697158 2.0673098331337707 5.771273713173902 -2.8316975793083428 1.30062904380136 -0.1859198120266927
Ni 3.3886384045211897 3.7879775371871722 12.580456398022468 -0.6522526194636573 1.0052386011456496 0.12254469020415668
Ni 7.304163595287793 4.897260100114594 6.678620470365405 0.2822384786547849 0.7665219570328992 -1.1407524499159643
Ni 1.1725060172907127 0.06336220371449046 7.409725951671809 0.7195147350454253 0.16058236170316859 -1.0142852847289499
Ni 6.379325169888393 2.9198413466446795 2.163574132996063 0.5961804590604377 -0.06210705374338981 1.483808574078754
Ni 2.1742763329519263 2.6098567961512487 3.0712862634790588 -0.15816963849661791 -0.3212408280599113 -0.2540504462563431
Ni 5.160652618475195 1.6982550588562906 6.179681503434291 -0.764600057419838 -1.6624961300230658 1.0110415809806717
Ni 5.059726340412595 7.151983306892056 11.854088744561695 -0.5478396058632049 -1.5640372771235194 -1.2529188822095907
Ni 4.413200613606127 1.2110413370972188 3.9487815602578022 0.5614607961910653 1.135955028527321 -1.1576325135007546
Ni 4.838846623259556 5.868635057906345 4.623690779341339 -0.030952225407140245 0.4272492111719416 -0.6532059845158622
Ni 2.5332209045053284 4.602380728988427 7.689385443967053 -1.2012533355144988 0.6430730098469183 -0.7594079716959373
Ni 8.694469094134913 3.0698848950319424 13.493625077990309 0.2038303737585264 0.16327842047809302 0.04344444433688002
Ni 4.566694395859886 2.653294593033474 10.776416983820244 2.301775734265823 2.4444426491411515 0.3498142688222298
Ni 0.5663323017957903 1.4464804861694704 1.7279002452335999 -1.1436017464393013 1.7263631038803557 0.6859566965843219
Ni 2.3731041532209733 7.2761084764752315 10.557612031965476 0.5709060007643652 1.050289727848017 0.6313307817093257
Ni 3.4872614433538747 5.20679140272744 10.259838349373286 -0.40242495303941017 0.1835140307986775 -0.23711099018852716
P 6.584063712518543 1.1515918650865573 4.104240958320223 0.1223595707765441 0.6367025875442003 0.33504122427811334
P 0.4211440557048395 4.023712684875316 6.495664650877918 -0.8744938916292035 -0.8191262134921765 0.36202932283118294
P 3.238215607907314 5.746877877250311 0.6501174850111894 0.07455427836780708 -1.057801977064662 -0.911948694041552
P 7.197955591922862 1.7756401969986884 0.5559631002828058 -0.9730483895663501 -1.94804464688769 0.055297744131040244
P 7.885671376122122 1.629944128282347 9.796086217906394 -0.24597101168231833 -0.07750359080411813 -0.6084495062357779
P 2.8287570225605063 1.290766714296517 1.371004539099579 1.2858027774218048 0.4047620858130191 1.0459363359753278
P 1.0944178824355697 7.802088766959476 2.9507824519621937 -1.25023053674415 -1.0660305356220414 -0.43137300353232805
P 5.263317888406163 9.241141537861393 11.304124241229086 -0.6197600461525907 1.388453556915512 -1.1876429438199159
Ni 0.8064417540294213 5.279144564399665 10.007498604329246 0.7797402554953862 0.03573910527282232 0.9381456641518942
Ni 5.469527174159029 6.440532133680915 6.861725214156512 1.5354376111089556 1.5070544319805723 -0.3156203965493403
Ni 3.2973598313453363 3.121074155667854 5.115981802358641 -0.20015035380377788 0.9641518584076685 0.2990609495287624
Ni 2.3333293392104175 3.1053029794148306 10.224327765422931 -1.646965124267002 0.937223923668573 -0.2538056772353887
Ni 3.2754929335962775 8.205544130377714 8.509965756883714 -0.15064273399195346 1.6430246515620155 0.8638451536661058
Ni 7.842030080191471 0.3830157339951855 2.586847528743979 -1.048120231000524 1.7531892229342645 -1.6923749198603693
Ni 8.620228941286374 0.0911139239457626 13.346098442833805 0.1485125750228281 -0.07019137341342105 -0.23577761608908424
Ni 0.17121114940627585 7.654912705163672 8.90962863803583 -0.8544881379312381 -0.09508890798604913 -0.257193362760699
Ni 0.1207507853620002 7.261817293301672 11.323647199938547 -0.9103039593492775 1.8594068938436235 0.8423743853868395
Ni 5.025168502007144 4.055569535910748 6.588969889576961 0.23351427397620428 0.16282616343202277 -0.588234978961116
Ni 6.7248203043321775 8.93512521881227 5.847561806446148 -1.1764244493962772 0.6463501379362934 -0.3784478733985224
Ni 4.368976570400436 1.3914339935702105 12.911208951403458 0.5849030863744056 0.8697026408881474 -0.5124167462792207
Ni 5.0165660422327685 0.4625727619816949 1.4034422874186996 0.04892500783547703 -0.26471589638998927 1.3663613530021632
Ni 5.827583749864753 3.660152384905341 13.201590993559408 1.2331535266572051 0.15823648717881134 -1.1516469853412812
Ni 8.549836770444436 4.4855075254946195 8.5082868897342 -0.5699994297896958 0.4514903431074935 0.6578301135514348
Ni 7.223402222932871 1.6843061240823558 11.84048298318306 -1.3299295925376902 -0.38093387304516974 0.46278648484660295
Ni 1.476792594428213 8.930213491779805 0.7666558400707693 0.45445508216277214 -2.1750013222510347 1.0623641425140478
Ni 6.344933830704382 8.775424715581515 13.032010611527566 0.4715840285335749 0.3036873925571802 0.38182090363581334
Ni 5.565375225967722 5.721949243818114 9.04475385618211 -0.2480147815852245 -1.8200571884014072 -0.023962681463184535
Ni 1.8211684841056552 1.7449765903835739 13.013775246797238 -0.49875030453572167 0.030802330092837275 0.13984050117012692
Ni 6.966614173689372 0.14444269957717162 8.360639080144317 -0.02073234745134494 -0.7630028881360472 -2.720965565468398
Ni 4.513886392793313 8.344469230755514 5.183185513110012 -0.31262197604264863 0.7335899821915689 -0.6960960990111689
Ni 1.685129370232807 7.631908062734775 5.1923512952502575 -0.16043375194044626 1.228292341910162 -0.37311643388328
Ni 2.8759040520981354 2.2318203138727797 7.43179357348227 1.0777645362295183 -0.6743191123453935 0.6873584620278549
P 8.057489322690978 7.05724524989296 13.507433413421692 0.3928720192436524 0.4064929524611967 -2.022494024246517
P 2.680924213835691 0.9115712124376942 5.547634733923339 2.369502962409468 -1.9637427743492375 -0.9531709339161325
P 5.208280645763649 7.963546761972093 2.842178709799882 -1.183646163955697 -0.08205444339959417 0.812759390733884
P 4.912781527535457 3.8529954831593116 3.8756884020458457 0.8569383992439435 -0.7351632402159597 -0.7170493042240682
P 0.16051727441148425 4.329775253708172 2.6445071341241655 0.04220517261314022 -2.179416420599595 1.725565804790041
P 1.16254381387458 3.672612076643066 12.287191144348592 0.6107154194518192 1.068690856063024 -1.4233894495607486
P 1.8180974984657705 1.1443953987376707 9.101140667513958 2.110402869544359 -1.3907806623867918 1.0894828531077108
P 1.6996148024980464 8.9081985947228 12.124989452813544 -0.23829472608398314 -1.850635832519213 0.3707463909892067
Ni 7.2733612393214795 2.3599692146407434 7.881818769137147 -0.008035211599650677 1.4773234805750428 -0.9928209442075867
Ni 3.5059371060253435 8.411004169634102 13.267562610072126 0.1368441375459643 -0.2700964439756123 -0.9245337297954143
Ni 2.593900620763293 9.10228118718082 3.480209276330236 0.3889672848726075 1.7045899738693222 -0.6134256192941306
Ni 4.974672988127232 5.074433771639755 1.957170598151517 -0.4194356286647938 0.3328809834020009 1.4014857075091218
Ni 8.827668471286543 5.273659340048907 12.498021708492079 -0.5148847482037391 -0.3108538283986324 0.19802790814413637
Ni 3.2139252214906353 7.040114329998182 2.298036129243609 0.45034054577376637 1.6801750353600675 0.4054346864000114
Ni 0.04245545147573259 0.18933273966862013 4.316859539102837 1.8727915426806456 1.965295206438022 0.6977829997952887
Ni 5.469712173293962 7.9223567045793 9.544382869886524 -0.2558005961782304 0.3803042098809708 -0.256717451565545
Ni 6.9697129091994965 2.9048286668448817 5.405699697620183 -0.5012447888228012 0.610677110014716 0.22294395465952574
Ni 7.328194982915567 6.207914221416389 10.672268020827115 -0.1598565392807376 -0.3731534577688025 -0.26939247593005217
Ni 4.302395381738115 3.056213458960407 1.2265174397300236 -2.7534547963453546 -1.6089850454788033 0.51378688715387
Ni 0.411485250869997 6.048861215157898 6.952620839123054 1.1459833592976005 0.3709705911848708 0.3530263480016243
Ni 1.4438904982804113 4.245813396318912 0.9535734160328414 0.7091539606363916 -0.5450157632611645 -1.5660208832124514
Ni 8.799548602776754 8.007928054442477 6.155191317951886 -0.6852609560688779 -0.7432511594304168 0.5366671341861532
Ni 0.4474481577052623 0.6506373325803505 10.745631277776074 -0.5656049002664258 0.42553685646652517 -0.45356445202770274
Ni 0.6231612610601283 2.6284769590822368 8.4435741923347 -1.3016117194296033 0.7798734386391408 -0.6370139481370319
Ni 0.20830810093867935 5.9610606257187815 4.351733726029023 1.654725999159344 -1.760072323207343 0.57299502208291
Ni 6.94357253143349 7.721003646118421 1.6124866849144115 1.1500377318726323 0.3261287522798319 1.4938759856170851
Ni 5.100740648627201 6.988508821308671 0.6056242680641717 -0.8147193426737324 -0.7722071803431346 0.32997640816069623
Ni 8.2059973782583 7.640001774888086 3.704145179192365 -1.341637882113554 -0.2743719314225146 -1.08789828222941
Ni 8.706447788121814 3.283614395619828 10.865485742329323 2.1718704899315373 0.5589354586660502 0.4885587087147006
Ni 9.156772682375282 6.141860280288626 1.6823442082563933 1.1610420534029358 2.4413346996397887 0.09964104613310582
Ni 6.726901544600172 3.7531237001658293 9.926066610110192 -1.0621170595002483 -0.2942396168807191 -0.21873480167418458
Ni 7.485416497738223 4.983081198809929 3.46631954127948 -1.3075160007291806 0.017749610673937172 0.6530404054722753
P 4.317879809331992 3.8388430493369508 8.52154115275646 0.6820365355943092 -1.3627252989114724 1.9456432365350493
P 8.414722652246251 0.8922443528112626 6.60271162531977 0.7546023227771779 0.4093173092838692 0.012946018637706736
P 7.408447607649423 6.742755970463914 8.310778113297223 0.512195117186718 -0.13607692036263663 0.5418021414198734
P 5.352635470751728 4.883422164821619 11.22901459244636 0.7362323049104225 0.018229635634149248 1.3205011001349387
P 2.5624785176949536 5.588398368310111 5.082962231760157 -0.149912026473516 -0.6245487257904856 0.08794638340399692
P 4.950123602921647 8.939111950170073 7.4034581809802855 0.4089673821436183 0.017966611780749705 -0.5848146404256573
P 7.013298705389669 6.780893542130315 5.208854143081941 -0.4756265740340647 -1.549672266651099 0.2853266306618054
P 2.01003410095857 6.515410533544974 8.565648646507144 -0.27510058205842297 -0.33876263899375847 -0.2745639928286626
