# total energy = -340887.9417762443 ev
CRYSTAL
PRIMVEC
9.09034905012872 0.00000000000000 0.00000000000000
0.00000000000000 9.09034905012872 0.00000000000000
0.00000000000000 0.00000000000000 13.30464470143079
PRIMCOORD
 96 1
Ni 6.480082529281083 2.3649088248035004 11.37960881271217 0.5287422229121217 0.24538325749964837 0.6321856735104532
Ni 4.739035263455425 0.36885454469487244 6.014763928496146 2.007055063983627 0.49812835468100664 -1.349173785479283
Ni 3.053420945605796 1.8306962872982064 4.670927641920365 -0.17963115080450354 -0.43443081652204535 0.6717899181656366
Ni 3.7859758071335516 4.628787511232848 4.810959922520026 -0.674798108864341 0.21451536427619827 -0.11212658019462625
Ni 3.8494991656865998 2.7942914580681317 2.637100234766018 -0.20435153636931902 0.7119086405633933 -0.2887883639581607
Ni 5.4190388176284054 4.504613344399041 2.597691753941866 -0.5211065607437347 1.1512561776607657 0.5279325825266327
Ni 5.615217638597687 3.1980393072572624 0.4932432437642046 -1.5711245229876039 -0.7575567774198114 -1.6497745686913394
Ni 5.602972938544603 8.164196939551829 12.36685343534409 0.8793566190381437 -0.42257160319061415 0.4137730310623777
Ni 2.0980343599494082 6.962852782005082 0.03798765928124413 0.7866750349420064 -1.4693651449599145 0.13134146256018026
Ni 1.061589132590455 0.2632328710595369 -0.0605535415468548 -1.0064981845843635 0.2150038738768426 1.0838901895112816
Ni 8.096282942449678 9.065068702477443 6.9164992745732405 0.1990092982207992 -0.031150714571191514 -0.6364791586794845
Ni 9.008344924948677 2.45085807424813 1.4289583142647824 -0.22561507373378561 0.9857614662576443 -0.6164824038425835
Ni 7.068446275558632 0.8032886848782111 4.7593776463647 -0.6010213320925067 0.7226697357346392 -0.1300980770713824
Ni 0.903040720188174 7.709970382571473 2.381571434452576 1.1806240892999218 -0.7991744529605979 -0.028356696765822132
Ni 8.149916001331043 4.084993745920611 3.671430137921295 -0.38230349969918676 -0.7505222391705333 -0.5845269339819095
Ni 8.02685994741968 4.20175927834962 12.411942475235186 -1.6289000392351753 0.24604968743905364 0.3897576419843868
Ni 8.387137747868014 7.530663249277415 9.063856049925787 -0.525559711419082 -1.029551209749085 -0.044525336105884605
Ni 6.954344215375766 0.9195978817892791 0.16171548998097032 -1.1903413165876853 -0.4727525949203794 0.5244022007758711
Ni 1.9993858930035469 6.708922974074221 9.032922501439787 0.7613465834795469 0.7799986513630953 0.18913523364019685
Ni 0.211641504555248 5.243340552872636 1.0378887747742689 0.09151224637838433 -0.34196649064303686 0.9940594446003782
Ni 6.863558900282851 1.9032736334183464 6.86461156269276 -1.8038638664709963 1.3499965384908943 0.5633461861392361
Ni 3.4456058709140622 4.527630107973214 13.405626701072453 0.29494075671280173 -0.34253316177978427 -0.1691652182761732
Ni 6.508189888274505 5.650570005714574 4.586802825512597 -2.0472704598602487 0.5469875422755548 1.2785934041575593
Ni 5.4584818417786165 3.3617837631267613 9.07161193566097 0.8368753099454812 -1.1301931863428794 0.6320018396344212
P 0.5910572166752681 5.901890883493071 12.248069845445308 -0.6361744829548721 -1.2505398404544528 -1.142501828506903
P 4.161616297329261 6.423304209658539 12.40366753057422 -0.15455903832722412 0.4934376340735566 1.113262986246444
P 2.654218270898137 8.58258934092026 1.218856714823857 0.274760682220501 1.5393179199999683 1.4041820233943623
P 6.447802700113672 7.878750891766443 5.433789726890574 -0.03516446371627493 -0.8089284470235681 1.4576308872421218
P 4.811121730731566 1.2325604158854941 12.680895902897104 1.8930320380972367 0.6675771656358697 0.13101621801027757
P 4.3063891949130975 6.502335703542369 8.114556361934987 0.006443698742814709 -0.953943807526415 0.19191562459881142
P 5.037625955841227 1.0906600685739478 3.855260628859314 -0.3444527474000003 0.33430871698746295 -0.8193347299585567
P 0.49856564308200796 5.906036082620171 3.49876259550977 -0.2938760628937132 -0.4737334707764099 0.21535277257582913
Ni 0.902274403770598 0.36706101884448367 4.642868461776447 -0.7531532490354771 -0.030856580369540403 -0.9644732463028293
Ni 1.8076795237240337 6.781691217522583 5.050456074367525 0.5484630983798168 0.8437411838273792 -0.7856067415784922
Ni 6.640718085805256 5.703975805871867 8.925074601343427 -1.5952990633512782 1.754346476467159 0.12598611178553787
Ni 8.733552766147861 2.7674658382784854 10.40330078891757 1.2146528967498564 -1.1026643847949913 -0.48832988053334614
Ni 2.598958039552404 5.410902955306572 7.091681207507915 -0.5636580609527002 0.4772417410399845 -1.0726303003267461
Ni 0.493250516043375 0.3880242725879275 8.99409943908885 1.1640636138380793 0.17026127955382933 1.2811272263230065
Ni 1.7521920336542272 1.3452807430259923 11.36968396971443 -0.4342523819626521 0.7041626780693873 -1.9618692114756087
Ni 4.468606472156822 7.3635917256874786 1.5524788850081535 -0.20739855072575897 -0.8021322500373412 -1.6671626822607999
Ni 6.193736536948367 7.939438061443052 7.820523570519206 -1.2275225536236731 0.035798754866164156 -0.4559198396337567
Ni 5.4975612519703105 3.0029240571166453 4.922971202441415 -0.5509583539978447 -0.6080877520209851 -0.6097921363066015
Ni 0.8661602654106164 7.862915503872996 7.129946122432529 1.3601500819851284 -0.9829741333204942 -0.5535837074358337
Ni 4.936695811305667 4.590562593843671 7.1456451550915325 0.9053203900917568 0.468714934515896 -0.7662705031437254
Ni 0.8765832595315274 7.822817974597452 10.982052400201702 -0.17103209628158286 -0.24136770858235204 0.6672588630645025
Ni 5.050725148696829 0.7035411947427296 10.508899736680497 -0.4671661019715374 -1.3712670178338966 -1.3871214683676498
Ni 8.230838287799166 7.820654471544271 4.2741439090717455 1.6179846778742522 -0.6626316487051362 0.4682881313911225
Ni 7.840744142752377 6.263150441629403 6.520552762864107 -1.1301633615462083 0.7697602614645388 0.7430791526289267
Ni 2.783737562922154 5.420620538347958 2.191846761246984 -0.8527616421584346 0.9665733233649676 1.0910134308196244
Ni 2.6912159911773164 5.427174679950239 11.227058212555642 -1.4532633543020457 0.5505415781754002 1.0222904144216136
Ni 1.456573885379308 3.5341913215579455 3.7526414974864384 0.0311964802074624 0.07605837371715932 0.04596309699367568
Ni 1.956624891481861 1.2257971962570642 2.3236559121747673 -0.7153058391704004 -0.19425430003431707 0.42202524376884093
Ni 1.5296057489475954 3.5193195106545705 8.173841799801512 -1.804800519352653 0.824598035240025 -0.26140277285635627
Ni 3.833427428720116 2.3566820589920368 6.98069440991465 -1.058160131735029 1.7447626894334662 -1.2153321822050682
Ni 4.318933876481959 6.996387079329379 5.901235469332842 0.39594577307296974 -0.4746716663199631 -1.090599226100341
Ni 8.616305445223817 7.525499931066463 -0.27022698555162555 -1.1062186778051528 1.004913613706063 1.51053262033716
P 0.3132561523677181 5.725029054070044 7.857164040084141 1.2639771969062812 0.42824371387472693 0.7857039292779887
P 8.760287482447877 2.020702761321649 7.985567037255509 0.26692293134363704 -0.9040191547818301 -0.1618864252265728
P 2.159294221610684 3.4217164338394475 10.463504352029352 -1.0273050940273856 -0.7730862405139783 0.19046912196027196
P 4.356786089563656 6.2325068752753205 3.440780713684532 0.5305746481351701 0.8742797187358684 1.295690468849162
P 7.119097699980152 4.200159376932142 10.313933568262874 -0.42901350216121603 0.52534399586385 1.3551819393465758
P 6.355244766972982 7.757431094507 10.013408449617758 1.2242968475975236 0.928752138752136 0.86945607209498
P 2.669753677275807 8.85841779950285 5.7337294270624755 -0.8199430529665169 -0.9562457161867146 -0.9589471742782775
P 7.16174052696532 4.142408389970562 1.455288510035948 2.4060542791709403 1.1483883691946672 -0.036340486302247094
Ni 2.960772108975477 2.0206209481809827 0.1880665935547506 -0.34351300919455036 0.20613999572830952 0.5126540591010075
Ni 1.433793470878172 1.2982654581896491 6.772542690326276 0.7549990439949642 0.37350647023284705 0.7344358751316319
Ni 7.0772730044016505 0.931669865212068 9.185286749442577 -0.35591935327870317 0.22914057038854088 -1.2831373147744998
Ni 2.769111191440778 1.855131145310598 9.009200326786091 1.1377054355595246 -2.131624755037613 1.4604616718226975
Ni 6.489836473718322 2.276986969633912 2.5433687375742124 1.057903792749849 -0.7354946554134494 0.57331512442649
Ni 4.234339089032808 7.331866407806806 10.405509743715564 -0.3822988717134964 -0.3695279452010733 -1.3683647565854369
Ni 7.190893276089479 6.36935298856347 11.564730133202927 0.6025606515551687 -0.1102584166376359 -2.1290886188793205
Ni 7.964936490284109 3.9378119058615955 8.317385682205558 0.35635001305821856 0.19831355770535522 -1.6733724106159373
Ni 3.320204506970258 8.849618341706723 12.265326054881665 -0.8098208769308505 -0.8035355581427709 -0.08301757864381186
Ni 0.5025044912876513 5.097231373991247 10.122187201447923 -0.6953275962762606 -0.006876672515175254 0.06400427076610267
Ni 8.832310317281278 2.7182779600399987 5.801916134633515 -0.29905966397718176 -0.7648047172314764 -0.8676717265010476
Ni 4.0793395488656605 2.7127782989174185 11.320855160259978 -1.4100194560117458 0.9250242962785875 -0.34801501082996195
Ni 1.0847240707011458 3.475994907497182 12.541277233175254 1.524461057492794 0.0331929418122009 0.22370063031989215
Ni 3.516501502476058 8.514802608703592 7.6585662772558205 -0.9897523325845923 0.029181763770278774 3.2139314021118586
Ni 6.094660823601247 8.207876066318772 3.15846901822157 -0.6856913587380772 0.3065040360703689 0.1805966000415664
Ni 3.475785829471034 8.460969562145042 3.467789049488333 -0.36384503588368305 -0.057301147714314216 0.8436177708756375
Ni 3.556444495819231 4.605843470450378 9.298882477188208 0.36477680366933307 0.4364637877916741 -1.2314388579589437
Ni 5.266584575170882 4.735699105386025 11.539849848091352 0.1107268716336222 -0.5870543283894535 -1.4243055336171146
Ni 8.328841339968658 0.015726303705892064 1.878469707238059 -0.726635919471239 0.4490133423219106 0.4110949700095824
Ni 4.7153276333600695 0.8288443829177338 1.574352082682788 -0.31617909726628773 -1.0120921337323732 -0.12069992368593406
Ni 5.962578053169679 5.774580546267048 0.16120188526456403 0.3835360865547072 0.14103657836075711 2.0534542200734576
Ni 7.911748858501927 0.18904016992868186 11.135508399114942 0.45800731829040475 -0.7819123234460404 1.0974882399106907
Ni 0.41138192424821046 4.891744035683911 5.637510810394409 0.32625705032758007 0.9722220370103127 -0.049877344446417324
Ni 7.4875659048441 6.268695554496798 2.659385225248674 0.8541657215948129 -0.7840699932189916 -2.5955844342567103
P 8.475723198511897 1.634190213766259 3.3810425764396532 1.4061041801177396 0.3801861962458678 0.5816771232379402
P 1.9374078937741988 3.56314408300492 1.5998432392446738 0.22339955413970558 -1.33472392860254 -1.3804695102687707
P 5.147782804574175 1.407931428078598 8.185110196375977 0.5194394574539569 -1.6530694373925272 1.255974638316779
P 8.504894128333984 1.8834748533770556 12.47072248969937 1.4665911817592032 0.2569269964731898 -0.3758199488573721
P 6.692869417805664 7.668845643863117 1.0503307353998494 0.7911783221289987 0.820367284988129 -0.1774192307548493
P 2.0644182494844436 3.5334822743388363 5.980716935490338 0.9653710755267502 -0.956526737762243 -0.6384388535090165
P 6.893347973834416 4.048414181693728 6.065414443882769 1.300725460169908 0.9438506849564712 0.379232831193663
P 2.4987369422359533 8.768268808837343 9.952406753867029 0.4978146800953297 0.9621895924749753 -0.24995236492756953
