# total energy = -381171.86943195655 ev
CRYSTAL
PRIMVEC
9.19854951110395 0.00000000000000 0.00000000000000

0.00000000000000 9.19854951110395 0.00000000000000

0.00000000000000 0.00000000000000 13.46300701313191

PRIMCOORD
 96 1
Ni 0.6752075530731749 5.416961291486958 10.16889138498863 -0.09729285761590341 -0.17909636134695608 1.1844617178784569
Ni 8.441131549847986 6.411287676355812 6.3330383770462735 1.6662504548591754 -1.2846067002311747 -0.9573191517565512
Ni 2.856407116272162 7.1904875888026725 1.0741983082744821 -1.759150839834338 0.42222810380826636 -1.4489205039523174
Ni 4.309621529948303 1.928199903754156 10.14006773076473 -0.6155614346902109 -0.05308633830201825 0.07637847606073943
Ni 6.165989962237827 4.87858859819947 10.614032181870716 2.0224893962608266 1.345565242192418 -1.8548077045087155
Ni 6.823943796393572 4.717494404351332 5.890590915398512 -0.5167361995901809 -1.2354209825351432 -0.05354168067188199
Ni 6.047871390707882 1.2430919520720192 -0.08145131432001859 1.3769717815281577 0.9397770291077299 0.9473725820668008
Ni 4.086851063060038 5.9621133156067465 9.544046809174516 -0.09225169564757016 -1.045623432720599 0.777670517450551
Ni 7.533142748686014 8.17263509440156 7.634063712449244 -0.6203154044354284 1.0162732616932562 -0.13773451057071762
Ni 4.779952554081754 5.958084351014415 13.263955782640869 0.522694474056145 -0.56979991218438 0.43160183171368244
Ni 1.3894684670440631 1.960118869816683 6.5546130325258565 0.7285272229566808 -0.3788667061034959 -0.319008853405599
Ni 7.406285555323389 8.939573340634775 1.6549533174504698 -0.8861463882664674 -1.2271787971310093 -0.27237804092093737
Ni 5.318895557425689 1.339391564668156 2.4627873940056983 -0.44032301363676424 -2.1113675474504734 0.8253670521955655
Ni 2.3826174376028297 3.2300797843868696 11.528238282502908 1.20571419949933 -0.0263095844288063 1.0068959342434143
Ni 5.930783056699263 0.8510580597044551 8.824556519927967 0.05364195369517213 -0.4722931387854576 -1.352518790692116
Ni 6.420615005343537 0.4193958971080806 11.08110507984297 -1.2427020895775889 -0.5499242563063754 0.4922017047839265
Ni 1.6238291060472516 2.9361033473862057 0.7954914631077654 0.04102555048274224 -0.2293017785567535 -0.23344099753610764
Ni 0.5999266256219584 0.344540862489341 1.7970285907709755 1.7633867322925565 -0.2707446190825724 0.9964338583698258
Ni 6.315447991224553 3.06858085436964 1.6772754370308542 1.484933431711817 1.0579109918387006 0.007850606392670349
Ni 8.36490317181912 1.7393996794217734 0.7673788567445678 -0.6501435435404544 2.285476739995483 -0.5702184877790373
Ni 6.600924968674273 2.6572217297828358 7.20631645243391 0.8943170970027179 -0.41895791769742685 -0.5381817710584667
Ni 7.985463013294844 -0.12054146941492205 12.746196118474279 -0.13296459998590004 0.09615205914324086 0.23797076708566112
Ni 6.237232726547415 6.894597853548116 5.950689637234109 0.14158370911347873 1.9131648042913694 -1.1980299434811947
Ni 7.943646408188145 1.0054382324203046 5.92243077393708 1.2627680070895286 -0.4426817436769279 -0.4887939646539582
P 3.061994693072588 2.293667465895442 5.04242120017349 0.19673001526831924 0.5075789585709453 -0.3416885543913019
Ni 1.9288713978528775 7.299738758809772 4.7044996137586725 -1.5546445230547097 -0.4403371547041513 -1.9733147343083888
P 7.6518592259203 3.979218837729309 8.803352024087234 0.002520452429008562 -0.5693209156654324 -0.08621808785898055
Ni 3.134470062988049 7.002432446963391 12.015127615226893 1.4285026024175977 -1.64550885143645 -0.3008735772574689
P 2.5565160120731685 4.3743425228059225 9.69625980367586 -0.14413450055979046 0.15639789130817583 0.19595585610645608
P 1.0851712577315393 5.202763872544017 5.701569925882988 -0.049984816558559075 0.09375553388660628 0.3296347085505613
P 5.536027313594551 5.545685790356988 4.133022261404202 0.37673680424468664 -1.0676063647495937 0.05816812370029983
Ni 8.811032812750694 3.15978447065493 5.430451883886756 0.01691760169094506 0.4429748494373146 -0.8291923394789268
Ni 0.8230429579638117 0.9285107646448252 4.3812524730382485 -1.0826097801369614 -0.666162287566214 0.27505404509120374
Ni 9.07099301444899 4.168028260610989 12.377027060095656 0.8076128135359381 -0.3667218432108459 0.26596390986447743
Ni 0.2611219784745747 3.9888221231959604 7.568283046712546 0.8140593404922304 1.6520206844130387 0.37810411690585854
Ni 5.142071844278727 3.4769688475333327 8.703712418241155 -1.0422614582269019 1.5655637410703747 -0.24306103712437493
Ni 5.419371311402918 7.7507804250662415 8.8026924881026 -0.3366257951564138 0.6180672318312 -0.2455200401878288
Ni 4.470292590528753 7.933849953186246 4.524014877991282 -0.005132436130558902 -0.02492118872171192 -0.5020377170377418
Ni 1.8825475035903745 0.9031623223455439 10.186016324215894 -0.39047343710448884 -1.853883135811917 1.459282821023248
Ni 3.8129090664294565 5.628297961598358 5.3625711893454255 -0.6148381833709412 -0.6737514127673816 -0.6575457495417966
Ni 4.643096537632681 8.529814763625746 -0.28967427549419544 0.4670879404354342 -0.42987507883056286 -0.09812306682668262
Ni 0.6708318031723266 1.6839784199039851 12.459891271587779 0.26795317238036437 -0.7410320402919109 -1.5590544791969472
Ni 2.329247454578397 8.980184935783495 12.375572769451713 -0.849299394641447 0.9926970170352131 0.3385888324200556
Ni 8.493655266337043 1.047199646231219 9.92469933649621 -0.5884586649361478 -1.3447347758713228 2.223328805711829
Ni 0.19478296079551452 6.7776566963282585 8.39271682533015 0.5429799637780585 0.32528440200166553 0.32790821277775783
Ni 7.634832711170519 6.025932850633206 11.928466242584737 1.4754095513817815 0.14112553853013757 0.25974518264827523
Ni 8.645320947155184 1.8355429166798518 7.913986605833098 0.40884962561883137 0.3277521468158678 -0.6131931915683504
Ni 0.6698319208636819 8.502531866409187 6.267339578398323 -0.8099589451706115 0.7760939169920504 1.509259410051691
Ni 0.6894478272407248 2.6967662932130385 2.9580648838341266 0.8107703853283132 0.9320986866268657 0.36763201372994103
Ni 4.80637078766434 3.837294420617283 11.704374864017343 -2.493171224695106 -1.58220572050243 1.7268624121142777
Ni 7.402532547209984 7.505988631159622 10.239882109047466 1.186187442320312 1.3428424439446163 -1.2172486825014908
Ni 6.2318423766590465 2.230924161136797 4.798687239436091 -0.16407212002398194 0.4892148542414607 -0.5330889299165915
Ni 6.8450452684821705 5.952979156154271 8.612648619905187 1.1146341555623578 -0.6612368252401386 -0.9845396780354011
Ni 6.6634015155032875 7.11319217905529 3.2229095152094227 -0.01723976091705418 -1.33256882993275 -0.5136773581591992
Ni 0.33065657217960664 8.551661318207447 11.177162770592583 0.32104028201333096 -1.40957156984105 -0.3676494972314378
Ni 0.6861575061569882 2.9004037775623828 10.080224728599607 -2.4091318896549994 1.3913697021210425 -0.34694106103949285
P 6.693204815227377 7.382424518445522 13.206145659870506 -1.3859711568132904 1.149251488525911 0.6922957514284722
Ni 7.881455016387354 1.600538379225834 3.0043105904276004 -0.8574351363747038 -0.08244447974916125 1.8321596280918961
P 8.694091655530837 3.8861387173873174 1.6601100241866809 -2.106920567422713 -0.3588496395516207 -0.23861688531009226
Ni 0.295733359916497 7.5820882294983205 0.452394772858141 0.7998095154414354 1.7491718742447555 0.466665508186035
P 2.646367441611717 0.8631799079687773 0.6847915215863009 0.37517743017736677 1.3249275113374084 0.9394998641869433
P 4.3800180277225165 8.107564556670631 6.916862022267927 0.32907677916456224 0.6872124233682939 -0.1902418364408143
P 3.4403954155262406 5.125082123726139 1.3371940312409694 1.1060502705480888 -2.0644703686783026 0.13613759839724296
Ni 2.4594621184346313 9.129734950263195 8.010784779801162 -0.2239988782866013 0.009327705158829096 0.732652557978964
Ni -0.3227798544161075 6.06407923457018 3.4863670053506475 1.1908766202658652 0.45089153318122993 0.4435052680194878
Ni 3.237024689106526 6.15712256071498 3.1683970723622332 0.8071934666103324 0.14053752723715152 -0.6306939194562751
Ni 2.429152898499177 2.3736304549391156 8.760014898781648 1.25060643202633 1.7139865845928741 -2.5605336133001644
Ni 2.904874272520996 1.1020138014953684 3.1188270100526214 0.17564362691166524 0.22237162709582345 -0.9009150619352096
Ni 4.116166839671356 2.8536751471307866 0.6586667217263058 -0.08815695675290625 1.1002208083505052 0.9771269305110978
Ni 4.600240496455358 3.4365780175677543 6.274703936965948 -0.06446115579786318 1.5733649822823483 -1.985928052197025
Ni 5.885746959338418 5.372044775266981 1.8534653701312143 -1.4402651422701647 -0.5473582953514122 0.5276513038407881
Ni 4.63643678794125 8.04518919388389 2.002582132939001 1.5724758948091757 0.7796209563087025 1.2455081915678163
Ni 6.691291516973485 2.5627618270462103 10.176713831311273 0.34024153753213016 1.0345430065367214 0.6519037207646708
Ni 3.055252156437478 4.673902479230205 7.586175144951226 -2.3942439167995735 -0.9599105666328114 0.20710441652410783
Ni 3.9947643860421826 8.799461037734368 10.401384718484415 0.6904748961696495 0.7608557598860574 0.3302175776372248
Ni 2.290889504007579 7.404740199041398 10.034019495623042 -2.201124244590332 0.1489208662048403 -1.7702724036687965
Ni 2.746217694236712 0.1993224448738595 5.48287717589833 1.3026388751425373 -0.1343589092302654 0.6703405873136197
Ni 4.382685607018808 3.5499225420122666 3.4246925720203794 0.9425209104014541 0.05311873420185046 -0.41280526783246974
Ni 5.855207775670524 0.18673239045029155 5.969496991127896 -0.2576345640631757 -0.23225006255180003 0.28363510189199537
Ni 2.1481832102052607 5.0824928404784435 13.111500866293 0.882966447876589 -1.1105962380475585 -2.1744963575901584
Ni 6.766167708255609 4.221619008818564 13.153855586533606 -0.2725683025548725 -0.6626655872668652 -0.10687458776706756
Ni 7.915388464746046 6.298265101136715 1.122027085202066 -1.050997809658635 -1.6200862975982873 0.6929791506487419
Ni 4.2145085302115515 1.5087460557855006 7.147173459870331 -0.572743053973104 -1.2824611146430815 0.9657294873074336
Ni 2.274368909469165 4.189516071770086 4.088162776189869 -1.7482524477542796 -0.40401903699940744 0.7671549626312077
Ni 4.133524502195849 1.4601041271000128 12.33624713149479 -1.4831156617767878 -0.19488087787472244 -0.7698157972928226
Ni 2.591047366136202 7.052739313071738 6.805374684926591 -0.8195105934147887 -0.9273917680694995 1.6721565359309654
Ni 5.400229130314699 7.120247466366518 11.302557394616896 0.6887345164397751 0.03863750986653991 -0.41791456403457705
Ni 4.921564220517662 5.765650699709498 7.3014864831763076 0.5692692364918905 0.3017017295857191 1.5142470930742695
P 0.14286450885023635 8.926437812237861 8.483175359122336 1.5919419739535876 0.20220697922249045 0.13894421460810266
Ni 7.447844601049756 4.206229835843748 3.623191746732107 -0.4946869330996254 -0.4889353753278289 -0.6504747016276281
P 7.760273327941321 2.3895531437731887 12.058545687766296 -0.0421915457663854 -0.48733203539645104 0.4957621684416752
Ni 8.21798394243852 8.169406403598117 4.607499071706061 1.536997499396908 -0.1735126966115915 0.7205020386593591
P 6.563707638216353 -0.132185912970701 3.816116600569515 -2.0394033984073454 3.083189006588258 -0.1867723898349751
P 1.2214293684762692 7.500589082721955 2.5439701106862285 -0.2213033337323092 -0.3476283169145046 0.8238896963190907
P 1.0471536534847312 6.721002831204597 12.259050146224894 -0.47172775320029076 -0.9428155588237375 -2.6342368565215857
Ni 1.0041136413214562 5.288098814377464 1.509445145532115 0.28734494664341487 0.971220849439308 1.8409908532302812
