# total energy = -340864.38756304985 ev
CRYSTAL
PRIMVEC
9.32738641344215 0.00000000000000 0.00000000000000
0.00000000000000 9.32738641344215 0.00000000000000
0.00000000000000 0.00000000000000 13.65157284273781
PRIMCOORD
 96 1
Ni 4.201940974535046 6.0681178255103045 10.25914295964202 0.45806259700837243 -0.7694033923457523 0.4955865620957594
Ni 0.9274929263353113 4.759578775537449 11.198644896076697 1.5940063126817838 -0.18633658784913715 0.046454434807797415
Ni 4.40100605689673 1.1175328295341633 8.552082927452076 -0.6269102840441269 0.7719462133722641 0.9820007136636312
Ni 8.35368195500812 5.908227766385387 11.649528893281616 -2.065131142190753 0.5582605440862127 -0.29128439090713704
Ni 8.407640885823524 8.287093742892102 4.942169827889424 -0.6848583213138205 1.6104598302521167 -0.3415180902517086
Ni 8.824854883295089 7.119472847933788 1.397525115255171 1.6816050829383749 1.168458657581981 -1.7362952753924035
Ni 4.218599686797156 7.733392098986346 8.624544594837664 1.3130688122266096 -1.1883654238082373 -1.110347612371862
Ni 7.701287234705166 1.8311245325648378 5.513992718258131 -0.447842461942261 -0.9835037805717192 -0.5292430738079401
Ni 7.4552774161647575 6.269570718812135 5.517979243241797 0.033049474255801146 -0.6555004369769936 1.529630003288243
Ni 6.257267896038494 5.539721381138202 7.951577390903518 0.5042650637063638 -1.186671838155898 -0.8992237902757158
Ni 1.1139790952833994 5.894339287909305 2.63173702054545 0.6213705851728202 -0.2804204516094397 1.0603000608961675
Ni 6.103216780853152 4.201129491910855 11.56404246340845 -0.24105300555541065 0.5356129818900259 -0.5868275570906281
Ni 2.425027212220705 8.392567829263854 9.664044509038783 -1.7349143358844767 0.31152077255866994 1.9230154718332042
Ni 6.008133403025627 2.7531273592151106 7.548132481361027 -1.0368549424993498 0.24560745769531248 -0.4489099839748269
Ni 1.223230773181554 4.717540244649805 6.638595706747883 -1.9235278926932486 0.21454981705855955 -0.45423088196710804
Ni 8.770084469855496 2.022858289149356 1.1603986996030224 -0.006406160636659935 0.6140766226145682 -0.8030460201008621
Ni 6.878247978660154 8.74245675108709 0.53569605703522 3.0951230390216824 -1.6117528380319273 0.2860349695827396
Ni 2.9814990899124902 7.096042453083607 11.98524858229557 -1.1097038081402761 0.16652803776364225 -0.22886083436459292
Ni 1.3497008065309155 8.082740032393454 4.191346928965446 -3.8313892824938343 0.6087685801380934 -0.6253601659481876
Ni 1.4736244633698872 1.4715537835702295 12.91669538776185 0.06793857282350235 0.9738431175535035 0.8800438749131555
Ni 4.0569374242400995 4.861890877890804 12.736917475173735 -0.10044605853290442 0.8873095553366332 0.25065761852471025
Ni 9.087719289213792 6.294465513340452 8.19430210392393 -2.3649084010602497 1.2794729785490353 -0.6262667369228568
Ni 7.724661665236437 0.4868336101951901 2.522032964402776 0.14443429118839643 -0.9031979444321155 0.9213429907722583
Ni 8.506874950636847 8.224749491626735 9.765980717716795 0.5473685797640573 -2.768563626962335 -2.0177022592848286
P 4.182138933027509 1.842699819192654 6.355012377230171 -1.6076416440770314 -1.2913360485352086 1.4984270953228775
P 8.75018915448311 4.964268271949554 0.9283892881765146 -0.3177536408422592 -0.32123028653695 1.6059804543245246
P 2.2551755043298667 3.5523071606316354 12.733027022270864 -1.237116110849379 0.9134340203378267 0.38304114919615967
P 5.071785055961509 5.398057035204866 1.5461225075627665 0.19501406101847704 0.9251569652017099 0.2703047033316764
P 7.425672291461543 7.552832551410791 2.789452865880727 -2.606893945732259 4.525106339749865 1.7703199690772802
P 2.651225661867093 4.710572686945551 9.322482145130657 -0.1138510190849007 0.11673399705965058 0.26369362577306193
P 5.6274267962561355 5.310799334638211 5.731667802134577 -1.762289899683952 -1.0097938246164997 0.3413985339547088
P 0.7235887958652379 7.128790907032247 11.279694288198975 1.2810940590922257 0.5489289822726418 -0.17509546771767912
Ni 2.5619905553656293 9.24593041877142 7.2932028831250655 -1.2828056424666938 0.22082690831652294 0.07049887735151085
Ni 0.4439490853533611 4.266701018900015 8.736105733629492 -0.3744945451777293 -1.69729935374518 2.0564390137333937
Ni 2.390422608361561 2.8308617981806377 8.140010185411013 0.40050408186761344 -0.5037999511444872 0.12075494529358559
Ni 0.9138413634759467 2.6966966709811966 4.573154167340162 -0.177092700653366 -0.41401060099448056 -0.4478627736572352
Ni 8.152182424773866 3.010581880972547 11.023194890817596 1.0806328589162486 0.665406640347112 -1.591301769266427
Ni 3.3103547552121766 0.1528049763509538 12.280941657686686 -2.0561901309473813 0.21281483664532383 -1.201025278664093
Ni 5.843990055663575 3.733948685039443 0.45859961130526333 0.7941759713047419 -0.02393902731410071 0.019958445399797888
Ni 1.0605704802706077 2.439727173320978 10.58196194040865 -0.5540495913286588 2.202108462880472 1.347364757295002
Ni 0.46324371703611716 0.08326931010569301 11.139533516967012 2.4466545691908057 -0.4713870820314204 1.1370271785455774
Ni 4.974248575488446 3.9364555730140722 9.191549890086899 -1.1416934736729951 0.09826422039023722 0.9644156535920165
Ni 3.85290084488194 2.470190417580806 0.17574381793337768 -0.5340009002078997 -1.091618668503791 0.7312374227989923
Ni 3.0570789025999954 1.2900801521191505 4.490520984992742 0.26094254539048606 0.021678770525014275 -0.4277037822108569
Ni 6.9268529896332 6.300407058531361 0.08159597697029397 -0.4122231700767546 -0.8646789624213108 1.242342135135009
Ni 0.9229262379122825 7.97520459360853 13.379811319603125 0.7191943755915292 -0.0797489351948691 -1.162080007749147
Ni 5.606011116886703 0.6998356734426784 3.6790719393939213 -0.8021618177236959 0.4339523342237301 2.3125954505891464
Ni 6.396162008185801 7.1206947355633154 9.579813545386493 0.4950569148445345 -0.9729139208710148 1.7979415874492906
Ni 5.821054012297097 1.1403382894898526 1.2051169886277917 -0.5533304537744471 3.0785677057661625 -0.08604916638128406
Ni 7.994185825105392 0.9566447400553567 10.166722550655948 -0.6983165037012554 0.8093349384333673 -0.6618577466535892
Ni 4.771583121943572 8.986815622219664 6.755795250669858 0.749230002721671 -0.07115219466479358 -1.4206124010362438
Ni 3.8971033294340915 5.613715538123266 3.8465358363446143 1.8055129720386454 -0.5981270412638473 -0.8911746947189942
Ni 7.231168301090997 8.992934387753788 11.831436248204245 -0.7724673759830567 -1.7234870678841416 0.35722393102273964
Ni 0.601530616323255 1.1278955559189365 8.735286789096113 0.5019536419643678 -1.4261032489474859 -1.4821317005969636
Ni 5.788958475402403 7.303063796116949 4.6333027518269745 -1.2614873406048919 1.856561196864712 -1.2490851102857974
Ni 2.2295718284286945 6.210677600546195 5.2112695916733145 -0.27284109660028494 -0.423183268632684 0.5148235559485005
P 5.914449133170844 6.485686263668297 11.950682220721015 -0.9991443153224534 -0.04209204407404364 -2.4125974796060965
P 6.696261340952404 2.451386406427158 3.1816079068218404 1.678881770469941 1.2784041709648886 0.047751813462982275
P 6.185335091466602 9.165556329430656 8.94101535636264 0.5282341729274516 0.6283966387816662 0.1893622620493384
P 7.438767942086406 4.328560246068166 9.579650316123006 -0.9121813788776485 0.9307722545059584 -1.234646052042332
P 3.4531197327507366 7.236885989006268 6.680356281518276 -0.002173096391918838 -0.31997893062835214 -1.297486127297004
P 2.238367553883997 4.147683567352124 3.4939699546001988 -0.11120998191762782 -0.6668436299039547 0.14610885067734194
P -0.08760747755984066 2.980221237964053 6.894985973707388 1.5150364217447843 -1.4966201240211257 -0.4665868324292997
P 0.4088286770215998 8.47058208982393 7.645849913131899 -0.11280355165699282 -0.3233571030719657 0.4585297664527781
Ni 1.9648046356670614 6.621660903845817 8.125047192011865 0.5153118084388286 -0.08266045241470925 0.2758366888934991
Ni 3.1985380460306625 4.350535568626696 1.5047173062174497 -1.681015528983492 0.9707356822727733 -0.48200033877089243
Ni 3.4725393514123906 4.939140292759115 7.250090770053004 2.2770455785089947 1.3764426484975651 0.39269564156678816
Ni 3.7559146802114873 2.749368422461678 11.43706968392755 0.39189937091773797 -0.9033540103940055 -1.5790556049092226
Ni 1.3310367061745416 5.346569861807973 0.22989769112631658 0.40317828626566693 -0.0625999342194083 -1.5521184141987463
Ni 7.25245339704964 7.754826433128748 7.397815118985608 -0.07981578387706253 1.5308821305277893 -0.05099474588031217
Ni 3.4085534801256716 8.252479811646474 4.409840024636621 4.048956546222478 -0.20680668277803094 0.6102842454516715
Ni 5.451810763517601 3.090051213824274 5.349177799069163 1.157353291697439 1.4087367326445803 -2.365450646716965
Ni 8.145102938431792 4.127219281404156 5.536900779465155 -0.41907361733968473 0.49779205438751045 0.8824175173516545
Ni 7.217802156258071 1.8819121519753603 12.772247749701409 -2.117652866238553 -2.6758267641482303 0.21796192806390202
Ni 0.6164824168586208 0.7979681739121304 6.0085074312236735 -0.14673877095185697 -0.28069967341275526 0.616399357210474
Ni 8.034815920633811 3.7881781100629106 13.056418704567669 1.2728300193112208 2.88953377359052 1.2213130823788514
Ni 4.905002058224218 8.626414735827897 10.64534619526709 -0.21711192135878093 0.5414146761734675 1.2699974349584322
Ni 1.0497413845615873 0.04183239564632732 1.6250965561921427 -0.6865097408743144 -0.46168708113483714 0.8850737240275789
Ni 1.851887294880324 2.1903035313270784 1.7521933899132927 0.8027565138849014 0.7222935833421431 0.8180509781501266
Ni 7.931048745988803 2.2944438014314827 8.38123318920735 0.2505884558496716 1.0837405513072949 0.4567503059548521
Ni 5.028795131652401 8.155176515835533 13.118233160280694 -0.47094870894242113 -1.3790266071746573 -0.14456593167025425
Ni 3.193958299266555 6.797444829541081 0.7163134344069813 0.9898644326824243 -0.0006841705512181766 0.4273302009215221
Ni 4.763244438426033 3.23677100323245 2.69518936532523 0.16410914390950446 -0.9129118292857697 0.8567797621788922
Ni 7.479640549663432 5.623238799724395 2.5561749298922662 -1.8017254799717553 -2.972124806219875 0.1690027245563799
Ni 5.135239266218587 8.364445759011746 2.2368649119212725 -1.0301857580092904 -1.5575460129722207 -0.4826906799696978
Ni 2.8456643605322447 3.46765180089428 5.662863402989736 1.238981446192892 -0.5297382682768038 -1.3831275167169081
Ni 5.974592121225767 1.9573240717061362 10.310364302524093 -0.838022536176047 -0.06256496721641484 0.41601966100470933
Ni 8.485254068764748 3.798811330655747 3.3988455362721415 0.17072202124033178 -1.1847892764212047 -1.9731910642463306
P 0.03574814144219806 6.278133259605314 4.9522443380318135 2.7115157329094077 -0.9507075599773046 -0.8561313299616159
P 0.15708997770213728 0.6190922195971084 3.766155217833308 1.2485078976260886 0.9354236372350406 0.21289376951237526
P 3.8673769487065734 1.0488739376184872 2.0419747677502493 -1.129536526595487 0.4252440078164547 1.1617907586435023
P 6.546146382863707 9.279359771933462 5.765864799204329 1.291303652635376 -0.248385791771398 -1.0770137741064227
P 8.909277058370321 0.4554814660033464 13.089919878605645 -0.6041935591729014 -0.3218278109116328 1.6328327986306783
P 2.5542115150371854 7.890437305233355 2.409857150841592 0.1092474588746183 -0.09893604964628122 -0.3853674833364911
P 5.097939047665294 1.04088036740089 12.700986516956432 1.8886650193777925 0.5443557610796625 -0.7958492452421068
P 2.4540167294159123 1.1574167341437858 10.006138533976552 2.6274440019694687 -1.0801644039202623 -0.512069390242131
