# total energy = -340885.61585858214 ev
CRYSTAL
PRIMVEC
9.14349555215408 0.00000000000000 0.00000000000000

0.00000000000000 9.14349555215408 0.00000000000000

0.00000000000000 0.00000000000000 13.38242997927251

PRIMCOORD
 96 1
Ni 5.249189210078949 3.1424547476847766 9.701445086069748 -0.6273175467848745 0.2453955987948225 0.032992138655304475
Ni 4.99142493440556 0.3578444033518347 6.712439219362358 -1.1848491831248626 0.06659671408362723 -0.36421527473890825
Ni 3.778768871790429 2.4735166323903526 3.1643561619489198 0.0014369895568426864 0.49186206205632066 -0.4948856793739928
Ni 4.997523645762878 4.384900317949296 2.776760653627908 -0.41586668036661284 1.12243282567117 1.2622321891907167
Ni 5.233416680706576 4.905055477911969 12.346041087052452 0.6076532355867277 0.39930260536034456 -2.002817628863512
Ni 5.884954724467303 5.665218245698089 5.110990764892973 -0.8564966837208347 1.5369982707278562 0.9406409197699218
Ni 3.4255739357927117 2.9256259004172533 7.512856225155364 -0.07840733356531013 -0.8256241625116942 0.6023143398723176
Ni 5.413982425660571 8.451478990930575 13.12487121481923 0.8684903657476011 -0.45774403732668906 -0.023778333366520337
Ni 1.6948657171312238 5.534219388702146 11.697166543469214 1.172257462502781 -0.46457828663970313 1.2380766749904355
Ni 7.991680043366186 7.647464019741611 9.596553651170582 -0.6720490853642942 -0.6311446338404485 0.23360889057253964
Ni 7.861513244441482 0.06261008398685852 7.574816206627221 0.5465396561048588 -0.3856258792042004 0.24549792870064174
Ni 8.698380794201425 2.5874171531971135 2.1457653007314783 -0.6809890681664015 0.5434587031866898 -0.8969460499851326
Ni 1.4478359049263376 1.7043475217452249 3.0763527628473035 0.94539951750083 -0.8443590199170362 -0.3841642070570093
Ni 1.9461838286263378 7.024929143035476 0.9901299034334482 -0.6440196900309038 -1.0075554222042842 -0.35438851845647357
Ni 7.322403618746094 4.115139776457615 4.324290830731524 1.1643873157260851 -0.4810431170639457 -0.329599998657884
Ni 7.607141205520064 4.249576587681971 12.85422466863411 0.164114286115827 -0.08270518960971564 1.4849270039539135
Ni 4.529696709335333 0.6491781076268082 10.966580239892266 0.21813239220349528 -1.8975723491697514 -0.8545724701149282
Ni 0.6245848483497796 9.098024686263873 0.41049630662017006 -0.2588910621780961 -0.1054224287015733 0.44169264029078126
Ni 3.3559096451909047 4.805601679660774 10.09874275724121 0.49881278234254095 -0.9978014281413138 0.26320357351052087
Ni 0.21236865026587415 5.151445245446672 1.8351863675736224 -0.20996991099736098 -0.27272385429613033 0.1998114824071204
Ni 6.347094406825504 2.1145704378562735 7.524083523019907 0.8487754038171768 1.3585904508074924 0.22619588593792014
Ni 3.7660868438255117 4.164185485184231 0.4852178644659541 -3.0974979670117624 0.3073087913598514 1.1522151991399254
Ni 0.7030680401571837 0.26192456602958 4.820618956322331 -0.4029733693437124 0.2956382970004586 0.8954969762434318
Ni 6.9524303688942855 0.968259577053285 0.8089131416149237 -0.7445943037218725 -1.0799075507144498 0.8956635837282833
P 0.06953445296871291 6.216369854688211 13.128738913326195 -0.017101949787609257 -1.369796603935957 -0.2577888302528528
P 3.7070015772723055 6.297783536735526 13.187608393390597 0.14241263277267732 0.2981988586387832 0.011242148572722573
P 2.1766090533876117 8.964977686323342 2.04498203826536 0.5749104939380679 0.20640224825076067 0.09684188612141387
P 6.4498032893993456 7.731364732507353 6.605741029794217 -1.152180489247248 0.557181452089421 -0.7882842884106553
P 4.478813158055761 1.177810202071295 13.655833071863185 1.2505835492081947 1.1219276038999775 -0.9475296764699552
P 3.8040414927673813 6.408611843125406 8.88490261198624 0.7056893991265588 1.0058700640820615 -1.4304335008917237
P 4.878484480604074 1.114774945553529 4.624767115945302 -0.1847908406285721 0.7882452076426038 -0.8862746863142156
P -0.005247451945974166 5.857633960545764 4.229276199442815 0.8806627394440768 -1.1039409375145697 -1.0791423904136512
Ni 2.7483426702717697 2.1368805663598054 5.221008043250779 -0.3930723081799166 -0.8993770280241286 0.9777167415762967
Ni 1.7786567079535052 6.772148072294229 5.445002647775768 -0.5217398234523595 1.1859007643178285 -0.7495197660479479
Ni 6.78113612816266 0.9615391080163604 9.68616264804483 -0.056828064732637615 -0.2810308314999289 0.6991996776371571
Ni 8.616994542639974 2.8028379021902334 11.076757529417618 1.3725248015003975 -1.1996857339170628 -0.48275984264473637
Ni 3.268141233918199 5.010854861893267 5.497957200738147 0.89963593811247 -2.0638124233793294 0.4976660703326074
Ni 1.5340773524858924 6.801169526339397 9.522508711976135 1.490598343307078 0.34972607998379773 0.8560770796849128
Ni 1.2088249380893197 1.176109511947665 11.870616820389829 0.8980634514190275 0.7286537212322161 -0.8417084696680666
Ni 4.189814702477428 7.3226413496235905 2.0562907132379697 -1.2121640688897317 -0.4646986142676513 -0.32759608085397773
Ni 5.373101858226435 8.106467483215916 8.62533706774105 0.927000446168352 -0.46700977889933115 0.9237454295661639
Ni 7.053712866203147 0.6527596147312481 5.448669189386389 -0.14601551963258727 0.531170115627324 0.5810780562013605
Ni 8.193888441667665 7.431640956955805 5.348113599952949 -0.27032578637759896 0.9744007898291864 0.0984241430068692
Ni 4.754718128381202 4.742968736935695 7.5281386631802825 0.2346149632395508 1.104089547277292 0.5800596422391753
Ni 0.7655583443557651 7.818621108043913 7.303033123977761 -0.4922582690534748 0.299901957372819 0.33817565614203693
Ni 6.290715614877644 2.107703672894736 11.97633757031165 1.023607076350508 0.2525113839039974 -0.5000271143656162
Ni 0.9073986437150846 7.61626641381782 3.2157846655476767 -0.5896470288172941 -0.2830882282495899 -0.3127811273283323
Ni 6.814336159554596 6.070777979212089 7.850842785439997 0.8383364678720401 -0.29925558203807173 -0.1699715162275524
Ni 2.2035092165258865 5.309856301317037 3.4373443572773827 -0.4886702945919003 -0.38438917858362187 -1.5104608865589602
Ni 1.1903276471210225 1.3793876991978788 7.357713054501048 -0.001930898474125707 0.8717039875888922 0.7706004979776471
Ni 0.628295278737785 3.3875735693744007 4.558216185489172 1.2046158242288287 1.4097469190766494 -1.8657395209298706
Ni 0.5924116314787231 7.607936689610149 11.5277055735429 -1.2930188355542698 1.3348221447433013 0.9419701801043067
Ni 2.153759458662068 5.468267357187401 7.615525790699465 0.07668289467503567 0.3494815680731594 0.03136231636136534
Ni 6.327819918757699 2.3312895631803365 2.7830504640367524 0.03343462550936177 -0.9559695797071923 1.3966929141061688
Ni 4.046005808582531 7.190847008537562 6.281967118585768 0.5146296947701395 0.18745990282030298 0.46426461205402625
Ni 8.309562800560363 7.420549897171058 1.2681753660058874 0.9196558328778227 0.4635346758665372 -0.43468329885248363
P -0.07901625758271397 6.032201572590613 8.492409847588798 -0.6957412867749114 -0.281992681192566 0.031144801033920554
P 8.598222946813028 1.840091852795813 8.756123795646303 -0.3669887237189873 1.4494861466478006 -0.6558652765155801
P 2.075646578413841 3.339542788624789 11.157145311293581 -0.8015059293072518 -0.5141517266924563 0.5755051900992734
P 4.132292973618527 6.265753872740496 3.9498912148106347 0.2543173267644846 0.5765809396619553 0.5739877250134824
P 6.9593885688087065 3.968167233192954 10.61810151876427 -1.9227362500298886 1.0412558997805228 1.1090916284775738
P 6.265013249622141 8.137308492823461 10.918671067629989 -0.49280822801967383 0.01143780952329643 -0.20029022181575182
P 2.3283545011927815 9.141392284416435 6.288697645467509 1.0559266144188204 -1.6160738340047847 -1.2157188761205255
P 7.067528687583819 4.281862269545074 1.9138880889184176 1.1687970147580065 0.1389987219951219 0.5471441224580771
Ni 2.4399691481774597 1.685530208441836 0.6660917452111661 0.10159637008726374 -0.10103895492189695 0.46403526965203956
Ni 1.1282798880943965 3.766004552367917 9.158533595033472 1.1487544942848344 -0.37260658412639697 0.06948663403691258
Ni 0.4496825843773777 0.17407934939645192 9.536841140840595 1.481562972577687 -0.2763488526432273 0.6891754606319357
Ni 2.6756335957389483 1.8243833278904573 9.551615200527483 -0.07939669406177294 -0.6679486900426754 0.9194982242540358
Ni 5.729634170004394 3.177309751723901 0.6351565576021498 0.024603400370976983 -1.15855862485945 -0.22863534861734816
Ni 4.119610945653609 7.30591789674123 11.085844335035164 -0.23465790066234424 -0.8621921914437151 0.03080541541663082
Ni 7.023265026892999 6.7139771552698555 12.441992926608215 0.6765546865441315 0.17846541263117652 -0.12335921568565207
Ni 8.07698885440633 4.068782255345767 8.679334893515827 -1.9060513331750397 -0.5260153108992618 -0.6462845748056805
Ni 3.1000837905186427 8.577412351536783 12.821518385987744 -1.3383715526574562 0.6020104354786535 1.1040234699260472
Ni 8.561420378277488 5.342919180279648 11.024391817551805 0.5598998794618486 1.184910118269785 -1.6879040285732092
Ni 8.646116575133314 2.8878175473999974 6.364322580647781 -1.7081596934984515 -0.8517977355832684 2.0225295054701427
Ni 4.00367142539755 2.550422571260519 11.976056865006296 -1.559433459802921 1.6599419961426443 0.5335512142649909
Ni 0.9870768903566738 3.6022171212680125 13.272332020732287 -0.24711206726529703 -0.22823657051703272 -0.34910181613623753
Ni 3.0470149438651593 8.532664085595682 8.302285492660378 -0.634278808594056 0.5321669323229544 0.46511076210440544
Ni 5.699387487590588 8.234558708710168 4.421274056555812 -0.824207998890458 -1.6666158086183942 -0.3615783513366934
Ni 3.2915120078751774 8.599594471106277 4.1146826016931985 -1.3825101948478837 -0.026818919965057038 0.7345657158412768
Ni 5.083801667303586 3.147776261942586 5.578786613436538 -0.2747341998579398 -0.27720760109909676 -0.9275979705430346
Ni 5.7939495158625265 6.013411689773089 10.070411637090311 0.939209329529718 -1.0594677948028592 -0.16706616965529938
Ni 7.776314155344797 -0.3098721409720681 3.3157239833986822 0.24386065020753486 1.0735011329674737 -1.0731979999047583
Ni 4.6087696565888345 0.43936506429402306 2.345525070994742 0.944304227554122 0.56103013641155 -0.6251699043142523
Ni 5.81186162313237 5.882449406758299 1.1627755527686894 -0.1657654485660048 -0.9295214128179926 -1.9772171546865887
Ni 7.899111297067106 9.346755188592388 11.840920576392381 0.38605808164561256 -0.8683558970522658 -0.12613549287920858
Ni -0.1346827712476126 5.410489610460427 6.359330232220351 -0.12631701276239535 -1.2080942696957322 0.7097905657791259
Ni 7.278359401942195 6.383064917289805 3.099183156232742 0.036365683113227694 -1.1777933047193456 0.7571307456259864
P 8.008659514116621 1.9985486261426193 4.270774867158441 1.782630925234149 0.06281282156116279 -1.3883332292875639
P 2.0733789915823344 3.566731216053993 1.9066345541061833 -0.7788025741724652 0.3905212596232887 0.6338594616684502
P 4.714084435319852 1.2277794038220335 8.800245732160153 -0.5773751534284766 -0.37880808495141854 -0.7839866894765659
P 8.546141597650683 1.7975288822286237 13.167882216655547 1.1167103213650962 1.3883779664825702 -0.07643786854376514
P 6.2976463843062005 7.831422001447578 1.7010138033630986 0.10647041035011341 2.340995341888078 0.9719674977973455
P 1.6581454400532796 3.653969304599976 6.550391795415823 -0.4730148474428305 -0.478706241400653 -0.448418389050389
P 6.7128525053493915 4.194368163131018 6.616822031734147 0.6780878353592064 -0.2697984531192192 0.2807634367711552
P 2.3638861238832427 8.587771931698462 10.800423729163153 -0.44573492868095493 1.5230045275519255 -1.2504855901777499
