# total energy = -381175.2735322678 ev
CRYSTAL
PRIMVEC
9.16469080047964 0.00000000000000 0.00000000000000

0.00000000000000 9.16469080047964 0.00000000000000

0.00000000000000 0.00000000000000 13.41345136764612

PRIMCOORD
 96 1
Ni 6.601775962752354 4.132267503453755 7.205974710222236 -1.0803767770413846 -0.18181915959475783 -1.010950821039078
Ni 1.7523713922861208 4.026021241244481 11.097927520464646 1.5729710892780393 -0.5656599218740774 -0.4123794931489607
Ni 0.26661277389878735 8.049641333459476 1.8059472591237982 1.8249461410625927 1.0039453362555226 -0.4300956794818012
Ni 0.20895953605646023 0.20614780887231415 5.959811356806498 0.38087602322404085 -1.0038106104498712 -1.8548444712839218
Ni 3.1180661439154944 8.839491058486997 11.117954203133472 -1.3971120039214584 -0.08902187585636281 1.156647523879666
Ni 9.063027035502989 7.750799090888961 7.641978466991205 -0.4170712421976753 0.3190281366793086 1.1531035152821496
Ni 2.9793952051172097 3.1210538331659237 4.817428047264786 -0.22818000624748447 0.6698281664535755 0.6631954916284062
Ni 4.997570129091035 5.863789223823538 9.759452817432509 0.13826030116720056 1.0589561452737635 -0.7450082513308395
Ni 8.034547087461144 4.313820031217554 2.8204602181544347 0.8438676821029144 -2.8802783164305237 1.7435416725421713
Ni 8.585161719871492 0.2558341808698624 3.5805329458090442 1.4373896204945826 1.4047664351429228 0.11121152457952459
Ni 2.3483145861462282 6.113380417216739 12.416751293156997 -0.27645812452758195 -0.14041565694730654 -0.03357449352133573
Ni 4.632769605737275 2.242544887866471 3.54530937260322 -0.3672406918287934 -0.13375495709767934 0.6950319194127127
Ni 6.239853152357597 9.03102393469778 9.045414332430981 1.6675655741261732 -0.5174016010883219 0.2641520534667193
Ni 0.8755707453801653 6.902350331912843 5.69846369785977 0.9459780157121194 -0.884611953899812 -0.48095261423266844
Ni 5.237290950328676 0.485324457597522 11.05118209779367 -0.25685577691562217 -0.9176308320279938 0.9979412961532879
Ni 3.528735945485196 7.837808666789491 0.10323841063874972 0.3250997967946853 0.895604962576206 0.0856493598397041
Ni 7.996623596300791 3.4061856980718943 8.83573536813477 1.959059767051271 -0.6390983414698864 1.7001267958916462
Ni 2.695619714472169 5.058542817996262 6.32593159565738 -1.6820041181490066 -0.6983818097215521 0.3297843467545482
Ni 1.9116170622721762 0.1476596676842383 9.04962642439263 -1.1405148799838614 -0.4259739440039438 0.810545928022333
Ni 3.058266535452154 4.855214984529951 8.878980795331087 0.2599148754569201 -0.511317599677771 -0.4063520560079582
Ni 3.443999212940821 6.8763317742994445 5.209476113288639 0.9331515533714122 0.45354568297462533 1.0603075170953353
Ni 4.814569580156784 2.7897685846244915 10.744844970962415 -1.0176976528446087 -0.26404946645058397 0.35301554936834684
Ni 6.453060522670419 3.954710780945132 12.549249812598951 0.9401277275789293 -1.2945697249811576 1.577736886097799
Ni 6.410518027270138 1.8600748403568002 7.771619435794251 0.4370852234257569 -0.3518662662552521 1.657399946447081
P 2.2474479975259176 8.770022701069047 5.62860584107635 1.231013597496067 0.1469380314468566 0.6761425387073775
Ni 7.830220302681039 5.869297203085833 6.526676819213351 1.8541101642210585 1.1495962734598395 0.01541350634159281
P 6.035013144884166 7.79596268790158 1.6217937920677556 0.7842481706680686 -1.605927489599402 0.7365475221579961
Ni 6.000783024177565 7.035568279594548 5.571076326561879 -0.02177492978324637 0.43703508691411186 -0.8992466730938513
P 0.2559074983974803 4.860081435425589 9.919059576242082 -1.2005550238958935 0.8314204574784972 -0.07825075338278781
P 9.207764999711653 2.6654037284026466 3.812478443242808 -0.7363199795282223 -1.7205974050411723 0.2970529179597981
P 4.666862256079593 4.6626006747868045 4.229610268402931 0.05632952782966428 -0.2852297000726249 -0.05353088203860458
Ni 4.536659491721175 6.558546115530657 2.917479469512997 -0.17667721038250217 0.5642167616696476 1.4505675526374373
Ni 3.2907747449103844 2.2386682235936752 1.6968150357336655 -0.9246746262486527 -1.9810727809872526 -0.3797815046082814
Ni 0.778063015993849 2.431850744175861 5.893656035167782 1.3928313742682334 -0.28956483711286907 0.02760439198082988
Ni 7.575982610975056 1.9908091567904487 5.605267039097385 0.6004423196605854 0.5669611571840042 -0.3737808069401563
Ni 0.9540443281277826 5.700721877710401 7.921099211101604 -1.3293816904540203 -2.1621419497898637 0.473591545881907
Ni 7.635699737219827 5.273079068497158 1.009226765289387 -0.3200270102574682 2.911704653260605 -2.511693708979326
Ni 6.406962127180671 8.740860654459032 3.553505355721805 0.27799255889423735 -1.0226380275690194 0.7763931934000242
Ni 5.812164519689592 2.0529732555194666 0.9236881222866908 -0.6695790265572469 0.12078528431088875 1.4280058652868375
Ni 4.298954902493026 0.9903823277533989 8.910139828099595 -0.7819334064919631 2.6277936719994033 0.939005441049028
Ni 7.341027429032578 8.514318658810707 11.374768089466128 0.16374584703281475 0.9416320800385977 -1.1263313893946278
Ni 0.2308054098793055 1.3467055119763403 10.426691808086442 -0.07721691280163476 -0.18141292529527467 0.16831983955674237
Ni 0.15101302810366152 6.314398748563086 3.121310444512586 0.7174989901669773 -1.4155036190547685 0.8913793545306326
Ni 2.0539813715242126 3.5606107406170735 0.09915004200495718 0.2301489570483972 0.5880148925305099 -0.3009206284453204
Ni 6.910231966131766 4.64754308755228 4.810238347212756 -1.6425996482094551 -0.9242822759062405 0.0846124339347575
Ni 2.464806972840102 5.316043139681241 3.911603740582194 -1.4697004168121464 0.9549699347980843 0.47778861468239003
Ni 6.398411470522234 7.092270222516033 8.035394821374226 0.13533721398313464 -0.9734955044060976 -0.2649899759869824
Ni 4.627573225967358 8.788141295081617 7.091168626663574 0.8912669973224843 -1.2265023398892747 -0.40082624109372256
Ni 2.5188511553854385 7.30521181679124 7.5904041686574955 -0.00039492144557351337 0.3126631136932293 -1.6769074203523895
Ni 1.9944108803346776 1.2548936380168385 3.676264558088817 -0.3254407250738718 0.02539864257876271 0.20436901987081577
Ni 6.930357627462877 6.345173780780695 3.163012537752546 -0.3858462227451226 0.9774089805278908 -0.2973781625097007
Ni 4.616612255588484 0.18775702353846188 2.190027542833777 -0.812047452268524 0.12950878022681567 -0.22617120334757176
Ni 6.857919910176403 1.4324595252164138 12.525186083565664 2.0212079584452414 1.515261650381713 -1.2464808398937306
Ni 2.571108223195089 6.392610221149469 1.5748870708360205 -1.8686255842284138 -0.22647562196186805 0.28719607977037637
Ni 1.9514009856958334 6.6931570962371 9.985791356941693 -0.28077989183138746 -0.3573424588784749 0.09560904215557726
Ni 1.7660542758778095 1.4344574278440012 12.411171829305276 -1.4752581134055818 0.946625419488131 -1.7265978455989812
P 0.7815501809011749 5.364588507655236 0.6023447304902445 -0.04304720889846135 -0.03212927643437693 0.6973094025929797
Ni 5.178279505287228 5.7777419404729935 0.8052702340237524 -0.5604166711972671 0.7743959604643373 -1.249990395708886
P 8.316123052277648 7.593542158839541 4.698423618780904 -1.8512485264025471 -0.305434457155274 -0.24214803839180235
Ni 2.7876423763235727 1.0433267473844672 7.15433259317548 -0.7342533268071806 0.9279183299969309 -2.115889860800859
P 2.441629469421897 9.051122101956034 1.7543986219247556 -0.4821116675377761 0.009312021429545252 -0.1632838197947317
P 2.596375276150404 2.0661337517268774 10.2138336124989 -0.03122450523192042 -0.4540601607171986 0.3137715162660596
P 8.691490464299335 8.554780769364829 9.537862504305677 0.14055063986327407 0.8484779271814162 0.767441126413059
Ni 5.301297151939093 1.77523729621195 5.928329726916472 -1.104953180829168 -0.8852200197974561 -2.2948651231889188
Ni 5.713882373917812 8.848829878567326 13.306706937455793 0.09540438234393891 -1.0175536710675765 -0.48486300503066826
Ni 5.726758764705703 4.0709832150561525 2.2180348383838107 1.4731374675181532 -0.3281354982972155 0.9856984742301929
Ni 3.4835356897087673 4.320886007941727 2.25997887946491 0.6164680056648802 0.6507629222920084 -1.1055823297727345
Ni 4.033472134988649 3.3069870832048904 7.047333909839029 -0.21970976399294417 -0.3878177446491966 1.038288846732399
Ni 9.124577099938207 1.2408808255508694 7.922896406997337 -1.7925561547676614 -0.6101916857378652 0.972016605867726
Ni 4.362631175229163 8.910141661037786 4.782700283839478 -0.43473549224665775 1.5703781317398824 -0.9743403689048963
Ni 7.127187695044053 8.96745763825307 6.6822062070182735 -0.490009325118298 -0.03858711624457871 -0.5649217581564722
Ni 6.9386333433927465 1.8178256150669914 10.183908147132563 0.6830364376137333 0.34281983978226765 0.040891081787406997
Ni 4.483751730853916 4.8451704832463 11.803636217859685 -1.443518873320772 0.7675820228662974 0.4298331698490339
Ni 1.8938283971338858 7.981419374011031 3.6922807719969453 0.4266154342426846 -0.4990012442042633 -1.3882789790108607
Ni 6.732510279186003 4.528704539974634 10.37250099048587 0.20285772543261194 -0.7288092729734739 0.2035213271585398
Ni 8.511541757452179 3.234366072099371 0.6136127180160188 0.03799756228969585 -0.8280201735476966 0.0230288567950055
Ni 3.879340362553942 7.9084684340312315 9.199454457956167 2.052330133771343 -1.1137496960748754 0.5803710028320069
Ni 7.778595598547093 6.587552362394484 10.06446106407569 0.8956545848672187 -0.0996472167806929 -0.6767166660432926
Ni 0.7051487347778581 7.994359917635588 11.585613718920559 -0.5285558179329285 1.1080868413621432 -0.21241657276564063
Ni 1.184133059174623 3.687468392777926 2.3488827969852673 0.25662720584458387 0.8407304220255134 0.1273793925886387
Ni 8.162385361553886 7.7183285908451875 13.40081639943702 -0.6183122579624707 -0.501068411145937 0.019628058643572647
Ni 6.467284123028289 6.323068546203902 12.190238624519719 -0.26748703137722324 0.6754300860213852 -0.3071671235756645
Ni 9.027568846208787 5.689476801912008 12.08321244711041 -0.24113090998119763 0.3702745935591107 -0.3124473981379973
Ni 7.894492280329072 0.5987475892914917 1.2689770186031397 -2.300592512590999 0.0012009622866366414 -0.5548252931524187
Ni 0.7546234024144098 1.4354013910120818 1.422496589682238 1.9849286643982331 -0.1057114206969018 -0.14795541696777742
Ni 3.6954233445244675 1.086629912133783 13.162767217829067 2.572926587647878 -0.09621556539132461 -0.009302765458164624
Ni 6.7295959074631915 1.8223254783245393 3.1970025435561995 2.0453027946109166 1.1820451380171644 -0.06254619816333744
Ni 4.770093334965582 5.6722471829218035 7.136197502719196 -0.3465937050024031 0.5041159397230093 0.39272598058409136
P 4.471663503487917 3.5131559708663946 13.496614913960745 -0.9388043807818155 0.028787613655653646 0.7221200338787563
Ni 1.5770233602969868 2.785057933475042 8.312020936607427 0.6248456882056141 1.4138450004054233 0.7254925498954151
P 8.871805758784582 3.8768292372330295 7.040479637475851 0.535792959111316 0.6843888378765698 -1.24983407263668
Ni 8.691352993935052 3.342591907554328 11.716851176887484 -0.5257702847679913 -0.9011932552972609 -0.8903138893805956
P 8.96974881099113 0.7775516262387142 12.610790712343217 -1.2024566117939808 -0.87192330268855 0.835526766337387
P 4.375846659582288 7.076369483713903 11.578370863661007 -0.16339951943698955 0.12729197508115495 -0.16487404709998701
P 5.303185078275254 3.59043264497565 8.843541851887885 -0.11339696226661759 0.46439136743987763 -0.07502144781221273
Ni 0.30585323114897683 4.539463887152559 4.954794850540568 0.12968567212431215 0.8304732630738794 -0.07940389315062454
