# total energy = -340871.42164754675 ev
CRYSTAL
PRIMVEC
9.17906720611029 0.00000000000000 0.00000000000000

0.00000000000000 9.17906720611029 0.00000000000000

0.00000000000000 0.00000000000000 13.43449269047402

PRIMCOORD
 96 1
Ni 7.656902410694482 0.6507811715530187 8.408017211100825 0.9830510093050167 -1.2837510370990988 0.4365486341959966
Ni 3.775653211333653 2.480064605102449 8.69813539569583 -0.4425287630388314 1.6790807738546243 0.753610905398186
Ni 6.925183896997128 4.838607540742817 8.704502914549659 -0.9784759883398245 1.0988990042152882 1.9184293951244185
Ni 6.518799058860205 2.7428245801777216 7.592530530962581 -1.8159521650940984 0.08976338200807767 0.4468196771047015
Ni 4.537616751156662 7.215361745528344 7.348277390993392 0.8860021493791191 -0.467781109847717 0.8619991015963027
Ni 8.571752492292582 6.8309148777830195 8.778110771607095 -1.4755149666113943 -0.8365521222781077 1.184916288917372
Ni 6.087906111541036 7.6626944020405485 9.220414217250026 0.7144864285928986 1.462273785330772 -0.4534533803711352
Ni 1.2220734577515748 0.037082513215489214 0.9832304599366994 0.0006718292560440042 1.6568211911254758 -1.1620681806746052
Ni 1.6614295049456616 3.445023214051066 7.976488154430971 -0.8493824412735564 -0.0017213535664809066 -0.0457779775660631
Ni 3.0238417197337015 5.715217628762924 5.70983410590323 -1.4871515224090581 -0.3180740002961554 0.5764292445754394
Ni 1.482465233512608 7.785941736119207 4.962311992363526 0.04191386662496652 -0.5813819605950246 0.9676812117171656
Ni 3.004290306790561 6.066684108383976 0.9426993712081877 -0.38185124265311654 -1.371006565083658 1.8390129035683038
Ni 4.901318927234616 8.057743092297294 11.314300782550308 -0.9242485944548277 0.16672858381022254 0.10939066932070193
Ni 6.594351960238134 8.486176049631128 4.861902177253193 -0.5466507277614262 -1.108090183796253 1.233232973744889
Ni 7.214618241092478 1.3648905629075927 5.7642971826904725 1.960712729273662 0.2429340246282074 -0.8920295865201218
Ni 4.461136764000679 2.815935849704535 3.7178214169172397 0.07947408426692765 -1.4165076348392507 -0.2538473291066015
Ni 3.029440950670469 2.0551196932702074 1.4402451964359566 -0.4851720516306547 0.004329480613289318 0.897744634627028
Ni 6.815998893730155 4.6499685325763975 3.013275695584007 -0.7105318148205247 -0.8982064047547951 2.4329086803596227
Ni 1.2396789084675106 2.397416284848912 10.982926362925145 -0.9895399594634698 2.0887037873043703 -3.2008102913488683
Ni 1.90993438879995 5.032138991678576 9.989472258041934 -0.7162424920520569 -0.8032103135928682 0.5786501634861583
Ni 0.280977669567409 6.564841259481234 11.140660370040738 -0.4727672502083987 0.23137383059443378 -1.2859323610211337
Ni 8.084674475196437 4.4257789974950565 6.781759137598464 0.11126268953243419 -0.38464988844417625 0.803789840245422
Ni 0.404237854340021 8.602383039236834 9.675535312204603 0.38340007519747515 0.8843720699748641 0.4523418924745113
Ni 5.005024027437245 4.519827719098537 1.6105003689955586 0.8575541784510715 0.37586057228732045 -1.1699951488311657
P 6.830510998830205 4.67857968475657 0.09204309544006486 0.5521670295939652 -1.4169323810814953 0.7901357397970973
P 2.5185432544252864 8.988876838947567 11.625967745091472 0.3637406490953349 0.0651278428475846 -0.8432719575004444
P 3.896027497407052 3.8013637783072376 10.490323465335818 -1.7287202912586226 0.10071756702673622 -0.21426776704176645
P 0.25408116712328255 0.4649436146684049 5.1152233176198125 -0.5464483819426331 -2.1876586060037293 0.5510812527289541
P 3.313854345056947 1.3960534957441941 4.929975056843626 -1.289769989599669 0.060349447622334774 -0.8396384745129152
P 8.99642203211154 7.905673487494944 13.294343968025569 -4.394017359520123 1.28652500029981 0.42932177743025424
P 2.598823375364584 7.839630099642411 7.1450546810034705 -2.1817005886480816 -2.1278087237256322 -0.5205476029164713
P 4.300099210632392 7.136118859172415 13.299274044970057 1.7770837701636748 1.7300762910658851 -0.7386887368707149
Ni 2.8719006218708847 0.6844628404044547 7.268154232101667 -0.08104528540878946 1.4560781980430213 -0.17362659648163647
Ni 3.676849732967474 3.343851536370648 6.396040969058481 0.1127834970523348 -0.02223592858006493 -0.49892719643321815
Ni 6.841599311898427 6.578040757984631 7.01151577688169 0.09757105097795453 -1.7443173743659315 -1.0161285085852756
Ni 2.480872363008081 1.7542115152880378 12.535818906741762 0.6091658155765122 -1.1183568558295838 1.8659513798303606
Ni 7.848625585409678 4.5902128056938425 11.497910579847458 -0.43511318730105064 -0.13710484740651874 -0.7229936947329613
Ni 7.8698934839022865 0.5113483884402571 0.9176065554510692 1.0950852868961525 -0.23979136523416766 -0.1491157558244658
Ni 2.623285589211283 0.41497277332452925 9.611505811675885 0.6831696207574879 1.814200215399998 0.20862008183768585
Ni 3.667275965972312 3.7742212768645778 13.122234623909856 -1.2222409935097596 -0.14598518061528407 0.2407375311975209
Ni 8.774453831270687 3.398164076457296 4.58704602754108 -0.5913419000212138 0.3117130910751341 0.18568712719059632
Ni 3.1069948886782583 7.413299148676642 9.491293995090324 -1.6643210990469466 0.5120606484913827 -0.6276551326299513
Ni 3.23593324436478 5.97372769576652 11.832201189093293 -0.7053852376225788 -0.732812480595596 0.026677766401502444
Ni 6.398571637860558 6.724841578266152 12.89618540983214 -0.2950394870741951 -1.2165544846479435 -1.4261803820423244
Ni 3.0348474211979384 5.402973302900578 8.063893067260627 1.175760076339401 -0.12653015721446598 -0.7229263318301357
Ni 8.748871771236635 0.7705918629058973 3.1714402009470346 -0.965326338331744 0.00584386037528671 0.10866638956016768
Ni 3.6523508028523373 8.853246943338252 1.2020603377328292 0.14826034980270594 -0.6457449002521265 0.02032405626933274
Ni 0.20217905005957745 0.6208629202164596 11.965592310234612 -0.023507339093320805 -0.9555636025180252 0.5469646594574193
Ni 8.466799038963067 7.600515401441096 3.8370116033335187 0.5912519114105688 0.7619196823741976 -1.7842427498059594
Ni 5.956792316949575 8.923420911390041 -0.02773730499135258 -1.8635034325105002 0.3827948375133085 0.5727857342855812
Ni 1.3123771199743979 2.0117118849095923 5.852951366553727 1.7427723984763148 1.6813238042525303 0.08426687766988068
Ni 1.9906092096249541 0.2664536316801176 3.1014736798119213 1.0109397652954848 -0.46112220977030266 1.5883727685450904
Ni 1.6104397871526364 5.238557852836011 3.698704173848377 -0.48581919829635045 -0.05360235870648833 -0.25557511043098563
Ni 0.9956166930941986 7.023234691860332 1.671842238674628 -0.6251742751896265 -0.45224521899564696 2.2920821611271425
Ni 9.121936595766234 5.761966617551382 13.333115429589197 -1.9243138789296539 -0.41565353591454224 0.13157157629311533
Ni 8.41971960375867 5.817876315315075 5.192418354103622 -0.32789098638657727 0.8119978299775112 -1.9234011373073971
P 6.9610189749924425 6.355925692070027 10.596442660188233 0.1674700899619374 -0.2585473056854321 0.4868309273903164
P 7.1989220363353095 2.2928116360695574 3.6572854693303807 -2.4963467942096105 0.8126969129270648 0.12603342008370552
P 5.110243673712933 4.580097473739222 7.625686239268645 -0.9104338000589225 -0.05701652659435988 -0.5157108436494602
P 6.603769683092435 0.9813248856047765 10.423956974321033 0.5727834202927361 -0.3967078480499749 0.38710272086004305
P 8.648856656012008 5.492863907103476 2.8406027567477743 2.4895727087105706 0.8592955866222104 0.22587732625623677
P 6.70127891299618 8.749872289551565 2.593784067521493 0.4788931606004785 -0.10718620547021539 -0.9617044253084406
P 5.995335219742178 6.120959932202186 4.96267456551435 1.2318183527855495 0.04305337954604843 0.78882524851579
P 3.1325677696452017 4.021055570504945 2.4019929677096865 -1.1290307906036623 0.15978583394380225 -0.18730152286556775
Ni 0.6899913925244797 6.129569897150855 7.09280743101645 2.2629065680044516 -0.15746387067884493 -0.2882466325220778
Ni 5.327732489804371 0.8915012885917778 8.586763020736674 -0.4907878551555354 -1.4883972218907011 0.4298277705323952
Ni 1.026880595669004 4.532329608501615 1.4499575673444716 0.4916630586716371 -1.9464922147989057 0.49545697849643056
Ni 5.645952388354974 1.7938926224022136 1.7503930233705043 0.13016595419484034 -0.5178901106889662 0.24289185853636233
Ni 7.4390464319186655 8.357127545139294 11.552051471379158 0.96179544236035 0.5920443254048772 -1.022817233459361
Ni 4.649270923476078 6.013730070229527 9.961904765792106 1.6180325003930522 -2.7554805685261314 -0.8152405052845251
Ni 4.655925747130434 1.4329992408597525 11.262202233450461 -0.9746830969562955 -0.021240911656647286 -0.7726964612747274
Ni 1.6532693142853556 7.497875073023166 12.811857320297573 3.7788832421753176 -0.7386522272058247 -0.43421021587080705
Ni 5.467658188820911 6.970409160645415 3.0117180078955323 -0.31040851333109765 0.6554960661016195 -0.7852511580112864
Ni 4.847088998751953 0.18850132215977783 3.571237222619501 -1.2348429985444862 1.0981474707612444 -0.5132127598179549
Ni 4.988198797425613 1.1209384963395943 6.117906974481581 0.3063970781788594 -0.47388696563513866 0.6619719036339502
Ni 8.734065935989083 2.4081925096354126 7.335743374855432 1.3202702150710555 -1.2655874788161945 0.2891264640238698
Ni 4.177108890432798 7.5706100007984904 5.00907750347278 0.2215157068534314 0.8097375731884248 -0.008772089765675216
Ni 8.66972985461891 8.104556334555516 6.581906981051134 -0.47920889206868433 1.1654800345696317 -0.4793713857884777
Ni 6.786139388423097 2.0442057824770647 12.655479979300756 -1.460856336157955 -0.19017190243482732 -0.9015007592353506
Ni 1.4938839929967707 2.7035473520163618 3.3632579200534587 0.8017463274528321 -0.2949677532959952 -0.31804314705822
Ni 7.630301474211279 3.0064106712928456 1.5500176599979347 0.6308142470842234 0.4270445513603033 -0.7033946895551112
Ni 4.491528655200086 5.077905820286321 3.9618184609140745 -1.4872399683578064 -0.07290183036604864 0.10989614820221073
Ni 8.039045332595332 2.6028988811611824 9.78708117153213 2.111809005863266 0.2128778286727753 0.19221978610279153
Ni 5.8961553996245115 3.136101710482342 10.052036779459984 -0.7874237401825729 -0.24821172808737896 -0.25545683968556654
Ni 6.044030170757839 3.5919158250036824 5.368624315870285 0.596726818482211 0.6562835949999213 -0.15553297220471923
Ni 8.863775333312798 2.8896804748619 12.85412233480306 1.9092932371511053 0.41613716041918014 0.8639307714013766
Ni 5.331615235191671 4.5928013026187084 11.815341078626647 1.8346610543575113 0.8813219702946304 0.8827203933040539
Ni 7.27543873975973 6.505360904611963 1.5342461868904682 0.7627311225318993 0.9388079803262414 0.23419458787268055
P 0.8876479162192284 1.3825969833617324 8.758523560302226 -0.3328676136655622 0.41463846438646657 0.1371336437619251
P 0.41659379657605905 1.9230971710349092 1.5763230305202123 1.0629999763258338 1.3917527964920742 -1.3318116400517515
P 2.8486775820839623 7.013807789938921 3.399423444464713 0.5153292919403255 0.9255066352316448 -1.0428114171931007
P 8.999570452130083 4.574590033473549 8.90775407964762 2.2341444082700943 -0.04599986376888207 0.0725696438376105
P 6.355218903902599 8.572367489788915 7.181461614879703 -0.28555623017410825 2.144203620143888 -0.723236921092019
P 4.51675273161687 1.4762510050795066 -0.06390833684287286 0.2560708191204816 0.2724495175888211 0.5091941255768649
P 1.16298780276801 4.444623622270768 5.701209454447185 0.6981187858681526 -0.5854967540943465 1.25753658348726
P 1.1987586272935578 4.530466257878396 12.118691806366643 0.581483004949263 -0.5453780316965898 -0.3926673594320141
