# total energy = -340897.0322497823 ev
CRYSTAL
PRIMVEC
9.04256850452611 0.00000000000000 0.00000000000000

0.00000000000000 9.04256850452611 0.00000000000000

0.00000000000000 0.00000000000000 13.23471304321201

PRIMCOORD
 96 1
Ni 6.246307911203484 2.0697354175569234 11.312635687200174 0.5718267128064217 -0.13208785380790156 0.581078827532309
Ni 4.757331455202403 0.4524539571881366 6.171478848398238 -0.4454737045997682 -0.3328496159434332 -0.7449879396158654
Ni 2.9316187910366187 1.766836500698441 4.770545360543338 -0.43237007733827476 -1.0076515814625164 1.2916805763588204
Ni 3.527903842697425 4.297055676266569 4.863703709686827 -0.7991495132599333 0.6731626301434471 0.07404314305934345
Ni 5.170631090809585 4.4794804530735375 2.6510984226881935 0.1912124278841997 0.27890118675143577 -0.11772181489421661
Ni 7.319461854987433 6.16841522619232 2.5487546324680452 0.2756130029184673 -0.6417676607719335 -0.1338104929259631
Ni 4.834564032713472 4.316045070104908 11.572208041374365 0.828169040420735 0.4630870468061573 -0.3517068578592524
Ni 5.705336251023208 7.79798553714506 12.383429520607072 -0.749440061849948 -0.3241783134216804 0.2964224834646508
Ni 2.0831998020451543 6.412257128213571 0.4859413010936211 -0.758083596457559 0.24779109561019258 -0.5612355675541366
Ni 2.5961575850296343 1.4894376269942986 0.43725068677842327 0.13658445612667444 0.18141935305317788 -0.1473074989711334
Ni 0.562171962015506 0.027324833476519126 4.789418105248098 0.3889469731576334 0.7112005587527751 -0.4505989416414756
Ni 8.612268830069988 2.148306295205171 1.1622114881152064 0.6188336776835794 0.5168696398442518 0.5512267771678829
Ni 7.006787921586454 0.6071542189911312 4.852084009171462 -1.1238304773496453 0.03881671575688153 0.39069686596920455
Ni 0.9015784406566179 7.45354506062309 2.6007530183385117 -0.37390524833316247 -0.3836805825523715 -0.16520186275305096
Ni 7.6931369554519495 3.8437426750714603 3.7090147343021505 0.2689664441362271 0.020390390730893916 0.26103201978049884
Ni 7.685893858087898 3.630039653842201 12.559411467361747 -0.17773470511273906 0.9901343985143591 0.09474000928706264
Ni 7.817472272250593 8.595865610821061 7.120606731226055 0.047471048997769855 0.7043573105786967 -0.4519801382597184
Ni 6.861220653962851 0.6894117518145647 0.16034372880037887 0.058341673163686616 -0.15741090595372242 0.7226679359624264
Ni 1.9204787819875853 6.5564137551520405 9.190635128002198 -0.5033435803333589 0.12302831470879456 -0.06758530324914168
Ni 0.01180416891265076 4.802309190893781 1.4288858755849352 0.9347497510964676 -0.3074368322972834 -0.16884845836670276
Ni 6.265695178055578 2.2069744795971413 7.087651994604894 0.818021667574088 -0.16001389079420827 0.07875828914682564
Ni 3.2625677553648744 4.153116070971967 0.39681503324180584 0.6930411142349291 -0.07075418789542653 0.09525731524311337
Ni 6.072500702171723 5.610398324400012 4.76844025059783 -0.11877056787370512 0.32355096425032664 -0.1799355694187998
Ni 5.219442875542609 3.063631248487047 9.336917662793713 -0.15219490897042176 -0.4223219490736533 -0.37379032002185303
P 0.3047029092731242 5.560944517303883 12.463341411163048 0.22916011077256662 -0.6855661460141225 -0.07731872848682168
P 3.9919594152639366 6.099583194812591 12.58234794234791 0.20728079420097206 0.05535456551090466 0.34115762158849633
P 2.526990978615611 8.430477033057631 1.3786073862421122 -0.7008223008422447 0.17282312674373462 -0.5253211130457146
P 6.286719149805166 7.738792883780412 5.788043199500816 -0.412385920906864 -0.38383073497699055 0.4144098933154282
P 4.769502752395928 1.056696469124056 12.696338560788908 -0.5291517996457145 -0.17372635528429434 -0.3679616291552179
P 3.965247667931341 6.272178699666097 8.197052169941983 -0.03102678739881753 -0.6025966469994267 -0.7706498631583436
P 4.825105506068281 1.0675385087488976 3.86001025579297 0.5249760710014701 -0.5653516466050393 0.3353232742949063
P 0.2700517868024044 5.598561602240781 3.639043339292121 0.005394174432377807 -0.11540653649747866 0.1955334238570568
Ni 1.4196832536281365 1.0335474937782723 2.5729208967694546 -0.30491560853732647 0.3743209957143424 0.5624768961604054
Ni 2.0372816392303537 6.590603706629543 4.694749647166035 -0.8855066977999395 -0.41454770444487316 0.3726050414645002
Ni 5.772775726854792 5.654842548550218 9.21955235779059 0.9973203747398371 -0.32592332113724515 0.4076162674323625
Ni 8.62128427085895 2.3516555755082886 10.010710186047818 0.3674916314973348 -0.14175802990781391 0.6220197887210449
Ni 2.407158860927203 5.38711018056664 6.978942236164655 -0.6293294350085806 -0.22688802690893828 0.026737673105160405
Ni 0.5801549179804122 -0.1985323040661263 9.074592750769813 -0.26368591246357814 0.7301724718695877 -0.24718997169108395
Ni 1.4504279865092553 0.9320446624281078 11.555042533601355 -0.7489986034371552 0.5956646957662838 -0.6701449263630459
Ni 4.262259872699938 6.798094483303118 1.5816537405006665 0.5771147006782383 0.5796693487792921 -0.522758494524861
Ni 5.597639260254349 7.830882401327857 7.964809170528559 -0.5201547383534267 0.3129258804363127 0.03353875518739385
Ni 5.438887927765841 2.9972407106008188 4.789338530645346 0.43654452043093844 -0.6775664156380976 -0.10112791509127744
Ni 0.8806069158042971 7.659335834419708 6.764606235140784 -0.005637143681119324 -1.3601338840352124 0.7757031093115351
Ni 5.035860649968351 4.611321101722571 6.881349411431489 0.14205910608800051 1.358233838799022 0.46687993818968626
Ni 7.9682480593269975 7.202387720689832 9.173733663229228 -0.000584925969192541 -0.16534815852292814 0.08653561909939936
Ni 4.638503062616877 0.40643723037674656 10.531086492225143 -0.7796906332043734 -0.16036484637572382 -0.7004204374181356
Ni 8.087628048590684 7.3207458997136445 4.731833220561762 0.5830305519420411 -1.167594509809473 -0.1423763802181032
Ni 7.133736540679992 6.028110733432485 7.095037060294309 0.7786405946733042 0.450381683424347 -0.352691847480341
Ni 2.3330640546837063 5.132010280769803 2.680677568490378 0.23715855559701093 0.29504257239798864 -0.3825657522216379
Ni 2.2857804640262445 5.255504638698462 11.358520392511544 -1.1424244383017486 0.35919699558871043 1.6102050339288332
Ni 1.1903456314719787 3.3041635704393295 3.8828798157722755 -0.8335701568316483 0.1591381730574743 0.6232924847858813
Ni 3.7054908453598645 2.6289911512329702 2.7200778479343817 0.03560437946717094 0.48999004184458844 -0.42823368657239796
Ni 1.0203724714818634 3.441646781828898 8.197541372897533 -0.3073854102340577 0.1107880638888608 0.10525684965798646
Ni 3.6215938948683877 3.008788070568227 7.326035802282896 -0.8391270820941356 -1.2597287060425724 0.18724932947139364
Ni 4.152691070252727 6.963672955004932 5.787473517685666 0.3758965677315784 0.4050323087552702 0.6045411723203072
Ni 0.760087562910311 7.472362645660033 11.482026505779247 0.47492054910597564 -0.6194952225269783 -0.151361614435849
P 0.18135865798147308 5.755413995345455 8.090327255286276 0.21757986213413494 0.04636907418284272 -2.115438632196054
P 8.40247219843033 1.5002615814821514 7.942177430100657 0.25521284199556044 0.537976597026196 -0.1915523277221217
P 1.7736003419322872 3.2375921811832127 10.319184750639979 -0.5706625172949914 -0.053221321217985756 -0.010535352313685083
P 4.102649496204459 6.159173721190996 3.669046581556696 -0.5060643216986316 -0.306592224908801 0.6639945904909338
P 6.847475949851291 4.072546785686447 10.50490825643372 -0.0551182811303825 0.4523889436623628 0.1685412115389291
P 6.179917373317256 7.839599437356504 10.191311076789457 -0.1982055713725812 -1.0434099700090482 0.6226067715727664
P 2.4951249672411806 8.673170528880087 5.743203815107403 0.9034792231179601 -0.13012867319900168 -0.39498495182159715
P 7.028580511658071 3.9981535746826324 1.5651239252928177 -0.3204473856243384 -0.5595556087485525 -0.21944082660227368
Ni 5.355045232685331 2.703737022408067 0.8101101475647409 -0.23449335006002195 0.7703739837891378 -1.0510389473092157
Ni 1.473613132129017 1.1903275463349898 6.960135502209905 -0.3130348952103512 0.32737290909957817 0.18076629285021126
Ni 6.763569956791321 0.6474596595414287 9.218056716961607 -0.44112442649213707 1.0989162306064688 -0.8032452805958619
Ni 2.5441899438920488 1.449469474248844 9.146655691872606 0.38369035274438434 0.12523123589738433 0.6691141711056864
Ni 6.549686084192172 1.6785086916446854 2.612929741073134 -0.3619912705043959 1.065883725631532 0.1353690956623346
Ni 4.07371327702223 6.835422206048195 10.426624932463596 0.12435654660191488 1.0666244604522988 0.5276703300041816
Ni 8.074290260061375 7.058638009333611 0.19158218592129453 -0.26810178214308666 0.3329169788462589 0.8010210192510334
Ni 7.515685591316927 3.9692806534798644 8.439802633945954 0.1312941542620126 -0.41652154034179234 -1.107902236155163
Ni 3.163560672919177 8.350423174176294 12.274388804159937 0.19997911833323623 -0.3256597830632133 1.1600400945009828
Ni 9.050345103351955 5.011915928595056 10.036108048178173 0.68814444826426 -0.9652510050091182 1.576437450560085
Ni 8.633781100518277 2.299154422829531 5.7218823428543475 -0.04568387519036003 0.9722449198284481 0.8242329385911223
Ni 3.3865051991497612 2.5017893402215883 11.55690891973861 0.3510766804744212 -0.13358783539219574 -0.21212963765284115
Ni 1.0909406760125258 3.3399721416773387 12.53192296339548 0.0926090789869889 -0.02884186393235678 0.020137908400455644
Ni 3.151090970965335 8.327174730577072 7.941542641792347 -0.08412932365075189 0.6044815227269654 -0.160431180837285
Ni 5.752755480208088 7.741080653609507 3.5203279788127775 -0.9993068090422467 1.0038278368410518 0.2393185393628072
Ni 3.1390010568882603 8.307678952903045 3.450700201405538 0.9608312786748678 0.5526293139423644 1.042952056536023
Ni 3.396171704870325 4.543755029932065 9.555859948208655 0.46201746789106235 -0.665612328600015 -1.8693166967581678
Ni 7.390599741333246 6.149534343175915 11.37948377905222 -0.6714055382430243 -0.8070294302286423 -0.30461170414366245
Ni 0.5169455556905306 -0.20701061628651954 0.5193246554614196 0.4038768549945883 0.6562671399396891 -0.5151369734238612
Ni 4.444124010260251 0.5305491957335763 1.6822378468917951 0.9666350298408384 -1.1725060881784775 -0.21330000381185843
Ni 5.984218105960441 5.400692118445298 0.22526846633365694 -0.022720581525967322 0.650888135015963 0.5069019871085786
Ni 7.932466615794472 8.829670261813476 11.175470774221612 -0.09657577694422077 0.08001890102680412 0.4072951366475179
Ni 0.13204591495385726 4.969253090438256 5.834285086267718 -0.12684280335887832 -0.24032049826476026 0.20103018530556993
Ni 7.934871939013995 8.786039868827771 2.5692948268031808 0.8069921492328036 -0.309237375841132 -0.3222540998157741
P 8.496650549299993 1.6286389263978116 3.6053742397598985 0.8850703815934693 0.32688568505051446 -0.27468432045661084
P 1.850878132285829 3.1615170524394323 1.7894917518044278 -1.0216383826599114 -0.3332741050753615 -1.472913010212173
P 4.595162031822995 1.2285143130870384 8.247542255387575 0.2855901687358372 -0.7380480179629224 0.31373269260832415
P 8.506886736835707 1.6121452814639408 12.167571655305586 -0.06959436325937046 -0.24510866368202303 1.0313378693358626
P 6.38553633831248 7.855215953146414 1.3859788880787853 -0.49105216456051565 -0.257591369530066 -0.6069387260182064
P 1.8225296800557385 3.331074254278803 6.1713332630454785 -0.02580873353298781 -0.11127245972444706 -1.7517769159677703
P 6.946501117433978 4.089854261784817 6.071345061918133 1.1221091237831642 -0.8147072584888743 -0.49392665789483325
P 2.3724986958879883 8.462858470836245 10.207973817754176 0.44778178390765466 0.2507175252283682 0.14520382236456927
