# total energy = -381166.5900640242 ev
CRYSTAL
PRIMVEC
9.25065012856546 0.00000000000000 0.00000000000000

0.00000000000000 9.25065012856546 0.00000000000000

0.00000000000000 0.00000000000000 13.53926153319840

PRIMCOORD
 96 1
Ni 1.8406295762388358 5.449169369311897 2.158659521645651 -0.8980246277612922 0.40781424237578145 0.5480162406503852
Ni 0.809856477102157 4.506047103694443 9.92035169833899 -1.2659458905968777 -0.5690689475556264 -0.7630607379571762
Ni 1.3963763621379586 6.755647915053213 9.550364552317504 0.3682791603956367 -1.6731739214518864 -0.30953948046258306
Ni 7.396764211139781 2.113616256817648 6.215170365042044 0.7600227224618007 1.930018385513599 -2.3361328715894536
Ni 3.3592995309641176 6.432272944094436 8.245667681760175 0.6726700067777448 0.8217893621466363 -1.6571058122454299
Ni 7.4548027890439315 6.066724259927971 6.968007685866611 -1.424375724733418 1.6773751040174274 0.9139446414256583
Ni 2.2706922932875986 5.245248041400026 11.461688520682785 0.17687595665686956 -0.48927090429037673 1.2598351497134497
Ni 8.330950348887391 6.572919826219826 12.81292078590808 -2.157620664880742 -0.42828073776024955 0.6429557675427637
Ni 8.741096416553361 4.406889386679048 6.337186438130303 0.4744392385941829 -1.5660784759232642 -0.8480696359994039
Ni 7.127533294448295 8.890845938248034 0.8089277118452911 1.31255741980783 -0.321902115792994 -1.1684319181091039
Ni 6.091423495344625 1.6632576137373736 11.698557888588471 -1.5150683034239842 0.5943225799160926 -1.8629550162061979
Ni 6.900217072765369 7.561092757185258 2.745789024514395 -0.35631736004807024 0.173835627168649 0.44489109262342097
Ni 7.766577444941854 5.694792627283047 10.67684487603122 0.09557253249068702 -0.7330546785133892 -0.7127560761653532
Ni 5.857271043334768 6.467591925675253 12.22454522048854 -0.3196434016658043 -0.6916259790549572 1.3793631645784696
Ni 3.9314059782835566 2.3051509644213186 12.518387491421976 -0.6749696014451989 0.20384965703223604 0.6114903499446308
Ni 8.702881981532316 0.6197334186837231 2.995033911948324 -0.7083412349271091 0.5783550008432427 -0.7463511385119791
Ni 0.5836420078305128 5.719510363999637 4.66752459941954 0.5818658422099785 -0.20134206011903388 -0.34042794251132336
Ni 7.446930485920496 3.3315660823577034 8.187692008275812 0.03496237500779785 0.19635669108930057 1.5555323249763016
Ni 1.2616961492424341 9.204905504688249 4.575430678720309 -0.7645722895056962 -2.2564816383147135 1.7315644455756372
Ni 2.9596251990628097 1.102205693130631 6.749551736723785 -1.6656380180861572 2.6765764978300615 -3.8079019980051707
Ni 0.045371662901894316 0.9596716784116089 11.216547221575006 0.31802103557103295 0.7485957115717818 0.832555599524205
Ni 5.695902705279301 0.7818196071767668 4.236949396362507 0.9290622137933869 0.1482940312541188 0.004342593239411876
Ni 9.12235270436682 7.896493573103456 11.112660572295571 -1.2418353707019194 -0.8951120821001876 1.1446792957741965
Ni 5.256820604510974 8.64708206092061 12.521786180220506 -0.6012900123728613 0.28398682880445936 -0.11030263961201003
P 2.3035968552265627 7.056284788388722 3.591709160519856 0.10836017117365854 0.8061233734746052 1.215303900070294
Ni 3.581000608115992 4.779237298572569 9.732156475374051 0.5162435762244787 0.5779125139891854 -0.5508812209030062
P 1.930592147185259 8.01557719015161 7.519746052084781 0.38032246471341596 -0.06759507344115456 -0.3135406312021762
Ni 6.615065787477605 3.2528338004733834 4.069590337387257 -0.7698168257340872 -1.0217641096044985 1.1586972073198432
P 8.988144274619705 6.742095712848946 1.3092278389120393 -0.6199101985772099 -0.5447879635210746 -0.8042130438257697
P 6.553992996383694 1.1344627095717803 2.276613634332617 0.9532511523347649 0.35689971491410144 0.8266230360898539
P 3.9436260868923205 7.770601477678276 9.749025960657125 0.9833883380397773 1.2865537966552165 1.085832143729001
Ni 7.270206068916849 3.594182784321509 1.5700665659518447 -1.1476157526947008 -0.6263616106295083 0.645455651146482
Ni 6.539913507131206 7.791295181658445 10.731570796181549 1.0145675918560593 1.752422777081885 -2.6628246954616075
Ni 3.1932411133744782 0.15839980448048332 13.467787248108248 -0.46388588855836876 -0.44735009568687467 -3.082515634670317
Ni 6.334928354472923 8.297351988200766 6.064844527854315 0.004579134730250178 -0.27684404711209093 -0.5271265416855696
Ni 0.15369769910135048 7.530417601888771 6.144441745510716 -0.049073874708515486 -0.8771251586044635 0.06246855084786661
Ni 0.4838395205122941 2.39870278755563 8.630371686817 0.4602850585809879 -0.5594221684944818 0.32108604764960186
Ni 1.0308276779714947 8.87545285669998 9.60621442643904 2.0125199437529404 3.6109876346401877 -1.6706583541188842
Ni 4.624464673944845 4.699653956891121 11.954436417115017 -0.9001172486242626 -1.4770686842517593 -0.3736417102591307
Ni 0.06447333002243616 7.587299848546823 3.123738204964014 0.9616566027896405 0.6937443109495407 1.472499319713522
Ni 5.64814159949047 0.9019818500112821 9.260502836065635 -1.2952181571984338 -1.082377352411181 1.3162243271364558
Ni 7.513054131897364 6.560024420163342 4.768487118243844 -0.91126478060065 0.8344381612588985 1.1869343477886656
Ni 1.2816775531750073 6.2614134391709975 13.249534813264734 1.0379936840894832 -0.03973228559261545 1.373639631831131
Ni 3.2835552090197146 5.084517998192405 4.028905053759548 2.907146344465961 3.2686660746505773 1.9645382736673394
Ni 6.13640940614282 4.080877980479166 6.31714860523292 0.044100846973956304 0.8922969812488954 -0.9891285829576644
Ni 4.856563481661634 2.657924500980892 2.5679915321143687 -0.23429331823407393 0.852744415767254 -0.4293336045047961
Ni 8.233753769665379 5.456958416585613 3.1091832323031294 -0.07609925425742378 -2.2231046055161645 -2.8929065467174957
Ni 6.245428316024939 5.948195681877944 0.8809837996471395 0.9191791503517202 -0.3197184778781139 0.8933156523213971
Ni 3.8264203517878284 2.796092208914648 4.944389152465267 1.9317973317908923 0.7871512032474766 0.6717611218102302
Ni 8.734509953775587 3.0310587181217588 3.8767374121630342 1.5439027111571733 0.058530649246041136 -0.04511566139171585
Ni 3.128209044093927 0.48568780037605713 10.960411524979332 0.6555783414027806 0.12791315360492164 0.00930507945100978
Ni 2.0970945959734 2.6113289770881276 10.789762009810184 -0.9498220720485577 0.5715639460633383 -1.1954783807039344
Ni 3.316626282658117 0.4040341632315956 8.57036549566449 0.8663771760593402 -1.4141319355182225 3.847631712494625
Ni 4.451625529928087 7.881433514954276 3.9069565104160606 -0.44380891530283567 -0.3722229755347331 -0.47640176163719244
Ni 1.558632762590428 4.370839603750698 7.483244837437954 0.2060440935803935 0.3363745983775561 -0.027426471642068892
Ni 8.195372822944895 2.968145047684059 10.727535662665165 -0.36829535834555277 0.8996161406181281 -0.16591585810094006
P 0.22016916951704396 4.523318067186162 12.306972211970391 -0.6083847144361135 -0.7058783752089134 -0.6614324861907125
Ni 5.205229729635066 1.1178577928778135 0.596663222726573 1.9218443343432385 1.8007700580370214 -0.6809988383584142
P 1.6170783690932045 0.6569756103930502 1.1696281303631155 -0.7314724216279338 0.6066875292393487 1.0675688266434389
Ni 0.41062710146434783 8.622641843703084 13.412100185426162 -0.2320754846471487 0.31111968046550936 0.4568963446144131
P -0.1326543205523609 5.744829392964199 8.245423464601 0.6857718342670255 -2.2966998624048123 -0.2622450662519935
P 6.867590030325468 0.7008199909850984 7.4479480574170625 -0.9412844668911918 -2.50510731401106 1.4286892645071072
P 7.382545962137761 0.08853982098122432 12.080676336979023 1.2690070460207048 -0.7678396474030582 0.45732700439392854
Ni 4.959726730113511 8.09142326924567 1.4262938892020025 0.08577662944618776 -0.42831081966723655 -0.3530170920302436
Ni 4.277093516967041 2.671282439535816 10.245646179166291 2.3619094663329254 -0.8356555786057673 -0.13764555040133714
Ni 3.9424975075961286 8.217093349071598 6.384804158844619 -0.21407082053961196 0.24053672804062445 -0.04241728862394631
Ni 2.5572311760706796 7.725356548680954 1.4079202482340039 -1.6779119503575037 0.6146232391466575 1.8182558735266106
Ni 5.784311167030969 5.089615106325205 3.252184404845575 -0.11228727414220663 1.5078555877256288 0.3223312329106126
Ni 7.68134195612948 2.232533362166365 13.082500452103389 2.143857806768695 -1.6657686301267507 1.277263372492226
Ni 8.471208703714092 7.5633314144777035 8.879616574250928 -1.824057310699736 0.6014357939221062 -0.6745654240282447
Ni 5.719584369199388 7.764662560398317 8.240738935456807 -0.304008780452341 0.04699359514071907 0.8749847152226929
Ni 1.726550560823793 3.6252927201665295 4.982285365127388 -1.3245981530224478 0.9196697168348936 1.02349137670825
Ni 2.47134814176049 7.611249781316004 11.561649194115468 0.005453566915403511 0.6153403198183404 -0.6546121208347694
Ni 5.049097259461932 6.225298901692865 5.559586052404298 0.5727821347411555 -0.6758998265689521 0.38903670465796225
Ni 5.868445828497058 5.298467030670439 8.5131085976827 -0.9504584200809759 1.0001575870783164 -1.0312396531951014
Ni 0.40999805726647054 0.26136416395803236 7.270488213740897 -0.4997152395521523 -0.018673408039787197 1.311258498490748
Ni 5.17355550414195 2.2104243087409716 7.486466838822082 -1.0728727553548556 0.6297847773784444 -0.8868588409524598
Ni 1.612425292158906 1.7579750187677519 3.4785478095817166 -0.30977782172563423 1.495744920505024 -2.0828013057770063
Ni 0.18318322081185223 4.421005878531412 1.0534667936400994 -1.2102329133052898 0.3604167269284244 -1.5098546204335286
Ni 7.83119323497381 0.5766411159341371 9.378944458005957 1.5046255108241056 0.23445401218165426 0.030385811380708963
Ni 3.406376088655258 0.7076478957270577 4.473913120897878 0.5556395615235978 -1.6303894792965083 0.06467661424277893
Ni 4.11439308531607 5.859010165528899 1.8206648234762066 -0.02515310222685991 -0.23247631962999318 -1.1386017221215488
Ni 6.9086814174868065 4.287315485182548 12.721232968742477 -0.024762551656660577 0.8478567486576495 -0.5336363177796294
Ni 2.624982936442053 3.863561711412496 0.4266520024052721 -0.17683276212375995 0.479794075148193 0.4330025687159511
Ni 2.516047282409654 6.260442120924275 5.893938769681032 -0.0007695311761728682 0.7044025619943352 0.7762062742001986
Ni 8.126899511875957 0.2085855056261328 5.163387189696263 0.40657368510046105 -0.4885944470486424 -0.14499479167755674
Ni 3.976983930679755 4.461930753993313 7.040686342411359 -0.5963864044236568 -0.5959282338403157 -0.4627474040785514
Ni 3.5997239236528102 0.689359360738772 2.047190114586802 -1.2068035759087667 0.05703349587522436 2.9025965203117496
P 3.4668660888011362 6.887016395259914 13.283991634268462 2.0851870324003636 -0.6610835874917259 -0.6509290155562274
Ni 0.16854129204126111 2.1950034752430088 1.2328119197799032 -0.9084723054571775 -0.7027107761142091 1.4738535197485714
P 6.208767990198648 4.144809222413432 10.123725387772712 0.20251011228520607 -1.6110491270966834 1.9993576953393695
Ni 1.4094752824937566 2.1277882525698253 12.842097335909623 -0.12679909460513647 -0.3928846176491428 0.4417414912508457
P 3.006997777552952 3.073602457328196 8.583471816540262 -0.9269292266107841 -1.3236365604401268 -1.4201735137266123
P 2.716101838634574 3.5580404948934703 3.013203113552012 -0.5830428932372153 -3.0632380173876275 -2.7595706794351056
P 4.777868202377189 3.824764485443416 0.5150243866220615 1.3437191901226149 0.09658940379097558 0.1341424223440851
Ni 0.5233841989988515 2.0628856923888375 6.047161910438985 0.03574399036882876 0.45044518967243063 -0.8450671017276543
