# total energy = -340870.32651669544 ev
CRYSTAL
PRIMVEC
9.26481100596428 0.00000000000000 0.00000000000000

0.00000000000000 9.26481100596428 0.00000000000000

0.00000000000000 0.00000000000000 13.55998740867841

PRIMCOORD
 96 1
Ni 1.9334826204117779 7.110936812325727 10.837656906888922 -0.20554478534647183 -0.23033536202759042 -2.059100105505325
Ni 0.8460412087055821 7.9696735912032395 3.8589150467621174 0.48398368774950834 0.5075928425280162 -0.4578682216093792
Ni 0.7229424477018724 5.37195036400716 8.03436049986588 -0.8428724080691807 -2.179887189588426 -0.33234902215793083
Ni 7.402231727144127 6.881567892566205 9.48247172929306 -0.12268970042245322 1.4596623158498538 0.06881840432529437
Ni 7.959473034566521 3.025433215510427 3.9136830490348653 1.2355888755715752 -0.3531605595866434 1.0875576110605398
Ni 6.912141768044107 8.017998844079827 11.709238419391454 -0.9827985269745785 -0.05948221452603304 0.7903123745842776
Ni 1.2753011998585528 6.880780383652381 13.173677024804908 -0.984701400424246 0.546976229421645 -0.5405135045154369
Ni 8.670037695105218 5.264756503619486 3.093602766534323 -0.7988862322962177 0.1932320294173898 0.958534255110575
Ni 4.1452986854014755 6.9193219963760395 2.932550708289636 -1.524715082485129 -0.42201084559113766 -0.0814494628257436
Ni 5.380288693682952 8.882414951947627 3.0499395664275784 0.09383292409176097 1.218235471894792 -0.9366832206737545
Ni 0.3784295334493459 5.308810678739917 5.324505268151908 -0.26584538200874214 -0.4293017228255961 0.5431725394048388
Ni 7.547485430096415 1.4436891352557863 9.926059750272266 0.9941622887268298 -2.3363025643980992 -0.05092558320527358
Ni 1.91158987260745 3.2892672312632207 10.028993650676686 0.037812699972399395 -0.4964034015701 -0.4360187298344555
Ni 0.028492998983254584 3.387891141706332 1.893543874226887 1.0879291354673457 -0.8087173594540266 -0.9500287887427251
Ni 2.669293890246622 8.848505744599409 12.076225911563464 -0.516240490900685 0.874772342101571 0.6894233149766836
Ni 2.6481515921131153 4.538071072374258 6.286789277905548 0.08416557620532601 -0.15529308827977126 0.4100580441046357
Ni 1.3075983301361187 2.5769607863033577 7.5621340223746305 -0.5428115565209942 0.4759273931039352 -0.6265665275514628
Ni 6.259018934160862 4.792278949756889 11.41075586439252 -0.1787801156581179 -0.4826487709881687 -1.082579441119658
Ni 5.475178885393459 3.9298084521467715 9.002298823620782 0.003762295255909649 -0.5285311353425801 -1.2029520633731605
Ni 2.974217341679566 8.269779341045725 5.891353257841888 -0.905498053320202 0.8622307579911344 -1.5288543014644829
Ni 8.678181463755243 1.2268462396314535 5.932846639270776 0.19368582912535676 0.5155786889469701 -0.20973799749221297
Ni 5.688667919525974 0.5870424976836727 0.6066681462972605 0.6671056253160899 0.17102926806810545 -0.35641043398250877
Ni 0.7888726939672807 1.3894066090663837 11.356950475956788 0.8522476786364935 -0.590446384790138 -1.2166030784976918
Ni 4.396087847617031 8.391556013555284 10.510521998161819 0.9864471794707592 0.2621283381684711 -0.43779613344985246
P 6.225693409889949 6.639950892994021 3.2216359657439506 0.7884619516391002 -0.6599651576165666 -0.44117893387915635
P 4.326064407961884 6.198686486551136 10.509450986039019 -0.18472476327732704 -1.255216934215148 1.3738584327101564
P 0.32974851183992504 8.73210266232536 12.582054004686 0.20648143822812828 -0.015109601947928816 -0.5833794506410276
P 4.88374116148957 8.479840395200416 12.715470985422964 -0.7809808127707066 -0.021473339382427535 0.14141530185641452
P 2.9841492188045087 8.880469341689944 2.9618126865652132 0.24679864978993626 0.05900270378645322 0.42035685492748254
P 8.142017600791098 9.309096546268629 4.148230998004129 0.6998465671925367 0.3969765283303292 -0.6746901225315671
P 5.7241150854588385 3.5541667002523654 3.4519934408105915 -1.41165159229853 1.4889921751622226 0.9889509197292194
P 2.0935785501869746 2.4732134355150097 1.4880462696877719 0.270707852307366 0.7275664017053083 1.10009431007497
Ni 2.8817360007642874 2.970205678624435 13.025370566710206 1.9965438800396582 -0.463594325459879 1.0885893947591638
Ni 1.7955481179526853 4.499779609540873 3.2380569163188095 -0.40633251562393247 0.3130935163624285 -0.5320558606663869
Ni 6.401808197453415 1.8074626645783163 2.6237082419090703 1.3898018434132904 -1.8026621328534116 0.04819070077261378
Ni 7.629664301456715 4.757952825924879 9.331996379001579 0.5188709865449967 -2.109721527206618 -1.3624913285237954
Ni 4.804332468543782 1.3983008273872282 9.221984163183485 0.7285300511701582 0.0686728798863656 1.9956169973500144
Ni 2.3500007173390642 6.435004014373817 4.534404986760135 1.0366119732506083 -0.631897195735757 0.5469895991580838
Ni 1.0169056280165256 0.6144913524953032 8.907108452041946 1.0676996957943483 0.4953309944415276 0.6801817417737577
Ni 0.9549796329576477 1.2493412001345887 0.09668849147725277 -0.6437510097505493 0.779932059791218 0.686064940027412
Ni 5.625750589716752 7.388121420370538 0.9756559111103853 1.0722693174429017 1.6342407347217984 1.0471180149882546
Ni 3.3022750255574556 0.6402030552911436 0.45920756542411345 -0.3766229043746417 -0.6464866635141576 0.01783548551952412
Ni 2.060725531264356 5.043457234023981 0.7857411879334834 0.2773382131396901 -1.684024748123461 0.1686638531597224
Ni 4.202675658381672 1.9465367387597672 2.007176778086423 -1.447286310783004 0.5653076807409814 2.0723400012343665
Ni 8.371970203627926 9.135251637339127 7.959617565614234 0.5106863938516754 -0.8698566499675083 0.12705980446569085
Ni 7.798283857122721 1.0964347635020748 12.336795008007647 -0.4174715629598875 0.10763152053775013 0.31310405788538986
Ni 8.046803140704311 7.613478677074929 2.6450386157008197 -0.22837489586710993 0.5090419162697168 -1.4505161305742114
Ni 4.915676964147851 -0.3693148126326307 7.344034818412478 0.8820804457272099 0.7339872176299875 -0.9210126040160334
Ni 0.3838698303222623 5.0413448571727795 10.548340955646909 0.8345793148224528 2.583485079890015 0.397739888858915
Ni 8.138821241082045 7.231981564785967 4.895576030742744 -1.1039802753929375 0.1765543116513927 1.262717099246935
Ni 1.3310383013358433 8.484583978304865 1.495897270318067 -0.3273471980679653 -0.5764932650441555 0.17391147471190693
Ni 3.882029823104486 4.566921693052497 2.2739282827446683 1.9568427047952945 -0.5879904670504777 0.18284502975611092
Ni 6.696401384899129 1.5479367858246817 7.7926128664621075 -1.61726425476846 -1.0805608680277328 -1.1205343230968765
Ni 4.401850559904078 1.5763797548298815 11.740236623201746 0.028984560157808148 -2.0553424382351055 1.1840914790232318
Ni 4.826151097862104 2.871322353480299 6.410687592077059 0.33341165909449033 1.1619164855880892 -0.021821466750465642
Ni 7.128465834266391 5.061810824121472 4.810975337852163 -1.1631776116887 -0.05814395533058374 0.18492299533106218
P 2.8034854091623598 0.7664648226852036 10.194710541134441 0.14993928016702565 0.1029233164288034 -0.08256609292869008
P 0.5907382306921984 6.175265044972913 1.7715309490431805 0.8275990268498779 2.2847079801502588 -0.9006525523024425
P 3.393709442857884 3.381915338772015 8.28909832442346 -0.05542629928910455 0.3359655358645956 -0.5947434695035951
P 6.27985549353959 1.3646047106862798 5.646920682282511 -0.2300671959678683 0.04706301492607378 -0.06520806126621673
P 4.099789934993156 6.633428466225402 6.523859108361201 -0.47294594187810796 -0.6299143609777732 0.40629703440030673
P 7.9283154760113135 6.094716780304766 11.924150528455302 0.14234938363490968 -0.11268270980841238 -0.6454314827767659
P 8.406426034810446 2.68402493934052 8.398377693711158 1.7922010854210877 1.041868079443225 0.10683704966091277
P 0.6786047693724638 7.236780736754922 8.90096495603304 0.21598217862971192 1.1465482306621353 1.4284843475851527
Ni 3.4783712834994205 1.3350221699587217 7.438547932325424 -3.275051152241314 -0.21485474989348802 -1.2500276767047247
Ni 8.914091339904886 5.026326598945603 13.58236079776125 -0.11256443906299322 -0.4485747121225952 -0.42338484312052893
Ni 0.5458687522256894 7.3316987228976815 6.696016895252968 0.45320604024701944 1.3060676983184283 -0.26636243085447675
Ni 4.7096924267235485 5.360369350568561 4.922668190340464 -1.137663783688312 -2.0031331032214017 -1.8280214375538066
Ni 5.4471620976828 3.1244555128158265 13.962583072090892 -0.5895930356509071 0.10707770491680914 -1.5964005239455732
Ni 5.7927765979336066 5.2589845265216875 6.957643106603826 0.9140677972670838 -0.319844719043333 0.9079547423908105
Ni 4.216823024398265 3.5986192622350845 10.810849176981252 -0.5652886545775877 0.961061649518119 0.4281411268585917
Ni 6.809413546438356 7.622585986043044 7.104009513327295 0.6721655563375004 -1.0524232292512519 -0.516498115437446
Ni 2.7792116049950555 8.146057058278481 8.180306284181258 -1.195967404525211 -0.20068385770974467 1.7012166865217153
Ni 5.521039698610313 7.564328856041514 4.967877687361531 -0.16381295282532432 1.0445952485664007 1.9175577911527424
Ni 7.41090359000695 3.2924172669185197 6.570925273456743 0.2148997441988105 1.9024271061588913 -1.0336135527439168
Ni 2.524067981726587 5.134678560677139 11.890508147656709 1.0542553973639843 -0.3331272950848521 0.1528579964757174
Ni 3.418298250590718 2.886136785870955 4.348688149334457 -0.2247954060459677 1.17029571079072 -0.3220113876773487
Ni 6.333850810595715 5.605053002499288 13.627787091353888 0.6895976357710187 -1.1433546634255018 -0.8370511734017132
Ni 9.044382373494502 1.0374457134512254 2.294024583744401 -0.939343284004421 -0.44762803193860967 0.8705349069814555
Ni 8.919816992948927 8.445060295641614 10.496935153195654 0.532437926596154 0.29805076309669315 -0.0599936069448128
Ni 4.8275130250424825 6.916764908608796 8.550101014010783 1.3123159932209851 -0.420947694433946 0.4500042454802702
Ni 2.9738189548172778 5.485814888135469 9.010353650087596 -0.7307756526712254 -0.9217808496406253 -0.25185215305344366
Ni 8.508005419883087 3.2190399657715543 11.06103056761155 -1.1792650041688657 -0.21713094752217446 0.7415794281549486
Ni 3.3563444610995874 7.28237287046 0.6415918504227006 0.06696978115232982 -0.14129883088320827 -0.7177162483841059
Ni 7.074322280238253 4.157407793052875 1.7278538517203097 -0.3547651850696019 -0.38781105978097724 0.4863179923096399
Ni 4.163819042092484 0.7517402589588309 4.928920084635158 1.067545172494355 -0.18008469340215436 -0.5113093721476549
Ni 1.5313064505268532 0.9594638013610732 4.319899602888249 0.35398922613552586 0.5598631126866422 0.5529489020653122
Ni 8.053371891526684 8.686121406568745 0.5420794446285797 -0.1862049473672793 0.2678048197279581 -0.27097781813930105
P 7.425078750455796 2.0472267020003247 0.7485225901850505 1.319293710090399 0.09102939320469483 0.053942001434094194
P 6.31640517195181 2.45446145855523 11.213173583838191 -1.370414182915298 1.8396875610378252 0.6628285952072908
P 1.0859099384890758 3.439292311752211 12.24908875055337 -2.0156312356884127 0.844696605762113 -1.03930288981921
P 1.3738880510586609 9.53497263237507 6.707542319827062 -0.20686376126821146 0.5915213630218716 -0.10182237005514078
P 7.972480828860756 5.791183050484455 6.795655302473301 0.1917431035766891 -0.2846512018613356 0.41632382250868943
P 4.207030119434585 5.003535164498441 13.640804150458873 -0.2782954348466369 0.263935566580539 -0.3806834475972605
P 6.421801659053814 8.862514138454738 9.033554589169949 -0.6849107718183107 -0.2907478016773767 0.4956747509341915
P 1.0213342075554461 3.32350070698772 4.8240739272917565 0.4121666058072063 -1.7545531931613267 0.7797106878090314
