# total energy = -381175.28316536976 ev
CRYSTAL
PRIMVEC
9.20045307110255 0.00000000000000 0.00000000000000
0.00000000000000 9.20045307110255 0.00000000000000
0.00000000000000 0.00000000000000 13.46579306560640
PRIMCOORD
 96 1
Ni 7.482719449855978 5.821577610665844 7.673953631357604 -0.6510480576325949 -0.8706752892140618 -1.298447462769009
Ni 8.899110830967263 8.020559547531839 10.65484897061711 0.17499622313565347 0.33421924259745023 1.1523350125472414
Ni 0.4958529091002424 5.495890765107874 6.0421152358552055 -2.2194970906705644 -1.075642861900825 0.3979566328554114
Ni 1.302186154581975 8.376313474399549 4.560716212023533 -0.873505045353373 -0.6012342194342613 0.2936503200361523
Ni 0.44819088094327436 6.132810544125405 3.8199490767761093 0.22353196595251182 1.303930083150135 -1.41834597359957
Ni 5.6439628601503875 1.9169328412015663 5.207720607878154 -0.456500137617259 0.6184472408784382 0.30535501006759025
Ni 0.7125511851370478 4.790308003282942 12.834409670660364 -0.5006657763908797 -0.032632184212724444 -0.9359028908643043
Ni 4.307919037508486 3.020490409983066 9.999832820048745 0.6519044920956192 0.11307557437145688 -0.34201945536815936
Ni 2.847098667521824 0.8177454877267145 4.793189585249347 1.1232306389821172 0.6132662108981309 -0.689018109118465
Ni 8.494116078160227 5.584187515208719 1.695976595388094 0.06546440025139694 0.38722741936336535 -1.2622861823571037
Ni 6.291214748198164 6.067478125404335 0.5981113470491691 -0.8299050492752352 -0.9151803136049722 -0.4605727650247359
Ni 6.212192055000689 5.009002777680889 5.622413558484638 -0.7460490338905281 0.2974624946933909 0.7142421737925764
Ni 7.421186818338372 4.748850760816087 3.7859073996506405 0.4662878131316421 2.8271181874677764 -0.6211193883939625
Ni 7.601635308463191 7.950323287214046 0.6920801765953803 2.0045857765075286 0.7436103425420484 -1.6179170578611104
Ni 4.791789276260563 4.1171384383534235 12.91058482356856 -0.16223583814619155 -1.597607913990113 0.008097946516786053
Ni 0.06064202764037669 3.5009472805693194 10.86484839662282 -0.17618150169300625 0.7413539424077039 -0.19441010888589097
Ni 0.8819526910119884 5.762676308785505 10.411805196621176 0.2680997252605576 0.06006148406827075 0.4169912808893593
Ni 2.453319267259638 2.793717637607777 11.52838876715247 1.3431082960114933 1.219282425102068 -0.08646928463783816
Ni 1.7967289191355507 0.08130624570086431 6.797505571541337 1.8005962514633183 -0.4622357545494555 0.543384655415645
Ni 7.072609245026843 2.966226136554413 13.49353290357165 0.49233103127293915 0.2473331821371676 0.27703996517298096
Ni 5.331947888162269 8.79538492072063 12.748551040677963 -0.850637139616264 -1.882199980478739 -1.396417548957595
Ni 2.847310277947199 7.244390908164583 3.020229117109995 -0.897236841752674 0.5406713702495398 -2.697257937438813
Ni 8.90630558543 8.21438549672164 6.819885674138014 -0.5102382505706632 -1.5665207056670054 -2.9683208590927523
Ni 0.6094352649426902 1.447406109108572 3.569001193369771 1.4196734341617423 -0.19612040670877837 -0.056855318426147244
P 6.620388565548176 4.148935204879267 1.880430962869786 0.2566125505565645 0.3181364781029747 -1.4255584321876094
Ni 5.87961406993813 1.106621319722792 0.6917876021811669 0.9602265552113334 -0.6031939142637934 0.06458842540434682
P 7.868549658486702 0.709722045754323 9.996560218818061 -0.6276322498118159 -0.9008304726412035 1.85703685094955
Ni 3.055415330623142 0.8386544378443744 9.14910462736876 0.477762389430145 -0.6470435644588921 1.2686938856556602
P 3.985571956490123 3.489547918958926 5.315164421294083 0.25343106750478933 -0.016250657530907497 0.5640673805759769
P 8.993424677511369 3.4649551073490934 5.628957840900678 -1.856750687167699 -0.4863143927652141 1.6061447478165305
P 6.243896816993761 4.28204736289313 9.334407276642608 0.4008982319822386 -0.0955221388687258 0.04311354336002252
Ni 0.3754051750223823 4.392857622163171 8.34828061330939 -0.21236566492304715 0.3676811218003216 0.0899274183897677
Ni 5.724034405021459 8.743751976929243 4.358662297467974 -0.5506467362946968 0.8060930344573021 -0.27109660310535244
Ni 0.6609743641106509 8.41593982666425 2.0924903703642506 0.039417839675990184 -0.31084174421377436 1.1233918471503297
Ni 1.822637395564016 2.9493617056973895 5.272397034280561 0.6022716595598402 -1.3048024584527593 0.2206497593087103
Ni 7.55124442586422 7.164061750601753 2.9764791216864728 -0.38800594940060273 0.2296023405163078 0.9944474240674165
Ni 3.151882083234101 8.354674008291683 0.5870441218020808 0.25000532965269207 -0.5331413804210818 0.02660886083677998
Ni 2.544385353796907 4.388551810029463 6.928689314548308 0.28614681257025554 0.3803952269328804 0.5024292960492057
Ni 0.2022922062954379 0.31107376561786687 8.55957178295521 0.2803430614042849 0.0774331425774989 0.5388656844993688
Ni 7.169802833446696 0.37679720360321567 6.426186317819339 -1.9561325661021471 1.946196280825042 0.257757205683969
Ni 7.2179396049927655 3.322099669314725 6.957021190369976 0.34716988922084724 -0.2690605465119302 -0.4442498594949962
Ni 9.102330442953038 1.2888086955169935 6.003522094493528 1.3019271937874932 1.3079106650644376 -0.4179937540119446
Ni 0.7331758412484437 2.0624564106863095 12.860613481639025 -0.7814636659443961 0.4592321918364413 1.645732537411482
Ni 7.306171951920671 8.047075253876598 8.724770521773147 -0.13664050617559048 1.2316275769309821 0.13069045923974268
Ni 0.3125725194567152 6.87755963555118 8.407691620301282 0.6358916616071306 -0.718342054893563 1.0875311286979785
Ni 3.5068171697601436 1.9277341733489448 7.313501033001253 2.745510601797614 1.1347615224398522 -2.740139310183371
Ni 2.9084196886140545 3.0225789128769804 3.1037572722772917 -0.10228516862417224 -0.3962298799722918 0.13539352114236683
Ni 0.6121107567556866 8.814190647219133 13.104734628713715 0.4930630243429573 -0.2380687261161061 0.6410099566703025
Ni 1.4623752465905016 2.193378860820209 7.759622732002494 -2.5194319581638482 1.1805744670089087 0.9655672506979563
Ni -0.029095513443671447 3.494019339251622 1.2937870607852613 0.2586524638047287 -1.7179627956318024 0.19343566078776364
Ni 7.619622194620027 2.598235606828089 3.7536570507782328 -0.7585322539592033 -2.811147265960817 -0.03611860009942811
Ni 2.3547916131145965 3.6118127425590236 0.5021855810909074 0.3325169151943628 1.989101050608368 1.053899299576146
Ni 7.287495031768049 4.868925876536222 12.14299468683692 0.746470951919295 0.44079506817717634 -0.28102903172771604
Ni 1.9515081446171105 7.347997212518614 11.949518354871651 0.0018414240841129574 -0.7596149455004207 0.9375939054134821
Ni 5.759989776428576 0.3947399275843212 10.380793228759872 -0.792046840776881 0.11084848481315104 0.30709513268714855
Ni 5.153026673281457 4.069351284031886 3.472963181881528 -0.6547797567608853 -0.28896037075965075 1.1463258302386838
P 3.728796505978035 7.674530499778082 4.823864816520706 -1.7086996251623219 1.5877197083421235 2.3624846221101055
Ni 2.632921315682959 5.589017753179225 4.631182483673255 0.9126102388849509 -1.2867211754710162 0.9387704422200865
P 3.5789211220931985 7.9996285163263146 8.013412635426146 -0.5118037952855702 -0.4175247847953261 1.650253050989655
Ni 1.4853395779702776 6.600966408680104 0.9060422378275602 0.3876688777761581 -1.1608193958691684 0.04927390653446353
P 2.0774807508879016 4.922960138632947 2.5149659843978798 -0.5182598353235591 1.0006815779025864 -0.8970301250585067
P 8.026438637175941 6.909641616128616 5.079903310725292 -0.19482508493612255 0.11314190883301804 0.5553585399480694
P 1.1698928369097794 1.219602885966242 1.4518821296279074 2.5770421524781493 0.5474210302685476 -0.5771452968058576
Ni 5.75548155432277 8.091476641392141 1.8809829900664152 -2.602813090794666 0.3621352522814279 0.3082552144335208
Ni 1.9130042476522215 8.123577022876132 9.755253490400852 0.16579810157615318 -0.3597677804905159 -0.5882365216230128
Ni 2.9065059943324068 5.197501664423219 11.523299076399548 0.12580742011582852 -0.4324934902900165 0.3012404736785844
Ni 6.933710001901652 2.6614795226552443 10.94930579757111 -1.072615645038727 0.25111398933583845 0.12379116101674809
Ni 6.357375207714177 7.578956191135007 6.390232786502877 0.5020570003114515 -2.251248929160865 -0.18751543864858675
Ni 4.069452489017935 7.538869816206447 10.659602844825416 -0.25316727232044145 0.2245706916296713 0.8198201542354074
Ni 6.5334626829856255 7.399317340898578 11.129249182811014 -0.15802617094021817 0.6350113158847064 0.9926221979332195
Ni 2.8050341951386764 5.906562197586914 8.851308035875157 0.034051947378386516 -0.2222523279091398 0.4120766171965613
Ni 8.158805558474354 2.3848586944243357 8.867494393325652 0.376689495946519 1.2603542554417133 -0.8472823642114181
Ni 4.13935753301775 5.160276630463854 1.424626706839667 -0.7493683280717481 1.0574492217109337 1.0068342277675435
Ni 5.042124409478644 6.593164424301078 3.8228987420967653 2.214315032248993 -2.5216441353238186 -1.244813736603953
Ni 4.034435563845087 0.7386234296338464 2.4734240977608746 0.10350052908851208 -0.4219013165964669 0.2672898277647526
Ni 8.355078828235879 1.0369922893212915 1.5552584226500086 -2.65361706082041 0.2611847433082792 -0.5529388747629832
Ni 1.9702770693025047 6.89799384227974 6.702289160530744 2.288183340293369 1.284407182625859 0.2564387439828616
Ni 8.02139678878006 0.01695827548045004 4.123791286118133 0.6482216439273932 -0.05453875447782865 0.2548773130330127
Ni 5.792761791001798 1.363093155276734 8.058146159304997 -0.0519473396015686 0.49386469430864627 0.1826128591406468
Ni 0.3592510191583555 3.828787032194144 3.675609605628136 1.6414603923986892 0.7050576790798309 -1.7835986884640573
Ni 5.190564522652244 5.337090941544197 11.108821416399747 0.8030650462642557 0.7183721368005499 -1.6379060993885277
Ni 4.8543247571853785 4.0837591938639095 7.578912028959277 0.929422168235967 -1.4499165493169999 0.6061159730065948
Ni 0.962523820496008 1.3748329336583822 10.70005447774908 -1.1223958017856477 -2.501624497668782 -1.5554145684515148
Ni 7.787889284605895 5.994564533182891 9.924411184263949 -0.25143486301036694 -2.015882689577586 0.011413898263896471
Ni 3.1141050220781072 1.6035009994087648 0.15709497957141946 0.359955985241922 -1.2545145088314844 1.5222187984258364
Ni 2.94767802274767 0.3218520966320526 11.776361223968976 -0.06551402254240975 -0.6194661690612557 -1.4669693910342283
Ni 4.496703138302407 9.050596294175604 6.3864081580755645 -0.35199482141331634 0.5284794561690381 0.542409178876253
Ni 4.736154135293614 2.7930552049718225 1.4606750028248834 -0.14891983776357579 1.5889317263723537 0.7155657777000064
P 4.7081663564245115 1.7184514626535254 12.052261656708286 0.6188740440032116 0.504067602983577 -0.6674082441581731
Ni 5.369798552944479 6.714444799400519 8.9755031145728 0.2672720871529397 -0.4703200742194868 -0.6638709204288761
P 6.41358077678431 0.8525765637433635 2.737892047257991 -0.3231159335954371 0.20197146617291667 1.0940637876101738
Ni 4.489085162988924 6.169768764939732 6.8198589928235105 -1.511308579271236 1.4859230493185958 -0.9928937064270513
P 3.9558268910450844 6.4588102050947995 13.081883462909248 0.05620482932634191 0.4870319876575289 -0.40564500263860453
P 8.635094623726056 6.508354645992273 12.769840889561296 -0.062406073041047366 1.1411784817097894 0.09783407483135409
P 2.1456469092183346 3.5856190520789664 9.367761679908273 0.3068069120227684 0.2857863439070433 0.48446705514383015
Ni 7.968300972917605 0.805725095520113 12.501144411738 -1.5003302258828612 -0.015289322058902701 -1.3369224789157557
