# total energy = -381170.47629304975 ev
CRYSTAL
PRIMVEC
9.20138854336177 0.00000000000000 0.00000000000000
0.00000000000000 9.20138854336177 0.00000000000000
0.00000000000000 0.00000000000000 13.46716222381358
PRIMCOORD
 96 1
Ni 5.231256107731939 5.562322059963391 6.701946209899416 -2.9286585075061238 -0.2174777893386319 1.6067057625263232
Ni 5.1153462188975976 2.869462153122027 10.536438009611125 1.4528928583365044 -0.525439898011766 1.3072246947410067
Ni 2.968616313801464 7.653392767031508 12.055291858870328 0.04051595783617538 1.134975181112555 0.670079106122117
Ni 3.978321461165726 6.8772188555659195 10.02581708558286 0.4435934568579199 -0.49569557686979787 1.6648093515372746
Ni 5.6897428856026675 3.2263840065699987 1.5884384283908066 0.5498964883922336 -0.6978804446051013 0.5222643284972618
Ni 3.5762759993313438 3.3449438952443256 6.752003602710131 -0.09440113789040516 -0.6625342038953235 0.31032340981645906
Ni 6.762367126389906 0.596009807761113 1.5060464368381081 -0.6000581968482891 0.7916879147755657 1.531247484287008
Ni 5.1852307632888675 8.736028118325356 8.330570781696993 0.8948171765675881 0.955874963110857 0.32301617479277916
Ni 8.9041374831744 3.828440046604911 9.348163359140544 -2.3128391911688357 -0.247212083178271 -2.3901545772215482
Ni 1.7398169088334465 8.324109566809364 2.709107718360272 0.17132185960785978 0.7841018748981915 -0.6727335130258286
Ni 6.0307003302923965 3.6317143640393623 6.148742180803559 -0.8662743319328887 -1.2757453931858027 -0.7986597181077084
Ni 4.971142060938417 8.603859376306108 11.071973532829414 -0.33131132492203585 1.9959373568039107 1.4395071810582176
Ni 3.8184013319333014 2.639271021188335 4.2179955439156975 0.48437012455464973 1.8274599086233816 -0.022337487154935724
Ni 7.060657733378211 0.897881595088731 10.357351388480478 -0.5579988057843938 2.1874732294658004 -1.3725615682756038
Ni 5.814072044761961 6.575836582097632 12.172334438608495 -0.7944827039118834 -0.7720750256406445 -0.23913059172171722
Ni 8.807274468189952 6.427721834096807 1.2391408453157917 0.8182854627584358 -1.0457000515948056 -0.08448850676238352
Ni 5.211003852010388 5.926467003252989 4.497223634693944 0.9294666483206574 0.047831517660982134 -1.3704954297751946
Ni 5.553571539658441 5.7338083343307495 0.9861643154523959 1.8625744929383279 1.2941089832946553 -0.8964302866909788
Ni 6.47994891427651 0.6224325144989629 12.761415600954647 0.6554083914838196 1.2283597048129877 -2.2300550686920686
Ni 2.0466924111367026 3.683766617840733 2.852884011761955 0.5121894607597631 0.0890172478706725 0.20164622162301402
Ni 6.686474075417003 8.042869132402629 4.443880426109414 1.3178194395377174 -0.34046419506589753 -0.8229527863271181
Ni 0.09693754622994914 6.248718025461157 3.4561988017208596 1.4291746887839578 -0.7335177341927367 -1.023091055946038
Ni 6.017984011615802 1.4832177923832381 4.6058230204974935 -0.5397689130399285 0.27949048359600254 -0.8022662045120441
Ni 8.44381962902535 4.720965513544839 6.940086421214229 -0.636018159882666 -0.5831418807089247 1.566138125516606
P 1.260093326689506 0.35172030862316794 8.743716798416646 -1.8545158842999092 0.8953064574991806 0.18672431020585908
Ni 2.4412387414794607 7.942224346813201 6.136756452360626 -0.19000760894282115 -0.891642121273716 -0.5147351099997522
P 3.7538719955520015 5.595207821866538 11.98017172451742 0.2067866281733729 -0.1840763310600507 0.292925783165302
Ni 1.69052507153206 6.459623047448292 10.537152037345788 -0.9841519556786792 -0.7710252442198914 -0.2822657323482945
P 2.38511947403478 5.678774830709396 1.9835110781462284 -1.768224262890516 -0.09153487208620364 1.0364669630323116
P 3.6058584628228427 1.3361980095940738 11.456366131146398 1.2738067814021934 2.0108746948400333 1.4776374122710358
P 4.212119537326064 7.03381728361003 7.991804187569419 0.5999370978893926 -2.0672715855725237 -2.9138119294115947
Ni 5.523243763711946 4.012578229930532 12.743045949286087 0.4907564876969677 1.5296189475446496 -0.9004823452731654
Ni 0.9912839679210335 2.8993022554868575 7.299821139075684 0.24888484289500362 -0.11572303929663297 -0.29094140574542154
Ni 7.74224137277767 8.531361637628185 8.348630346578725 -0.3158073157491658 -0.5164076126061686 1.2870518193375577
Ni 4.930398313398649 8.559453476209693 0.4843196756164145 0.9329044703576126 1.1493880141037753 -0.42888623255473235
Ni 4.3263731762604145 4.765021760884588 2.5594471371194554 -0.6438769938054524 -0.14317599330126307 2.5948503843041637
Ni 5.699726391944278 1.774800587276581 8.47197587732519 0.9648979925450738 0.7275473755419147 -0.6792381469135657
Ni 8.009937363557816 5.095820872854376 -0.43649637989301954 -1.0415937427359159 -1.2904029951979779 0.154054844997296
Ni 2.625294112310081 0.6887377188285861 7.16873171990793 2.8496911876722857 1.8431235833025676 0.9050738212985897
Ni 0.8406618415993895 8.115587704400548 -0.09537515049095802 -0.7746049911513497 -0.7431948522711845 1.0735720954147252
Ni 4.366077166918522 4.711828534929891 9.239496803202163 0.40313174929844764 -0.6049723463204549 -0.6217539366541679
Ni 7.870425913648608 2.482166516785895 6.052156127607941 2.2800421992434736 -1.3395522032291187 -0.05222167630887781
Ni 0.8512876048466624 2.25656687763051 10.524762367955026 0.554652000799348 -1.9491566490049466 0.4056982244740432
Ni 1.5634446972611156 5.807529857656998 13.079361293561675 -0.41543319237362003 -0.331351691241668 0.12898684628507465
Ni 1.1529431595484483 1.5346259490012795 3.78571339987932 -0.7763325153654179 0.05486914123405389 0.5093113678810196
Ni 7.74513060871432 2.3466760735783314 3.0101799050417273 0.5320172941189676 -0.5745795929612104 0.33267606648004644
Ni 6.847415558754421 6.910040207750733 6.798062072151202 2.2442408732741477 2.128071747579032 -0.6241897997891702
Ni -0.09853582738344005 8.033106459381017 4.821297451930936 1.0722556905961471 -1.0132465590517905 0.409988624319281
Ni 2.3207097557018126 7.665998669048103 8.486372369511441 -1.5864974058992483 0.22034971156978825 0.8543827227016254
Ni 3.196654320865168 0.622177636042131 4.722138690557332 0.02264473398270939 -1.9769374186626405 0.22983579668335255
Ni 8.514615110861614 1.4401092880418165 8.525292401883554 0.7712885251836072 0.7510372311337388 -0.4633927509720342
Ni 2.796872400560773 2.1795788614459477 0.7784935814644095 -2.426456496976376 -0.5348105405933886 0.9349721515199189
Ni 2.6619708462065392 6.886484653617534 4.1457039163364415 0.7738663132131125 0.508374457889047 -1.102551770476527
Ni 0.5995597033800929 1.163671978345054 1.3933800373912486 0.16218647296549488 0.3095690481489378 -0.4096903763525719
Ni 6.966564336282079 0.31165930409772896 6.4583394537758 -0.34666903832502877 -0.43852169876196734 0.3550827163100207
Ni 3.0957334936257417 4.928926091265325 4.941048000255588 0.5514072686098053 -0.5834020763488469 0.6443796444734837
P 6.250125837876149 3.8609669543630596 8.348240207713394 0.734939811351244 1.499811891485546 0.9922555586224202
Ni 6.9008480208057845 4.782716030649488 10.568005212566112 -0.1307053716380781 -0.025650867798884855 -0.36667479202299436
P 2.852053126395459 -0.09735712953794676 1.0251699207360077 -0.8428297277567034 0.12836463932004344 -0.6493830112253461
Ni 4.163186554169676 1.1318719802652346 2.331609720321417 0.6257622864826126 0.38192631886542605 0.29905606443275595
P 6.619791614165716 7.655637905784829 2.184440875041253 -0.05862526584237645 -1.2062471891846647 -0.7545287892267651
P 4.778658218394511 1.371080472765542 6.471590373114558 -0.10880548624119325 -0.5036418283000681 -0.4731529156825916
P 8.564891496714662 1.1642148602567175 11.913239905642302 1.2962278294098708 -0.3394501519790864 0.8943348376145307
Ni 6.176698758976566 6.373700483192114 8.976254284375324 0.11353503050637866 0.42974112435585987 0.16415208133229794
Ni 9.087226708230027 3.9089337917444533 4.47975755935971 1.1074687481621703 -0.9755978954610812 -1.1575093576593292
Ni 3.1266501584255657 0.12651816944378105 9.962858426190051 -1.6891720966523551 -1.3140967392704916 -1.4205738344888243
Ni 8.574663371124608 6.544726688142809 9.464505713226549 -0.6326523287342265 0.014633690752774797 1.0499886516678305
Ni 9.224575831880914 3.7766178275118722 1.785274527616355 0.8959376633252762 1.7817624065862667 0.8383801766257819
Ni 3.6002548173278743 6.887616424382527 0.7828780430052178 -1.9461209475024162 -0.5495738149454923 0.17972216785641307
Ni 4.689091904358354 2.0315193217751224 13.345580461514329 1.3156396582775793 -1.406507071983113 -1.3713932589991156
Ni 3.3872334760240848 4.405882372848296 0.45984674306638684 -0.00537540537930042 -0.33267246693562064 -0.8439838959658046
Ni 2.9643192654498214 3.5816036031763137 11.443572520807804 -0.33825330345750776 0.12519549756344245 0.9304323546680364
Ni 1.0182256329608803 3.1804322732335932 13.217023264415893 -0.37206279580778506 0.22886032014396068 -0.7611023286792248
Ni 7.016169020786796 8.071089790420801 10.777324835343423 1.3054853434523968 -3.702058936826411 0.052726898080070486
Ni 0.06472440581396553 8.616134028342705 10.748182198214256 1.5762898692386274 0.31261272007126806 -0.23575164794715528
Ni 4.784464294432811 8.230862697439893 3.0555105446656365 -1.2521622065492242 -0.6701734656081362 0.4880840830711271
Ni 0.41293714520448677 4.47622698665623 11.249214355460408 0.28263905652731325 1.1068316287988036 1.7887282963811386
Ni 7.217891057217317 5.028126258886426 2.453083688680893 0.8904473296346664 0.8331500385750943 -0.26178638144802013
Ni 7.331380980920004 2.8158640660806653 11.71727885844725 0.11013088992083613 1.1097768274700563 0.06384871902484487
Ni 4.812666549674318 8.017445696437774 5.728392397157782 -0.827987006316916 0.38652036599401174 0.9360165336240331
Ni 3.4757140262369157 2.285146389793681 9.068315094788634 0.4676368709603689 -2.1812671006550883 -0.7813307399109576
Ni 7.9334186181782504 2.595361996061918 0.5801475344133699 -1.382151268846568 -1.1639245171570536 -1.5903111232183837
Ni 0.6373728087357114 0.5808790447858658 6.250958563520312 -1.661259172292171 0.6533026579947264 -0.26516918187732397
Ni 0.9982678216659939 6.090776194720388 5.71220439466304 0.0833569642611016 -2.287949112795376 -1.0509163056884225
Ni 2.1581580294060694 3.8551608783247593 9.268693728522496 -2.64823368502131 2.95636214406898 -0.2721209306048088
Ni 0.3505296489728414 7.448137397481008 7.269856817968354 -1.572660500016156 0.8733533502668571 0.9249240232552973
Ni 2.654885777189913 5.51680279187865 7.504939407940019 0.8491225027439505 -0.415524980756478 -0.736477588152009
Ni 7.798719494367349 5.549670151005129 5.048273618780979 -2.6381917274042754 1.8276391145137234 -0.9423414474007965
P 8.180328672713514 0.5985576721905986 4.4914065169896435 -0.6417314082173593 2.2595841884994377 -0.2049248923742858
Ni 1.698024203023684 0.6766314521984883 12.35793932323444 0.38781157400160954 1.3900818365475545 -0.09260702210445985
P 6.427353778563476 3.8609025446447265 3.92718566564235 -1.1919150888327086 -0.6902949189483595 1.2502454491424855
Ni 7.4273422598477925 7.917932681613339 13.495712153837808 0.3655450492939253 -1.047364583781422 -0.1735918865889591
P 1.7699882611782751 3.349498582469299 5.284352719109137 0.20714863949848195 -1.238101357580784 -0.1609664845154647
P 0.7066224573319845 5.449605052880698 8.31713031375857 1.128838729197514 -0.3758690569277527 -0.14860616317789893
P 8.613106771581055 6.671135361065424 11.795469496086971 0.5601649601977773 0.5032044836523333 -0.3361989920316404
Ni 8.635502950784261 8.447224142708665 2.24191918754276 -0.07497696772752248 0.6366704487546841 1.2513919040421029
