# total energy = -381167.07333071856 ev
CRYSTAL
PRIMVEC
9.25722358569524 0.00000000000000 0.00000000000000

0.00000000000000 9.25722358569524 0.00000000000000

0.00000000000000 0.00000000000000 13.54888245216302

PRIMCOORD
 96 1
Ni 5.909181932517619 0.030746941827550583 5.167191407580264 -0.5232377481541247 -0.9313828915067637 -0.021780586210201198
Ni 4.0071557822027355 1.6825003544160049 1.13870235403364 -1.8562567782504158 -0.26095822911976996 0.2690384350247431
Ni 3.2453510962827563 2.3066871571516745 7.620948073015883 -0.5594478795260945 0.19801659529022672 -0.6201521393846867
Ni 7.499619200140407 3.3796456362635703 3.0439185435349425 0.015802257139579237 -0.5208635914949933 -0.5594152265159462
Ni 5.677797633433008 2.199257079501068 3.2703474509292163 -1.4993344376284952 -1.3266650628538055 -0.036630249628524014
Ni 8.563959204259394 7.67240527505196 2.7982373886189147 -1.061511050485133 -2.3587673211595184 -0.4572105334207222
Ni 6.845198305753994 1.2728774758324903 12.334753078351001 0.15785133592525075 -0.8197985569688526 0.08773221051066181
Ni 3.2264756177537097 0.11698168076304909 5.9552218074152945 0.7794083260772641 -1.083349229406147 -0.6250958565432074
Ni 8.57009674337894 1.702551500317876 1.4169967070162848 1.2617063985942336 1.5327654635934314 -0.21287422912834952
Ni 0.5911005605529008 8.750112709772193 1.4705821447138752 1.4951697647278444 3.194947147699872 -1.259000055406664
Ni 6.468299711917992 6.944083966198955 1.452737920872487 0.4679639152824844 -1.6526017537274893 -1.7292895334985314
Ni 1.5734410054455787 4.724720197455568 7.345742855484511 1.6109905059446061 -0.902477007105691 1.170154043006533
Ni 8.79076117775701 5.814860083212834 9.642590509875753 1.415404374472743 -0.06117271485457852 0.2324009863073675
Ni 0.8158455790092468 2.7119035973929497 8.37621715920977 -0.04183493375791505 0.27323576093554236 1.9426669275155444
Ni 4.388284927136223 5.4376745154511825 8.496125048292107 -2.2811344038663877 -0.15563298811769327 1.4465885133850311
Ni 3.9015308631167023 5.3776043927562425 4.550785301119074 0.061358091392507225 -0.7726730642359597 -0.40695189437548623
Ni 2.3613510613763045 2.210615692622765 12.837810038514466 -0.3243858014467962 -0.7363809146731447 0.8735497825483794
Ni 7.333377982178357 4.396690485990747 0.4783957170043782 -0.2007206244849511 -0.7726414396670758 -1.0389941003295395
Ni 8.954734375984085 4.846036110218273 2.1009842472457203 2.0976293719287744 -0.5532690044088924 0.8968213514818104
Ni 7.578601830258027 8.931665375251185 1.1698779053049841 -1.1562137787763571 0.2639880170850292 -0.9667453301664577
Ni 5.601073765826956 3.2955993049417387 7.547689184131472 -0.2498148109084407 -0.3949448426122811 -0.2488349634936747
Ni 5.235320868974267 5.587345303512795 6.5440561996779 -0.026261761910006384 0.7574001972372891 -0.5294032535348883
Ni 6.012992435815671 4.273143582386697 4.889033135781718 0.7114867225346263 -1.8714856793850283 -1.0987791908079723
Ni 7.607512138961416 0.6320980258602029 3.6022411274445636 0.22385823894367898 0.3364689578635754 -0.32371808595581025
P 5.97968494599345 8.815552022043812 10.905007323257127 -0.7069602954191825 2.1884970427446246 0.28651448032231946
Ni 3.7316885852489143 6.155720306321234 10.888125850650178 0.25512002517143806 -0.35113247341302106 0.04298884485670016
P 3.3411170724391996 4.617382692039041 0.8569346908282887 -0.21656633326795605 0.30649735120214955 1.2367772394527214
Ni 8.592277050664668 6.081282972896975 12.151734994406512 1.2532711233426868 -0.5587264279790377 -0.43357695316218237
P 8.043444046470656 3.0569480854817956 9.21085490173739 -0.3250002951023435 0.8697126681904763 -0.6699736908925042
P 7.844274884846114 2.329422897841885 4.961397776884911 -1.102774170899978 0.3437405518243241 1.0806559988447002
P 2.7496823261212673 8.575262274040643 1.574339881838502 1.562767152161844 -0.26086669784722816 -0.5163937286490977
Ni 2.8847915017619914 7.4264778779932765 3.8569193777908906 -1.2199113169353184 0.4464322118582956 -0.1598776223266601
Ni 2.5656579819923224 6.738786522678274 6.689191873991901 1.4105642727716223 0.11111793642445378 -0.8958736428565602
Ni 4.9207696747915906 7.032777423671636 12.924156789853203 2.026631700563974 -1.3767020728065387 -0.14519430928287252
Ni 0.991698572035892 7.98292031982872 11.220777693762647 1.4333761284598152 -0.5421196726602922 0.4741224786847125
Ni 9.288512823185314 6.049484410490268 6.35742039282554 -0.07650446011564244 0.8095046312420123 0.6729507712429572
Ni 1.1260579125805625 8.044878916098906 7.864001102206362 -1.3717753249288827 -0.9904717272491199 0.05944981862620085
Ni 6.085791240696704 6.795431472712231 10.892366584693413 1.1993286076879603 -2.146643854154264 -0.751389472266835
Ni 5.017766861661307 9.092491117519517 0.12932248528834195 0.9940162500672688 -0.47040826305791894 0.9637795626699145
Ni 4.94169099969382 7.766375349867238 9.051344610915343 -0.9748119092246761 -0.26755130895625534 -0.49525926066332776
Ni 1.0302734219773033 0.8048979866068678 6.954438170580877 1.3289386893793307 1.5581749048054714 -0.42989461921458866
Ni 7.495610822404714 4.126425848592259 11.095450626097227 -0.19629935548880384 -0.34547373246534696 0.2936544338012104
Ni 0.842047224143437 3.525678335525812 11.586096426837496 0.811079689038616 1.5746471914288815 -1.5867645435177058
Ni 0.1450977196980273 0.5890861887393056 12.761109313966935 0.46833055459328377 -0.37452077042997434 1.1554419336073392
Ni 0.279212669544725 3.0533655400228743 6.27352495424526 -0.6964683947489231 0.5029103494506822 -1.1232604637787882
Ni 7.199453731133865 7.68566161897231 12.707428526868242 -0.3862331737708961 1.5044671308693702 1.55538500076516
Ni 8.264552827572313 5.11262562992376 4.35775367861408 -0.16281047970273896 -0.11692065914915994 0.454296702208037
Ni 1.486191674824556 4.7350882876726015 4.889682992864964 0.4934507466996792 0.5649068457581368 1.5548905776272448
Ni 2.8320808716764634 9.146858790595088 12.785497469035487 -1.777729374167474 -0.7512187510169256 1.8254475061790432
Ni 6.614897101808126 7.573815845756056 6.795726778138948 -1.9151741214119147 -1.4200521576573997 -0.36813774972176594
Ni 3.350874185911301 4.173489572398867 12.341731173356001 0.14197863055905227 1.2247938418386004 -0.7280019465808301
Ni 2.8634998879234392 6.791312008295641 13.109763193462586 -2.489117623451023 -1.108024106445008 -0.4213133053034808
Ni 7.833851251288633 1.7142248590354474 7.371241877362029 -0.9250885738576197 1.1316965103612833 0.43731945092375
Ni 4.392885767170032 1.2600654786357266 11.931863904074513 0.43531141935478573 -0.49293832583963487 -1.6737740169297304
Ni 5.709031505211823 8.486976134397917 2.861063386722437 -0.6892775334274387 2.2194472112692356 0.1558340483849058
Ni 1.572506025881364 3.1209617853485727 1.4807706447967928 -0.5001762383489708 -1.1771191614704566 0.2006733161867834
P 3.6445225696385646 3.7191543047543925 6.032477039644969 -0.4958788965251976 1.5901465726160615 0.29220998804519993
Ni 7.8444044859738264 7.509829917559504 4.85483510106764 -1.300902609177721 0.3216331784023235 0.9714833590720754
P 5.537819158279641 4.8572466077654415 11.796347410603834 -0.8411371705456289 -0.5156555649314926 0.27702119611990356
Ni 2.2905795884216396 4.93992287002288 2.8481921432958615 0.20090034459592496 1.3698554821983504 -1.757692767231573
P 8.623640523571195 2.7164581513097183 12.896205529494889 -0.8309005804192852 0.5356111821178131 1.966783360947774
P 1.4001920693636225 5.861257286934062 11.10652041384859 0.061096610201004466 -1.3751804939556898 1.3115896565779217
P 4.443578322552602 7.355225029421392 5.403145072139096 0.5395974204590707 1.0954287862785006 0.4359549664760557
Ni 6.144861583263573 6.414293070555335 3.65894347226365 -0.6259746596037349 -0.689429999844903 1.3126155267392747
Ni 0.7022363047337562 0.5593325469834406 9.40851976455812 0.7468974979337524 -0.37336325978676344 0.4052223132788892
Ni 3.274613179475653 8.625371624348503 10.558318752291008 -0.15782382512142495 0.4047026933299933 -0.18533899982255822
Ni 0.5369735752859386 9.087316329634408 4.298978641473928 0.5741155088405983 -0.8235976189999688 1.1307991953579943
Ni 8.707585025435538 1.8894640981501378 10.958078059333229 -0.2528893360687064 -0.5057035959251033 -2.0998024683206933
Ni 5.210761455272667 3.612511091093472 9.83273573012211 0.4532340652714775 0.9583475930210656 1.6850935557076077
Ni 3.5181059267780146 0.6244922911081359 3.3362357385361263 -0.23299079737256648 -0.9509330457245495 0.05899396203570485
Ni 1.0364572472138913 4.732986897958971 13.42496424472851 0.2377447671177841 1.0979176141386253 0.8570160465594143
Ni 7.0076348048953285 8.675897549709727 8.692285612309027 1.7006286752287294 -0.05432432447417741 0.655351312993639
Ni 8.406577149098862 9.00554727527096 6.4681275275626025 -0.11494965146571816 -0.5770398815762449 0.10750013716620842
Ni 5.641564861013838 4.55133240302249 2.309461547007072 -1.544298146823379 -0.2328553002359667 -0.5006513782131764
Ni 1.4006179016403935 6.691047021562878 1.339939579367543 0.10235433129921082 -1.0216949469294598 0.913870079433981
Ni 2.1316330625051454 6.45428427567818 9.236692737991643 0.20667812761996665 0.05165911893718845 -1.2063577466205997
Ni 5.196644189575367 2.907286554643592 13.176491111232608 0.735465601947727 2.9945165436515135 -0.3023938705567373
Ni 5.248410582873273 0.5076744631994096 7.494970222544876 0.16594851111108838 0.6687287627418096 -0.12576242581050598
Ni 6.63110649999565 5.411948691600167 9.004587301203543 -0.0029318289348143054 -0.25083193931904546 -1.0870176793966697
Ni 1.862340433564504 1.746551083176414 4.910697815723615 2.8979294538533833 -0.7958322759612423 1.2868792983154353
Ni 6.682104543750685 1.3467223469586331 9.771765805311906 -0.6561185301769668 1.459754618453344 -0.1095451926206952
Ni 6.2369154128333815 1.574718502275892 1.0352510310038203 1.225275409460709 0.2420523933542025 1.8565360000537316
Ni 7.451102092258733 4.603256169118333 6.713850339983967 0.5232917413205117 -0.3778056118288332 0.6484085631272188
Ni 4.81719060207874 2.0973813358953013 5.480740044467847 -0.3528569123032956 -0.6511467879939883 -0.14326829590475326
Ni 3.35241088499704 2.910656183964128 2.97823391484301 0.636734212113084 0.5399231792296056 1.5115034688908615
Ni 2.6070192561795613 3.7593399115688078 9.924488699931157 0.41780117838516434 -0.006847104828820466 -0.8521080677348357
Ni 4.289195607776284 1.5946030181564177 9.575658933190754 -1.013571289381061 -0.914143901920658 -0.09718332862123263
Ni 8.261942290571238 8.839278285638686 10.932619769238707 -1.5073308255704103 -0.09270318136269197 -0.9553869677308449
P 0.46899778380050955 6.696980901767448 4.376763386882544 2.1957308414889027 0.28753392272576933 -0.8977322933318539
Ni 3.0643260925380242 9.192793133145912 8.247624143125982 -0.1375049110584148 -0.031576489254700454 0.5291170897530372
P 8.490965997686793 6.362637763938327 0.8348256641628046 -0.14693288924053405 1.3924793902454533 -1.756397445458917
Ni 0.4232856146114794 2.9234404094906674 3.9453129012251504 -1.9777095209419748 1.9171698116857046 -2.635064494629204
P 2.1053332908028297 1.6528772395101934 10.797930871540709 0.4045047183865743 -0.30599161521032464 -0.9605973082871908
P 8.406993724152226 7.146594985473808 7.967609798034119 -0.3756841946104562 -0.24116279166039756 0.5927356950449469
P 1.1116073868405716 1.2483736054713395 2.8414038213707267 0.9544287175826337 0.2873881411765244 -1.3973336330139614
Ni 4.197252864887372 6.713903106157393 1.9274233427349123 -1.011931954005425 -0.4144433176565249 -0.5726234976761041
