# total energy = -381163.0186527505 ev
CRYSTAL
PRIMVEC
9.31117574944193 0.00000000000000 0.00000000000000
0.00000000000000 9.31117574944193 0.00000000000000
0.00000000000000 0.00000000000000 13.62784689737544
PRIMCOORD
 96 1
Ni 2.5633201061672795 4.157095423308676 12.50972280309321 1.8102191192650627 1.259493964323947 -1.1924964152574755
Ni 3.998311944602305 5.297779621155477 8.730870613453071 2.711967732845162 0.02457511823620284 -0.42186454982126054
Ni 3.21399437318657 2.8984013850159394 3.317140783909937 0.3206456176780736 -0.5533885607058922 0.27018926079973465
Ni 8.77082021266668 0.5791178819926992 9.167601997094872 0.9458967688522226 0.3174787899143177 0.11033760661500351
Ni 7.142705279653056 8.97291928059149 7.889282793841753 -0.5118552173487958 0.5225702897734548 -0.029491067480581463
Ni 7.005793752596322 4.52913275839293 9.428521623964379 -2.234387634629152 2.396989083644878 3.2307140208868357
Ni 1.8541251000598782 2.9425829135717207 5.544557434416865 -0.9583720185010978 0.9012881290039123 0.9232538346417261
Ni 7.826275930315671 8.069036902392872 12.64959900848338 1.7130103367225338 -0.9107191925098251 -0.42374711155595407
Ni -0.18707921045097936 4.979365346756732 5.851770364484186 1.7208671137627911 -0.41924382436896185 -0.7599440467050653
Ni 6.362745338451042 3.833569313466913 5.536176445195989 0.40969449011762993 0.3073445296937933 1.0190868198826513
Ni 8.205129045990617 0.23764354992878103 1.822152385043052 -1.442660896195851 -1.6921044398078018 -0.5742417500058175
Ni 8.756127177458877 0.14814546050300406 4.137809185142693 -0.10853680596083888 -0.45894705649585477 1.417953880367474
Ni 3.9311411233164453 6.805538297454238 6.553441009532382 -0.22393871447262723 -2.1019495965706834 0.8093904742616511
Ni 5.036386986561917 8.23284841596123 8.738475050623041 0.42565332743973144 0.9814057603921098 -1.1183121186345772
Ni 3.024539881822086 5.314185912686622 3.814025155734861 1.0613871233127592 -1.5187449809446232 0.49269715636310624
Ni 6.2104424380112295 0.21174730815442103 12.985334862981665 -1.0052092905696106 1.2040859198672877 -0.5577566078666008
Ni 4.960742995416045 2.890477574520477 8.21368042972626 -0.9145269962916895 1.7514956372819255 -1.09917848312892
Ni 5.9504930356465735 1.2541315622142686 6.526621099131525 -0.1805374646688568 1.5805265330277942 -0.2593314921496243
Ni 7.194270570515419 6.292222493923858 6.082599064939842 -0.34273653603984194 0.5299899792762937 -0.258627009883432
Ni 3.826939756389628 0.9842098907066739 5.464030662749464 -1.8920833010307219 1.799114524711469 0.6462462653685773
Ni 2.0589988983344516 8.008653928170693 0.3922826243442828 -0.7518139613987632 -0.4474128306040101 -1.2549839922687354
Ni 9.172150506409835 2.1975491923091663 1.6878228469997039 0.9636378948857276 0.23766172048567455 -0.508706130196853
Ni 5.151771075468817 6.019432980309798 4.6728116479268715 0.8922802690783472 -0.3894087432854003 -1.1322295000466178
Ni 1.1950242190589264 0.6192611536602521 6.591326321099877 1.3027509752403692 0.4979838586833423 -0.3921055733912731
P 4.902091899868549 7.4351227515802005 12.409298980135851 0.38983348952764474 0.8445515955438164 1.4929208207926676
Ni 1.926445001491438 5.189369602825665 9.307383228493208 -2.7454075005608463 0.7301986971218327 0.7075020268552654
P 2.2879700192438746 0.37540332508908364 12.035201081875748 -1.0408339817517558 -0.5880382895692776 0.004159016473696063
Ni 8.524949307915582 5.284557751703589 8.041424610942467 2.424805591636514 1.0528670016568902 -0.9264520298640496
P 8.94687592224154 7.467274241169898 5.180653411280656 -0.416174955635651 -0.8280284010778126 -0.23371302025057167
P 3.244907476412111 3.796808791920396 10.214479824533228 -0.500854495362918 -1.0376617546713613 -0.010248674311201704
P 5.151389317266332 1.639763213777225 4.035709350564673 0.4364558173718741 2.2420634060068547 -1.367998888605586
Ni 4.044886445305364 8.228369740463794 4.4430593193787065 0.17331523588880474 -1.895692358538219 -1.3165637127537453
Ni 1.2633589373035792 2.2149145349343575 10.792750389539927 -0.04014417631905344 -0.17750202027664272 -0.8328307075624624
Ni 2.4386062192386952 3.1061988924510007 7.916825251474629 -0.7254550117892603 0.1767394310790053 0.35448339216312497
Ni 6.91094080604253 6.76252997703292 8.458354848403717 -1.123314456945175 0.7401838333590027 0.28959543324048836
Ni 0.9604384592202863 5.161883012246809 1.53591287817318 1.0232350377230701 -0.06316300581172993 0.08673436537376675
Ni 5.52676936441624 3.7358112801039742 3.140196788176127 0.21917317476318382 -0.6135217785523628 0.6732821864404469
Ni 1.3394871095843097 1.3641710362863908 3.9921414284855676 -0.12471084461754005 -1.086296227849613 -0.25465157017545176
Ni 6.267510633694766 9.172690554598715 3.9893480757844646 1.2060582131023099 -0.7305074866115031 0.04980638199916584
Ni 4.110111230876122 8.584568765732794 0.8415757150829463 0.7110100400085239 -0.8519723134879198 0.19184517637219217
Ni 9.063656687498991 7.253945895386653 1.002660916415027 -0.6902144434194112 -1.3719216206987597 -0.9296903342956893
Ni 2.7521228152348396 3.4152088794226985 1.1115718759959037 0.12921516024579682 0.40727019694685346 -0.0037298993560774467
Ni 0.33610923264266607 0.014377386352577766 13.67172866210753 -1.5165104351871497 1.0004517212799673 -1.416204244666219
Ni 3.3413433228298612 2.1707423175542466 11.835089949956556 2.0002619523211935 -0.5416450470167189 0.2586007846311869
Ni 6.879040718195931 8.649868040708915 10.510285633286813 0.16704457238874457 0.8293332359321653 -0.5944722181200794
Ni 3.2082400666222974 6.5577306681637095 11.422493133652285 -0.46181460785163686 -0.7618818871577265 0.7340944326318131
Ni 5.837157405387148 0.6215926720481062 1.8099007400960136 0.8488826188190026 -0.7666857363042732 1.1119144426383496
Ni 7.165871484720871 2.8320685695404104 8.131286767336956 1.8030897073091332 -2.6058804168660803 -2.799264398480301
Ni 8.18222355384157 2.160015843182011 13.008529001576491 -1.4559218749708152 -0.7523657201371752 -1.1359637702780694
Ni 0.8054576646576829 3.508357880828817 3.50816234613974 -0.15377099520829002 1.5712312237687973 -0.4792011787592005
Ni 3.0437581484056757 7.564650516330352 9.357847007273769 0.013612962797744299 -2.03631756039317 0.41621892149970896
Ni 5.218979141457358 4.1431286598031605 11.031783166878721 -0.14613096216452898 -0.3006249515817726 0.4985857539333994
Ni 1.392616677959291 7.10734143445709 7.2559021733949916 0.3926581034606334 -0.8280003760533546 -0.40997114081778424
Ni 7.382207340245637 1.867691483011569 3.250472766110276 -1.3599821889486965 1.108378404460633 -0.0421879462219596
Ni 1.2485914126904138 5.8122034545906285 12.923995631018142 -1.516484981265853 1.3451186415733027 -0.6416496471368305
Ni 3.6026614680180584 1.463642325972673 9.187812835004921 -1.2188615355145653 -0.638193827377746 0.959684052444302
P 8.82853087947147 4.29913740815977 11.59066041519923 0.17046619647578384 -0.36063912735187564 -2.5039631731042875
Ni 4.074877742139541 3.535388223799825 5.561415317968022 0.06732767871238081 0.3890986682441492 0.3145451612072905
P 5.8397831569261855 1.2769904984849623 9.479503104112213 0.11762154187092645 -1.44395467530661 -0.3796912588873203
Ni 7.3178578051878915 2.5303585442942627 10.459045302455342 -0.27257704430562085 -1.559020283524902 2.3043370672350956
P 5.998482835051525 4.845303039455123 7.612283697707129 -0.4477293334031644 0.2971891864273462 -1.7478811804577898
P 0.08781742221727992 2.8950586729502863 7.078603421868141 0.5167832507780326 0.09002846274400624 0.586589472937893
P 8.489576151543947 4.096256201478651 2.0951039131137765 0.7005795887038192 0.41536942901522017 2.0737697917023574
Ni 5.173391625375355 4.492958840913645 13.459242977722448 -0.4389557009755924 -0.8284418344661475 0.126264305147589
Ni 6.864412861217821 2.988235607883416 1.0494179161612252 -1.185749840562261 -1.2504567938223432 1.3634256674126066
Ni 1.860102874840239 9.213585238142866 8.781362325760643 -1.5205748350645103 1.25220231575854 -0.5099639138633539
Ni 8.41085016125119 2.686562827339949 5.0901506460000485 1.214152045854038 2.465617483446554 -1.1565315671270922
Ni 6.228822698784487 7.5115675038337235 0.6321655120217815 0.35500866853897567 -0.9440993106321677 0.48356048416916075
Ni 4.541395576750774 5.556108878953493 1.9700417882151215 2.775446470125097 -0.5261320389827842 3.681751849837943
Ni 0.9475611032682009 7.927143896352504 11.729909978466786 0.5396483283016642 -0.41711417962046876 -0.5837010956465044
Ni 1.7749056174565938 7.988327631682334 4.97699844590133 -0.38522812954514946 0.544588703026075 -0.17925268441916226
Ni 6.838592971083959 5.157478826154738 1.5348365062656881 -0.8228825952108151 3.0491522287185227 -0.13988369570323653
Ni 3.1872899213640244 0.4411662966135874 3.022806140912268 0.9986084974236416 0.09086844214679834 -0.9707264263013926
Ni 5.6898452951066405 8.38154789141662 6.024312036361057 0.3158309698982496 -1.4442192418219064 1.8018992865454577
Ni 0.8859406737994331 6.020792411957668 3.7390860205872336 -1.9738068434534588 0.6791391594418562 0.7548368073854871
Ni 8.938626220597614 0.5562645324274075 11.526568799707551 -0.284574068766497 0.1738903916659844 -0.9473520132415104
Ni 9.053153681342842 3.4980597205374173 9.342188403148953 2.779049614095323 -0.4627949694870352 0.21548929815369341
Ni 8.265567887266819 1.0419764245654863 6.339429223454934 -0.39171193749728017 -1.9006923828559716 2.0803006508423394
Ni 0.8911297920005156 8.516336470420516 2.5443327567403142 0.5502759832188394 0.24408690728572802 0.5250722302597022
Ni 7.929369267337717 7.4080551639065115 3.0907823788936124 -0.7024922323454998 -0.3771366107862666 0.11841652696839605
Ni 7.646179170499882 5.07303577400039 3.882192272817448 0.14931450209883318 -0.2767383747721621 0.16685096832069976
Ni 2.5660296582873494 6.933874231718586 2.346851100830427 0.4557172367046474 1.1140649133224492 0.9469892305854529
Ni 1.774886995105253 1.0602915071090526 1.2747558163240797 2.325743300825014 0.8686513168054976 0.5607519430494988
Ni 6.912998575865675 5.904263048443316 12.386417697043546 -0.352935845170347 -0.5406654567122688 0.5149168869932551
Ni 3.358727287806393 6.021723529524702 0.472739562194156 -2.142376080016846 0.49677852552133145 -5.038673911804077
Ni 4.4695412341027305 0.06377782887158646 10.895367925485218 -0.2222721254034817 -1.0678400780269546 0.948556832182889
Ni 0.999573330562741 2.660547402517009 13.150640820245112 0.8886691546883211 -0.44562257147280676 0.35651507788117315
Ni 8.217075284375667 6.404291804292115 10.451005102264002 1.3582775475527642 0.21748524553779963 0.17904751038689162
P 9.508013924014804 7.5041651191757985 8.945849830682667 -0.8373589344501192 0.5119819727346473 1.1463790520741226
Ni 4.33488301155822 1.534016191689131 0.6138346004795757 -1.5492336364517836 2.0000848033133813 -1.3711142943061159
P 2.32903230395009 5.339558866388309 5.814634602558154 -0.4498574354897607 -0.48269042285938163 0.520077348148272
Ni 8.5774084716423 4.53912364988721 -0.058445318565180614 -0.07022094109977584 0.5347848295617758 0.8661424343407148
P 5.629890634965298 7.472916813626126 2.7080306739654936 -0.3621064559260215 -0.47131431981195604 0.7182191561624534
P 5.918555703097294 2.399238568504482 12.89678092676886 -0.9603589670241395 0.4543571231323271 -1.612564021079313
P 3.3106816213474195 8.722197253316146 6.690877686896925 -1.3116943004765862 0.3768270499656478 1.5195906167743702
Ni 5.537588950545179 6.697128279124427 10.576571892883988 -0.007238940950600435 -0.8592469927724622 -1.104483440281601
