# total energy = -340895.0142245747 ev
CRYSTAL
PRIMVEC
9.05381877745822 0.00000000000000 0.00000000000000

0.00000000000000 9.05381877745822 0.00000000000000

0.00000000000000 0.00000000000000 13.25117895484300

PRIMCOORD
 96 1
Ni 6.406418807490228 2.0652213378065616 11.743578898330858 -0.04340176402440267 0.46792946250012313 -1.0589252920358279
Ni 4.451635951429197 0.5088753180518641 6.095661868607099 0.3365180659339559 -1.3574321688333333 -0.333175117603652
Ni 2.666901920105384 1.6078948424851744 4.662360867897695 -0.02598768231301331 -0.7333909788068853 0.21612307508295037
Ni 3.206862619631679 4.069628174720785 4.626622728940968 0.4973544526294595 0.01545901486754757 1.2640782412605198
Ni 5.060876472427602 4.4950037434902805 2.8555500048073363 0.2550778590795929 -0.1958627821720175 -0.33387497188415405
Ni 7.224023914395476 6.056597356622557 2.7469693666799544 -0.12205900881698979 0.6492410863308432 -1.1865183432971693
Ni 5.248915235124188 4.438191030508381 11.553715791145692 -0.6702020048532263 0.1902328375797498 0.36935311018610584
Ni 5.674906463572213 7.8309194963241895 12.313963145177166 -0.770712340965163 -0.11227724683987761 -0.3635426741519158
Ni 1.811306989507379 6.4671156087381405 0.48094881395741496 0.14817344651585448 0.023501682666365976 -0.18629956396361463
Ni 2.786267467189585 1.4739888624051278 0.3408228603604655 -0.9541800919069373 -0.3410298377613804 0.8164424960124261
Ni 0.317913077264147 9.263686321724283 4.78547741211152 0.8257614594205069 -0.04382522471506646 -0.13981376169724952
Ni 8.584595588669247 2.543335401097103 1.4303585095987894 0.17101615544198287 0.3155656320520049 -1.041649535674516
Ni 6.838141103239852 0.8716464459518868 4.823548720173495 -0.419538215680929 -0.8699656647415469 -0.32887571889734973
Ni 0.8230899103354365 7.24529133476113 2.603512513145787 0.1526664492902016 0.28986282796926205 0.11825609013113182
Ni 7.410958111198228 3.8608471131490565 3.717564998317766 0.736525667781125 -1.047182549677603 0.04091293616427793
Ni 7.607353548648964 4.093059457780093 12.594967424713502 0.435465942654779 -0.6974343582066183 0.6104487960539938
Ni 8.019709725981333 9.025770071248052 6.817692148093888 0.393628952014335 -1.5992241094372974 -0.3076355785716508
Ni 6.79692812005362 0.48726566333549803 0.2505001532289874 0.512767187640104 0.5242201666720521 1.0081215791203992
Ni 1.741112732336277 6.508256161373957 9.149700553772169 1.113540922498179 0.1928093400576744 0.006985173068581518
Ni -0.08340377880306896 5.1649591733742035 1.319294408974047 0.15498481301073308 -1.5066055173686117 0.03848735744192082
Ni 6.391181230446636 1.9301836303762778 7.126524245099734 -0.3095402517935314 0.14980352592010976 -0.3870214740001464
Ni 3.5125648114777084 4.522083715526753 0.710979188257195 -0.7443258805518342 -0.39737993441633496 -0.09102193700552712
Ni 6.1602092589914585 5.72765401191206 4.79831844331825 -0.3843446984989316 -0.29032511231766134 1.190148740960905
Ni 5.411865865920719 3.050774783486986 9.434627852995366 -0.11647585830225747 -1.7304848393582133 -0.4311508602191929
P 0.1910591166488974 5.573938276293464 12.367179681330951 0.8902259576524797 0.2636622583144943 0.3163472474130358
P 4.121470341180443 6.077357763135305 12.597670895007749 -0.3889623997766011 1.0273567732009274 -0.30986086835774374
P 2.3980306631454686 8.401183327380432 1.5145961451135128 0.1959093191392368 -0.026005937145458437 -1.5012457957185952
P 6.52970465811565 7.78618457762402 5.959810222866525 -1.0264741134856579 -0.09322588663538137 -2.0278720007289786
P 4.592459049073893 0.7872911107927385 12.49641841781862 0.6501252887080093 0.3680850421069596 2.774561496416983
P 4.015585930292266 6.084021373773502 8.11007951297058 -0.15228875423580868 0.9311638335174222 0.7539981135342756
P 4.621811529629641 0.8567538194046476 3.874246764975863 1.1216954332845133 0.7720585705804124 -1.022401228967865
P 0.1783113397758274 5.413939190426352 3.5738292871645005 0.05102611333887986 0.22539087353812148 0.7723673600700828
Ni 1.4540070843093424 1.007717194107467 2.5882468692639096 0.26259987848825095 0.5521495460924685 -0.5526961626245578
Ni 1.8635203625379153 6.417935265006239 5.015425396660203 0.19652946922173894 0.2746341839449657 -1.2554606747948378
Ni 5.950133501331059 5.348760748871501 9.10969535001411 0.1333348388411252 1.5088930278512076 0.3755024176169533
Ni 8.770778318511443 2.3909505768423855 10.246673009774371 0.20664881704392798 0.6496072114210102 0.07573004384346313
Ni 2.3347082544450055 5.155760493471477 6.945830845597127 0.31337839459269895 -0.18103574446151405 -0.03621733046082149
Ni 0.4473672946393013 9.237339709010765 9.287380165528846 1.228274344188033 -1.1633807288384417 0.5149953056396743
Ni 1.6532001517698636 1.0672279450923314 11.410722493134182 -0.7811811017069707 -0.7462166698166439 -0.45432909810786914
Ni 4.046740120789591 6.723148550636967 1.689883509409507 0.26028280031930007 0.8962405392776759 0.1294023365559384
Ni 5.715349872160283 7.848954703377567 7.976944918252455 -0.5962974442542763 0.42730680388275444 0.9415343781184687
Ni 5.164452159521296 2.7834336219045914 4.886518029940683 0.7258237079825887 0.04864270070836784 -0.09195139079833196
Ni 0.946133118616968 7.392171437184294 6.950164003275716 -0.9906707306338036 0.45041587909639197 0.4398357895877006
Ni 5.062669128550378 4.4855243952046955 6.993270139973424 0.44391741585624195 0.24210844340311852 -0.3544602522346734
Ni 8.224099685434142 7.180583691783977 9.165761122944854 0.1343619945540589 -0.18390586692045746 -0.3763768498021066
Ni 4.8493068346648895 0.6376740389457611 10.48940770261697 -0.24789496817790857 -1.3683693845711273 -2.0612858003027337
Ni 8.405963743707833 7.171267312236825 4.684530048616017 -0.7269493369465997 -0.4546114052349784 0.5943120383931313
Ni 7.263589102559762 6.080427007709149 7.0549936442734715 0.1191318078678658 -0.35735222907048775 0.19159063715922486
Ni 2.4089676762581593 5.249721024997557 2.8652891976925363 -1.1645842622282396 0.01484297855010347 -1.709178364570953
Ni 2.390389240076668 5.513911457636891 11.4355426319977 -0.160315224084711 -1.063600071803678 0.13388299803511136
Ni 0.9867666573998788 3.3674139884457066 3.7348849536857935 -0.5765595995057167 -0.47406334331200295 -0.32982934105987066
Ni 3.697652029244875 2.5177764706193497 2.521116424375369 -0.9523535802211598 -0.04276053089597797 0.8924985557367403
Ni 1.2901601254514246 3.5166571375761655 8.307627501554796 -0.4633575268587246 -0.5776494901357858 0.08319112810719866
Ni 3.7589554363525153 2.6111666115609102 6.965244043872154 -1.4279850393512308 0.2239698248208788 0.41741345602844243
Ni 4.298689790408763 6.869367724287592 6.132791579513676 -0.19590340560196584 0.5759327645549952 -1.022503301763368
Ni 0.8445592308603734 7.467979062012572 11.443691974301286 -0.4745549382364408 0.14981843831844519 -0.5149438835764487
P 0.20035829394032514 5.506351518937309 7.916440057963142 0.1548194910774624 0.2714249329790487 0.18302474986708478
P 8.528226512808642 1.5064196413535205 8.033540339583109 0.34100849760514174 3.284472959775847 0.1635537856266667
P 1.9231397593484025 3.3101847997989196 10.52864514254063 -0.7842134607753913 0.38294293305539856 -0.7032491651161824
P 4.067364720020311 6.065796036525284 4.01431205798684 0.017357003221208818 0.7165024305816629 0.11021933586958438
P 7.093992968762641 3.9626482517575785 10.436376769748623 0.24737817644249008 0.22653424311394535 -0.552804406067648
P 6.394042237188035 7.882471940582187 10.117486785435753 -0.2822531339428042 -0.23521248761423363 0.36213448095047956
P 2.2788099771620978 8.641363032557138 5.651654446125182 0.27730607435017407 -0.7002119209517554 0.6492341443523076
P 6.658794006593088 3.9078454865497 1.401577325009441 0.28986257085894596 -0.40942143896190136 0.5730467012564517
Ni 4.916241717067309 2.7015689922978448 0.5482223091830254 1.7522014050996986 -0.3472218255047052 -0.7933110522012853
Ni 1.365134798949928 1.138092184854774 6.981197777982975 0.7804611928218108 0.09174518832479682 0.39957334252322796
Ni 6.941897866709584 0.9411806797323308 9.28357756163205 -0.8596586263885839 -1.0253168599527631 0.5993963948945741
Ni 2.7277435824541274 1.6784240909519468 9.250767427675857 0.3549595604685951 -0.7485530312593044 -0.43422024317313607
Ni 6.372611848083947 1.8247790718846009 2.5324463732240625 0.010917161133136037 0.28264497006458417 -0.010241475222350105
Ni 4.166685112277114 7.012617245371196 10.326391884325067 0.5861233319347517 -0.285273923046999 -0.6188352203454762
Ni 8.232537844557509 7.215350355983259 0.15506928152947935 -0.46107464436181883 0.7614890225946822 0.4093862148485917
Ni 7.818769271492045 3.7808475702155 8.123940004174402 -0.1401876000969005 -0.35925304563762644 0.44596658507578685
Ni 2.9557730627986882 8.182017535642927 12.396543931851141 1.2371842450831532 -0.032921947539001364 0.26564200774868446
Ni 0.22176876464304957 4.943738164768669 10.24045846854875 -0.5153344341466479 -0.8727707382905098 -0.19373005209973085
Ni 8.616646107227961 2.3296109544595383 5.794647744136692 0.01678776098130012 0.11051886938787418 -0.06712713266580052
Ni 3.610183085799755 2.505571922874393 11.562501616911051 0.7766312775527593 1.4833588881358453 -0.27622826790496297
Ni 1.015910900123183 3.1514804100204787 12.586327365430853 0.17275653517185732 0.916389246311409 0.33255676729336275
Ni 3.0415670497654577 8.430001632626869 7.898484524515221 0.5157440108802408 -0.2152463289049519 0.4658093308333268
Ni 5.583671131505503 7.856568964989962 3.602399517775764 0.14946876828851033 0.37550858826454037 0.26952411641191004
Ni 3.030602875196361 8.195236111093696 3.585159236013193 0.4804306802909274 -0.008811427644042889 0.6594527367565223
Ni 3.5182506096852997 4.4076887149647925 9.36149382085929 -0.6344582715947138 -0.0959088327841832 0.15458989156515957
Ni 7.28840561989576 6.129055068494133 11.260679891803516 -0.27324475979660684 0.14465052096426056 0.011684892537096005
Ni 0.5881415016624665 9.241504465659636 0.27693549336676426 -0.08586456117430373 -0.44340628054777825 0.169196842845057
Ni 4.6016124598826105 0.34116781085681774 1.5774866866571255 -0.024943043098582852 -1.1850985801315075 0.10745745685373105
Ni 5.973211685457092 5.799260664816258 0.42082421405778186 0.8876139739509294 -0.34015771956907226 0.21877208267002324
Ni 7.984218756277899 8.85946952749482 11.317686356507775 -0.2223078637374236 0.002555162321685922 0.03814257250799237
Ni -0.24486867793420788 4.73534641740542 5.759201138145388 1.3829305702147536 0.633009197853013 -0.20938447080753617
Ni 8.173706129982786 8.80537296015349 2.421758911461479 -0.5386589678052013 -0.16788326623995603 -0.10792591184971735
P 8.552363993734497 1.6192664389003562 3.350971348119583 -1.4766431666785667 0.7535499702532635 1.8567943959214408
P 1.7344038526040717 3.244598936397983 1.532763537921398 0.8006510375061243 -0.01594392492376609 -0.01113750467405824
P 4.671761447959702 1.0966347485608907 8.284359187233923 0.2923349436588385 0.09085224419688225 -0.14077098340419628
P 8.476031247415708 1.6472699004546214 12.34902586925127 -0.03570825203488689 0.055135250411246985 0.9508978216112399
P 6.495816214340151 7.75443283508577 1.5018619489686456 -1.2026903250713414 -0.1900348626363308 -0.3065377175217817
P 1.7361693472704414 3.124825967467696 5.979131072189771 -0.2696788968222194 0.5830346657070992 0.4425333910245217
P 6.889277071832963 3.78055784801384 6.023376179292759 -0.7555348618937762 0.4580602830155272 -0.861630148292658
P 2.4545808153821134 8.379490377531088 10.12884299035897 -0.7421203882600832 1.287960704305072 0.1721394704131487
