# total energy = -340867.1377476839 ev
CRYSTAL
PRIMVEC
9.22356045774291 0.00000000000000 0.00000000000000

0.00000000000000 9.22356045774291 0.00000000000000

0.00000000000000 0.00000000000000 13.49961306168936

PRIMCOORD
 96 1
Ni 8.662537272114283 6.676418802881563 7.911582660797193 -0.21374480465876092 2.019351107742161 -1.4412696722752791
Ni 3.904969512985069 6.006317921409659 1.464694923774225 0.7823463256596656 -0.8047437195182592 1.3333319333510198
Ni 0.13122174809052145 2.407321575222947 11.50046906250714 -1.593678754139036 0.09486496490070113 0.09172950459551299
Ni 3.3321495223045403 6.991855342577611 12.022161013571214 0.12380710185634806 -0.3436688180461242 2.2735406506795295
Ni 3.170405168372849 5.660877139962938 5.142178234225668 -1.0803058145941329 -1.0646771069179406 -0.03568639765801596
Ni 0.049430904515894124 8.58366660773986 4.363128658146036 0.9236112179811448 0.8602615500799056 -0.3651598980403647
Ni 3.5032004486083275 6.093130071227467 8.210397422424109 0.2692716340814717 -0.8302981709485959 0.6313793755590739
Ni 7.335903366414633 1.3169122731127436 11.834557485900763 0.6032880166394965 -0.47927728341277454 0.9106063210810448
Ni 2.646313246911135 8.028675759175547 9.61307404890127 0.09201515415673185 -0.6019235321918021 -0.954055136293299
Ni 5.999972111903215 7.395589025304458 1.235572461638211 0.05228158301253577 -0.6257707711230449 0.07451365493785876
Ni 7.5889056262427745 1.168431398934347 5.494963736762478 1.0732108554205646 0.30730339204321266 -0.5629785183871724
Ni 4.168145359856245 3.5575548896279137 1.196297619400726 -0.34382951199370465 -0.8727681671873486 -1.1536609304475163
Ni 1.337111870233547 2.7286519699693126 6.9558640878172975 -0.31440066520962623 -0.970299366066303 0.2605972462359254
Ni 4.28757201899787 7.932308000856756 3.0255334733512425 2.922210952108567 0.5233755592835696 0.3521606575672193
Ni 7.698297051746302 0.5328690614709183 0.5490416521520216 -0.8679548049591053 -0.5770370533627676 0.7551383977863059
Ni 3.4057996515326745 8.480620991742777 7.070327549145816 1.7183859992121504 0.21614467234950516 0.6017525538315766
Ni 7.896096303004578 5.526047135071659 3.446612983633058 -1.263591017211456 -0.6046836114354425 -0.8804295403873481
Ni 8.71347899581209 7.30898901737422 2.3610285259310246 0.07645663759684253 1.8777185476686176 0.8591305217992558
Ni 0.5468446000816218 6.83181734730681 9.936362605505511 1.0448485022277876 -0.4861354439851886 -0.8502941544545485
Ni 6.280257663184934 6.693934343946588 8.635539911030909 0.19900389890416048 -0.6873731173158744 -1.909965837738098
Ni 8.727268218504145 4.793493526611191 10.97353812917612 -0.13092365829647132 -0.36959685076579574 0.628170381703473
Ni 5.910503576710616 1.8043589893868093 3.5274621016980814 -0.19687631103819642 -2.0844218720995653 -1.055218532608202
Ni 5.746785380868491 8.726724028444726 6.457337108519844 0.7576573075534178 1.7061884287046938 0.11109659626821512
Ni 5.27526775328284 7.3170319619812245 10.547409641970136 -1.0788935076276387 0.5185866225353585 1.0852677865850988
P 5.342009435824451 0.15126731175382807 12.669939956690582 0.7709599381995949 0.08444222690548038 0.1146532032712219
P 3.0611613198345875 1.5196276820264476 0.5892001114690375 -0.48273078917901374 -0.47564714285935505 -0.0452933246201607
P 6.220092379157995 2.859193019307544 1.6825378939837412 0.07751747476118909 0.7490158298283358 -1.2088424607156665
P 6.513632186632679 5.1948567543334505 7.015775723935187 0.8957620569793605 -0.44586374094933534 0.07130414686162559
P 2.011538601499814 0.7822529185819406 4.261787556097777 -1.9281869887318148 0.27419118287027616 -1.0222104531132976
P 7.589182333052648 6.69593585653801 10.351165482983351 0.5405011632202626 -1.1433376941446374 -0.2759071371201184
P 6.477042322807005 4.081785164494565 10.572059606949745 0.4504349052597855 -0.9297702956040053 1.18148489463832
P 2.1078325713359716 6.966711917120392 0.707610334262392 -2.6594272397442844 -1.0331492115129883 -0.6093244526415635
Ni 5.423333567246425 4.027218581587409 8.775490836616923 -0.8417460077742213 0.7000126604567557 -0.5698832159268057
Ni 5.122949878007523 6.649688925047732 6.369400606697915 -0.8325712832534887 -1.5245677582739872 -0.2582917380312003
Ni 0.8846676430525111 4.975077758810849 7.355358622216875 -0.2055185600942267 -1.4255368349210544 -0.013531458827531534
Ni 4.052232877200019 0.7147696617898657 4.718573313125736 -0.0416564991985218 -2.142567884312678 0.9298232603291277
Ni 1.7079727839473606 6.932538626100951 6.845194276852153 -0.9012940425411832 0.8371470755496292 -1.3653737922779132
Ni 1.6781068956016252 4.105886327634591 11.264441843108736 1.4437261042355718 2.4340620772377757 -1.000108993228568
Ni 2.0456934453985967 7.6090775526825905 2.987828481081776 -1.5302650657690808 -0.5483342861114363 0.35284585655970196
Ni 6.568447805668722 8.509481512012636 3.9042094916139485 0.3246591097128409 -0.030078821663251425 0.3132554958615896
Ni 1.6190115445728646 3.008448672553588 1.6294839749705632 0.6931406159272708 0.39442008045706267 0.9129539953776148
Ni 2.4092954171333822 4.855033121127172 13.480403134539179 0.6397606576442336 0.25008451963005957 -0.34287511850023533
Ni 3.5657638583208424 9.16191005189392 11.376784807917588 1.3409015181681616 2.494232061859453 -0.2066184780266248
Ni 0.8268220844483481 4.68159329269814 3.403076856523514 1.1180213268670358 -0.9724971450485703 1.566437916145212
Ni 8.102427347567302 7.041201390338477 0.24298178388657046 1.0454722518547155 0.17909893245011738 -0.001089119299120705
Ni 1.1504454562925361 0.31684866678243895 1.5774566382220179 0.032606987401743844 -0.7067306959068795 1.8876818295289166
Ni 2.231972469805784 3.666641937640579 9.11133450354118 0.7867449689479934 0.19470450019785823 0.21784854241448934
Ni 7.147908759786227 5.25535408653224 1.19631145474122 -1.2962509693383224 -0.6567484504514818 0.4091974958765533
Ni 8.037438141488225 8.517653586464249 9.558886554323642 0.9488417104131595 1.7888658504002677 -0.9220551863479345
Ni 4.1844710616388126 4.424873938057357 11.762590656432696 0.6248778269951302 0.3398440449833954 -0.23949774525314882
Ni 0.2672102321591393 1.8499787187747054 0.23247799338375286 -0.02999397525892899 0.3299082739269222 -0.8938293587330219
Ni 0.26069747621073786 2.1186794782830325 4.088398457250554 -0.05022907135888124 -0.2047048059436797 -0.5208232251753611
Ni 5.37918960751119 2.364450466813133 12.69334843044989 -0.556279509100442 0.20815136973138346 0.41303358179319194
Ni 3.4852145059665163 8.390986432464254 1.1004980323982103 -0.2113289961284167 2.1434487442557346 -2.893881509036255
Ni 0.6481137583593141 6.980455022010801 12.150272577118754 0.3758675142658559 -2.5448295723013463 0.7681484368927287
Ni 7.757539979740329 3.435693210559397 13.239839768170906 -1.420378944869199 -0.20967834789887113 -0.23207497042651642
P 3.753841476992211 7.666734028300005 4.902411783469834 -0.2736031715772901 0.21091479140913355 3.1601470093015513
P 0.8433497822021231 6.505358653017446 4.608942997409684 0.32715822198561073 0.4367761768257703 0.14583682796287786
P 5.102667268843757 6.129968971182028 13.129642203494612 -0.08585813341640053 -0.5566232655931058 -0.2576980703112594
P 3.99834883775722 1.9616299165588706 10.105257063404347 -0.27876954626957795 -0.05306242704261829 0.06812677757490848
P 8.837388305273674 3.2091533453155408 5.912101097359623 -0.20665035970582474 0.280295238885485 -0.8836177083073427
P 5.580696730021778 1.5283808407787953 5.780264137795148 0.43696592423907327 2.911100444017703 1.5379043274818933
P 0.8248842144231973 8.475621822044387 8.103884670099305 0.19132272820981888 -0.7246034624222424 1.6431892021643377
P 8.061511633947264 0.28051982971407946 2.630223668272994 0.6666705946612002 0.15138681124682962 0.8694190482094575
Ni 0.4418149962577418 5.472744179929595 1.323829943359594 0.16691318901720287 -0.14634616349912863 -1.8434295445787607
Ni 6.891918066411446 3.379604740197934 4.7245806179681 1.6757468243853848 1.8783132438298231 0.5782567847024815
Ni 1.0599162116620873 0.42772508549895694 10.73983340226859 -0.6423690418013582 -0.8242185404134194 -1.0505661214378552
Ni 3.450441683525682 1.1461196064981722 2.647840668501639 -0.5515759329771854 0.7780518120493697 -1.1806004351508377
Ni 7.122959029095919 3.0800880656299703 7.176259217169886 0.1434585575386884 -0.30411522412321823 0.14514442988154358
Ni 7.548856927293675 2.30772557078896 9.675874504114246 0.5089449856805364 0.9847129703884718 -0.7145360508839114
Ni 7.098332123017133 8.033296762900443 12.065926807332954 -1.7997642424803264 1.3346743063115272 -1.3928396017983498
Ni 4.882860602640169 3.8838383362710234 6.076378240957694 0.500888176814331 0.4973135720891951 -0.07925425494663771
Ni 1.5344222727943782 0.320553770966652 6.288187157999891 -0.023308335708637277 0.41385504925322275 -0.7666967920478667
Ni 8.25748462026037 5.792783276229882 5.580740080755325 -0.1486141335976989 -0.5059655913372383 2.262497762601807
Ni 6.939852909441954 5.6798592271202955 12.086122715029626 -1.569861082894148 -1.3361670888069697 1.2348059746589637
Ni 2.705952787999314 3.141941261197142 4.764175517749006 -0.45078920327541067 -0.37384534162950456 -0.37320590827329275
Ni 4.909258432302149 3.9681877954809526 3.3764558167015677 1.1103650958733586 1.1266121538598406 1.217456941857555
Ni 8.007876630633351 8.27806238335467 6.263982690984178 0.5320689732925096 -0.9306323864939844 0.7331276978431696
Ni 8.946152528674821 0.9799202729275094 7.534660023235072 -1.4865609400129107 1.0946847090236242 1.387640316985597
Ni 3.5177091090060553 2.033204744712949 6.7078499294151515 0.49651370189571914 -1.6979593559266821 0.4912257140239024
Ni 1.6980943508348583 8.840588880707884 12.772848141638761 3.834792137527796 1.2390740059066983 2.2515939712051094
Ni 5.3931909720908155 1.7306258481157133 8.135123024222015 -0.03471092111862409 -1.4916306412263345 0.3488333929661992
Ni 6.145307752009377 0.4804561799006152 10.12434522150549 -2.013972874149383 0.3333795203049742 0.443563632061249
Ni 8.045517980336546 4.805908438814205 8.796415405579596 -1.035857354472771 -1.6192874558460757 -0.08745350292797842
Ni 2.34233236914387 1.077044363193289 8.730982546248688 -0.01916834539833473 0.3932137188537873 -0.32750326402985536
Ni 2.4248463398483016 2.2145860585853665 12.19899234513327 1.4484240239318733 -1.0845028833946162 0.1419017545745298
Ni 5.505506266218679 0.3238392031558895 1.4542326392928884 0.1137034377634429 2.3978195499659734 0.03984772812455718
Ni 8.340275297774676 3.415908673653405 2.172006414681953 -0.19711310963935086 -0.6846675454592531 0.131504984721238
P 5.268958838017712 8.60783233580219 8.570769303331632 -1.2604396160666678 -0.5492524270503314 -0.3758595438460559
P 3.046256046342707 4.078224870207519 7.214152370070066 0.2705155337909019 1.5355191150791685 -1.494037450895614
P 5.931044445563598 6.4668133944019965 3.337118254253845 0.15443382560326951 -0.9616123798152666 -0.9151497174773529
P 0.5708904218596738 3.9308600468289474 13.033228327374177 -0.6931257035289354 0.30871235657559737 1.4646561695200195
P 2.7249440987170006 5.900855732606343 10.428842618651185 -0.7865485366664712 -1.2324153629396002 -2.3246276991633317
P 0.5692836776503387 2.338642945012217 9.511543863866263 0.030089620296528827 -0.4793875837383937 -1.831519423404736
P 8.97064108134867 8.858325787220808 12.589536336589456 -1.6370283247692647 1.5842626030314588 -0.6445210551473545
P 2.89225025952716 4.2862622734311335 2.9658109202201004 -0.08942116817731051 0.5369167883031141 -1.0304181857350705
