# total energy = -381167.96954308846 ev
CRYSTAL
PRIMVEC
9.21628121463027 0.00000000000000 0.00000000000000
0.00000000000000 9.21628121463027 0.00000000000000
0.00000000000000 0.00000000000000 13.48895915359144
PRIMCOORD
 96 1
Ni 0.0568239019329451 8.729799576588587 12.294080115611903 0.22031654433900769 -0.8985149371341493 -0.18181093206464172
Ni 6.894718224315573 0.6095095255017178 6.4711121454645975 -0.7460441487945215 -0.9061649974802393 0.12410920647779916
Ni 8.133017735102925 1.1121654894667539 0.0629554936605934 -0.21346815395860655 0.058325475213770524 -0.3305716185425339
Ni 0.009924091345756338 3.994962878401104 8.317251191642367 -1.0828794888585802 -0.46717047284691154 0.36932405672038326
Ni 6.507173609634059 0.43120029436815815 1.7263034312703278 0.5377536823821126 -0.8807972081394121 0.46296723339884144
Ni 3.256959963651118 3.129812151424099 10.886291354576846 -0.5468720997436131 -1.2355359108464528 0.624271303759383
Ni 5.320079755901889 6.632966628558862 4.142957918176508 1.3201632571795456 -0.9663622357954261 -0.5306013876080475
Ni 2.767695255931795 5.10027145482807 7.155339904025673 -2.9253662099080975 2.0031253899119177 0.804315373731589
Ni 8.689211075207911 7.654766483139713 6.705334709971518 -0.1473661201232107 -0.6138765907886202 -0.6026719803220524
Ni 7.569138016671081 1.5720579097427951 8.586801604353736 -1.147462257835972 4.287160255254553 -0.3706466321865488
Ni 5.8865308167236545 2.0379224800857476 13.157575598527153 0.7522096541752852 0.19300294412571922 -0.3333705214439097
Ni 4.360600393222975 8.838763666466816 6.442556420515033 0.07401331826267253 1.6150227670324508 1.4915653352060376
Ni 7.061431530735879 6.439231186341975 13.098278046782545 0.20411370932690007 -2.365930671677177 0.6373083394489991
Ni 5.19767832837311 2.8070119105389613 3.303527066495382 -0.10626935008290085 0.9145719905970121 -0.1478263475890809
Ni 8.313813518841505 6.168816286475856 8.723242192680242 -0.7670919706037563 1.3298236630874452 1.7171014760727719
Ni 5.5412981479637295 3.0922097250768794 10.884078525516559 0.5603315676826286 -0.5378192455127254 0.825809796159939
Ni 4.446901648202231 0.21272466752223285 12.917458300713449 -1.206232019676013 -0.9505694917375435 -0.8262247722101707
Ni 0.9615438096156246 6.378164108651613 4.960942484046365 0.22642677100180356 0.06969977848898319 0.23147770316214974
Ni 0.3072569830335231 0.5233419065964904 10.080865814781342 0.9249649037955618 1.2795297999288995 0.7801277207417919
Ni 0.02909764227045126 5.665063585075693 1.7519597142275312 -0.41435307193556387 0.9626773307446711 0.393021143227007
Ni 4.7179616877360715 3.773532511877012 0.7724238809072395 1.2803119295105627 -1.273773871281729 -2.5916732721277627
Ni 5.066420054834606 0.3686881038220993 4.237745524670597 2.9943381090921206 -1.5927145904535538 -0.7664525372475446
Ni 1.0046575719813824 3.8042964577463794 6.000482757861471 -0.6631900923117675 0.5266007510890867 -0.6012583878039773
Ni 1.6032642370986 7.398406411748963 0.734296126544875 -0.379158783422618 1.1558360837219643 -0.5327140630756761
P 6.079289333157991 3.203800455030833 7.634345969400121 0.10742326118168596 -0.19709048393153153 -0.06975248610378955
Ni 3.0801087481666096 0.905297768499339 4.096286671357312 -0.6202812087633833 0.568908253608046 -1.2184555583253984
P 3.2054593856049753 3.009696361575248 2.268735020634709 -1.659301020124536 -0.7657542256289392 -0.10506401692089001
Ni 4.305293491137274 8.021168949281883 2.074224489188459 -0.7985141936687796 1.9991232107310604 -0.18062128263191474
P 3.8534929655506582 6.792362207891009 6.5637403773280125 0.31005575797736923 1.2503611487847432 -0.7893836921224211
P 6.935076318672061 4.0557442513814745 0.057072741519066404 -0.31476576185852884 -0.4139877181763451 -0.0034319084996844123
P 3.395277908410694 5.526247961143874 12.486688406666472 3.0343516733705806 2.339807235117248 1.748169915342802
Ni 9.100496829661592 4.035864733334672 0.03480252018930636 0.04488606187941302 -0.14505932636690502 0.3709268824311289
Ni 4.030970888140954 4.959151760654388 2.3392146860771335 -0.43969926400983633 2.3750094940499937 3.3689393550510434
Ni 9.193673430242569 0.6296388047627379 6.191674506531339 -2.1036948613965643 -0.7189534632253166 0.15031646100078627
Ni 7.073643103017758 7.522798555966713 10.694342949239548 -1.5846328418866837 -0.00324267530701377 0.14159347930549163
Ni 2.293821737428124 0.44874717170209716 1.9635470926783798 0.3015564622571065 -1.0998012043145833 -0.2963013845057542
Ni 1.891899724437379 4.36699649221439 12.322798047106495 -2.945392532431353 -3.4062560892236307 -1.7148610167780274
Ni 8.337213656217875 7.93108901910597 1.1037556330839504 -0.50234599230678 -1.0327252366016924 -0.06703997226863292
Ni 4.406525121283807 1.249709266625063 1.5804336658860187 0.0663012943303955 0.8094848337476703 0.562691840384689
Ni 7.83734100910501 3.0036781301034994 11.79036151445132 0.37753281778342074 -1.368762763354804 -0.20390879240494558
Ni 3.4818280029760706 7.835543834316356 4.554465785001503 -1.7617689941834758 -0.13354026998371193 0.38233769537123186
Ni 0.9924275671375687 1.7598396344547058 12.524592205401326 -1.692226052987331 1.158385332506379 -1.8834292249001499
Ni 3.407295938792256 5.5029031214533095 10.362676646063719 0.16952388716717257 1.6666939701544974 -0.11417909184828076
Ni 7.660314684282121 2.775169659796402 5.498612021034862 -0.13606920705315276 0.7939304309528392 1.3415016136460058
Ni 8.34027346149907 4.21278967906692 3.490524485696962 -2.689740288905529 0.8025587960517985 1.158756856913185
Ni 5.722103147983277 9.045530929971687 8.576144818671068 1.7672654985216725 -2.0671972806911625 0.2315437805133948
Ni 2.2563575552954163 7.271166436712269 11.835158169721735 0.09426204120937959 1.0050532246077208 -0.7253899628792797
Ni 0.03749643911609367 0.49364059792267073 2.178723290937956 -1.6868804724047013 -0.7465781669211207 1.2830144160433903
Ni 1.7981517144364192 1.5769425386555467 5.736961636159008 0.6884609510634143 -0.2802726131776657 0.38681604285755966
Ni 8.06196942512481 8.806515899361688 8.713476621367127 0.19949780782144352 -3.8967855485114566 -0.8260679349173322
Ni 7.572538824348072 5.131109130945178 6.764470055171101 -0.8199127139492136 -1.4359114932871593 -0.5997290956436445
Ni 1.5470080580732504 6.971535926179317 9.372465594498824 0.9877067629094732 1.3461198291443075 -1.4183801692716154
Ni 3.5306374269797165 8.236101837723918 9.341684137695617 -0.12440951132703734 0.38078474906181514 -0.05336350322280487
Ni 7.148525385878337 0.8704058503846483 10.908791061302697 -0.790816825024522 -0.6760085842326745 0.3624057323339952
Ni 8.087480090842726 2.61423496154269 1.8634997546361642 -1.9353917340103697 0.6448002769506701 -0.9078765808547075
Ni 0.32637431464431654 6.2697345630694965 12.651847848115665 -0.7968105807141116 -0.16524325751394767 0.1893067262210546
P 9.110081761867747 7.349090092292108 10.480570390571318 0.30559823642664785 0.5151912237005644 1.4607465500529682
Ni 4.758614703083519 4.9113653438381295 6.323341061316703 3.7420699300017106 -1.9286978669299621 -1.088355681481803
P 2.146969516492684 0.062049533241492504 13.256058012061095 0.13810217832278152 -0.3557607162136518 0.002833869904369313
Ni 0.9901327131766723 2.224976118601229 1.2419270389761436 2.1359010138154635 2.237298894738676 0.4405988930059702
P 5.6327144388799235 5.58447642429626 10.464356187465272 0.8364140540383465 -0.1462957698771674 -0.46276180225625463
P 0.49787916553960365 5.747862653287315 7.228301513932633 1.3826405497781606 0.4197297628664449 -1.6060516738820922
P 4.869375967750401 0.23782244385280835 10.641399101593901 0.5098903803129412 -0.11949561896518775 0.4288921460920033
Ni 0.6894515466134289 1.8581957849393933 7.953602550253271 0.7338110970634395 -0.9382289678943195 0.47417852873362853
Ni 1.9115580517409623 7.854271317242227 7.258058120292257 0.3618837983922542 -0.2377298547194486 -1.6039410552969926
Ni 5.16478542160026 2.057000181688381 5.758611601779658 0.5141059610561856 1.2049598378318087 0.7935365379485302
Ni 3.2475962221881836 3.110421096268572 4.665533951824603 -0.46422578839629086 0.33230608473513734 -1.784067657680676
Ni 2.2440538202038627 3.51533840057374 8.675801386400263 -1.5464501601693754 -0.2211992040542771 2.4043653215042915
Ni 2.13162440868187 4.986072517360326 0.8814847417356269 0.5038552298624548 0.14245736996768368 2.1708880714136094
Ni 2.5006350823378307 6.929343791910304 2.6928277191207655 -1.8258303434397585 -1.7136510556303262 1.2771759549847423
Ni 6.989950055552292 1.5410082591634366 3.6569244385643755 1.4385167921204904 -0.2948620809560664 0.8029611736965397
Ni 7.68328165645302 6.3162583493932125 4.650251514724368 0.3923842809739565 -0.8172187120568184 -0.5023305656878123
Ni 4.810447067244491 7.286152109565353 11.847892305134469 0.15037585348381197 -0.39786355892097286 -1.4071130809982282
Ni 7.939273076605071 5.208212537518912 11.354965047358679 -0.03808215158370216 1.3102274861230725 -0.11458352637555105
Ni 3.1601429320879957 2.893073542213063 6.85547990809663 2.0281843897630747 -1.3818401653640524 0.7019013928390364
Ni 5.145726152559562 6.402642550901176 8.37931454930531 -0.034322941651586045 -0.2337572432249458 1.2640283618591908
Ni 3.2644343675157246 5.306928122961331 4.5394801121484205 -0.8787346691834286 1.998672753457203 0.7237693965567212
Ni 6.35807261614256 7.17948287364802 6.60269667534935 -0.44825898065438924 1.321781252398943 -0.697743919027237
Ni 4.349301232756875 1.4839133985700483 8.729514793506691 -1.2749905172976492 1.8755724478598925 0.340862973166213
Ni 4.333154308501892 3.964954667571068 9.072848908387321 3.611547620908716 0.013472837675454215 -2.7029660435671836
Ni 1.084240158135363 5.102391199450586 10.2910910269052 -1.9860170123664054 -1.3618966323625898 0.6191987743324819
Ni 1.2045034084796928 4.479370606050577 3.4726108003805183 3.1349124031044786 -0.37960358426952046 -0.5915144210433362
Ni 0.10438636312169391 2.248367039696632 3.856209925179864 1.5966797457488888 -1.3893976659963363 0.9034982492813537
Ni 7.199362391694822 4.112783814289058 9.598081995838333 -1.0679956297682123 -0.975567299333462 -2.2545990765800203
Ni 1.118644534986875 9.02555924911521 4.245299188551524 -0.533873630601416 -1.0398384506077059 0.02100385594517673
Ni 6.722005118985452 5.13218743581837 1.9665958384224143 -0.5314814762201556 0.5210613093280961 0.2897833808815783
Ni 7.68230473067047 8.602541168989958 4.54847704562885 0.15158581463151313 0.5966424862985208 -0.26002594711348764
Ni 3.1907133360570463 2.124057842007589 13.170389915584304 0.40687476128064765 1.3948607459934363 0.5459778700641178
P 2.5294912580469346 0.5929672227932314 7.911517324843481 0.0033252077184910476 0.41723964945473946 -0.18994076026062773
Ni 4.752946690288533 6.2613753962320144 0.5141219391166476 0.24435275935260495 0.07106349160572922 -0.03954716616500286
P 6.252767389808411 4.3993548546911265 4.440781116011744 0.3863830690851991 0.6435617765578787 0.2516845171273278
Ni 6.448364520780724 8.476849529155796 13.197152152257603 0.5988932300059105 1.77364260569261 -0.5317907799304583
P 9.198152542792752 7.533507874450897 3.1637409681776902 0.052948270062257205 -0.6702395429593812 0.04082526154647807
P 1.131888330737109 2.938915323745188 10.477993518412816 -1.2289256046187869 -1.5554688187282177 0.12433160690125039
P 6.190806332864206 7.396406478779025 2.2005889175332447 2.2097991466565103 -0.667004066741219 -0.5720365148243826
Ni 2.6228614005282287 0.6270296756208511 11.174293683413161 0.7927929749142862 -0.25812050256065866 -0.8203346319779807
