# total energy = -381171.1613921565 ev
CRYSTAL
PRIMVEC
9.20162098988272 0.00000000000000 0.00000000000000

0.00000000000000 9.20162098988272 0.00000000000000

0.00000000000000 0.00000000000000 13.46750243279299

PRIMCOORD
 96 1
Ni 5.2766972655183855 4.1041162764233095 11.999720069328147 1.2322644391840325 -0.01474656218155525 0.22090738384547115
Ni 1.682231180907251 3.2364954161858908 8.025271198125898 -0.35935974641881985 1.1557332395955129 0.6030777004009034
Ni 4.142579052919146 4.72362462339907 2.277731578085096 -1.3970546683209617 1.2660806164025293 -1.511910474521293
Ni 3.263851835928025 2.6565816451100304 11.8746203488565 1.6275784922102745 2.7642318323562005 -0.39719378654745785
Ni 5.855055962616304 0.5946474068952701 9.315108445806247 -1.6570050250015076 2.3106882062641043 1.6137665260278466
Ni 4.02332604253971 5.103320319409642 8.186356618674083 0.4901134547963301 -0.8776090402194177 0.5624018199480959
Ni 8.547505527051877 7.203866400383213 11.299571474893881 -0.3169583986344735 0.22574928531880475 -1.1759755347843166
Ni 5.511393815112358 9.209534565459998 2.475704457584598 -1.5239342384550465 0.4142849377017898 0.7825427579411877
Ni -0.12613490285341517 1.8509797115668547 2.0448652309420865 -0.3278051115409903 0.3413172870948122 0.6215703598884521
Ni 7.577737470192382 -0.1327729523663569 1.845761472200637 1.2568015050934485 0.5059388518643609 -0.8974605277277059
Ni 6.874172313817228 2.9773041510340437 9.3728292952514 0.06068651924677935 -0.058592355721912 0.4351921201681021
Ni 6.788118752623673 2.474674796175535 2.243618407916911 0.038513582694165924 -0.7021729013328681 0.3811398184083888
Ni 2.6156804390038118 4.295933271359243 10.151521087679248 -1.9073029461939541 0.10132023360774163 -0.3539565731253775
Ni 1.8376097560050244 1.8998771264708916 10.08275553234224 -0.966035962804259 1.224531589316149 -0.47239058359527025
Ni 7.844087596615464 4.647784861705605 11.697468897743306 0.2846985101595032 -0.806882620238133 -1.6408415278677675
Ni 2.178943893352644 7.070396885294192 13.49645760936835 -0.634668587833307 0.8331353832870748 -0.45799369144365
Ni 0.8000110285195225 3.5356769269480015 4.276026484117355 -0.8069944632256488 0.5296410805773073 1.0322678373492997
Ni 6.162997416733448 8.362313699359246 0.03141709516500816 0.594395342135557 -0.028139181438377344 0.642594527548603
Ni 8.76824321732906 1.6151237577053048 8.807490892110804 -0.4541792027935662 -1.2436793658891936 0.1525317234845502
Ni 5.105464297142544 4.3869096998794195 5.785181611928163 0.20402603470910027 0.3499325395676489 0.9814445840498451
Ni 0.2238956866631554 4.8960630041483455 6.2576885397204585 0.8177141636359982 0.5287059703575475 0.21082351724690787
Ni 6.273444475651995 6.779386414132153 11.558026610352027 -1.5855918633658437 1.0239418339821076 -2.2587722341211034
Ni 1.6511665078331017 1.9179859169359168 5.485664241993301 0.553922321722175 -0.13741106579302786 1.7635530826670915
Ni 1.8135199117786849 5.910974214474007 8.133590842229651 -0.6132253303578665 -0.45740490881971546 0.9473923795611425
P 4.440729982110076 7.598956408613291 1.4058457664348016 -0.5389986105328073 0.13816619879149752 1.0227814951254193
Ni 0.6778613477953769 2.9029550519703218 12.186850678601564 0.7165643941678497 -0.8268346378800276 -1.766250684103913
P 3.898920124304374 1.0722189069802233 8.302001673392269 0.4120295660087097 -2.7027996931926483 1.3510522334489183
Ni 7.108776847199488 5.007669467334471 6.966523464540389 -0.6912475126696159 -0.6612674213677578 0.6271663659189909
P 0.9991764381228191 0.5686408649789585 0.6129797967547568 0.115501153093814 -0.9594295132313347 0.10281507298571324
P 5.7152097240556055 6.91017825746034 8.167219086962112 0.6722030944436552 -2.148826720738196 0.9448271899371276
P 4.250403649803886 1.3212883888436917 4.12733196663838 -2.86846641139726 -2.9374858759897666 -1.014883066213949
Ni 4.05497961936882 2.3433308555770735 2.1160949804287537 0.748640191656472 0.08457515293891886 0.005225767175313581
Ni 0.563319567455623 6.371726991382144 4.23295737606319 -0.08654178974698644 -0.31402579836871075 -0.6823350406713345
Ni 2.5001816900622478 0.7790423741944719 12.254256234329459 -1.489530821274512 -2.1287206940169403 2.43623414518843
Ni 1.9496578970073686 1.5223714162990776 3.2607922968885834 1.0587383728360023 -0.3057638154702347 -0.920312492625215
Ni 7.510206772416558 8.449140196731186 9.212970450805344 0.8676575854336606 -0.8143326487582749 -0.48303675045520683
Ni 7.226290751177556 0.15520926526822237 11.428078555685245 -1.0259308393876783 -1.0751944615094966 0.11686718020340518
Ni 5.233725694648636 6.723781017394273 4.309709018414726 -0.3679392605577147 -1.2963874949161867 -0.9781026641608058
Ni 8.68561265921121 8.18663634795769 13.280856264028962 0.8262227153276417 0.8586690087818051 1.8807953868217286
Ni 1.6558961411151258 1.0040072892377268 7.677163747434119 -0.6185685969476508 -0.2943342334770544 -0.25303588894889967
Ni 0.2263589606506998 0.6130626113452982 11.317846814702104 0.5118187076839057 -0.49175896081955306 0.06265572715800823
Ni 7.475166998996428 8.148201176325367 4.028008747553761 0.8194619995650403 -0.48341444550959967 0.2752144819284679
Ni 3.052794251123001 0.09068657745328118 10.085516938855733 1.699457023518131 0.018777537717819273 -0.06708959455964575
Ni 7.196063425629991 6.01103264309021 -0.14700049902134782 1.8131496626482966 0.3092643724243254 2.504620089961996
Ni 0.9687926850153427 8.942825575811238 4.74029151982656 -0.5613492103138655 -0.292767917431199 1.5838849079770658
Ni 3.2896347784498747 0.22922250515919362 1.4976935884798948 -2.002895790399615 -0.8619739047853219 -0.5965198446777276
Ni 2.6843521378048707 4.230160083227129 6.266590188041528 -0.7159105626339348 2.4570855347161427 -1.4595129347561833
Ni 5.936490309981891 2.163503573027282 4.646140532002303 1.5080052259296157 0.059048983643356374 0.728589443653184
Ni 0.9122238785408322 5.837876535889576 10.418298169324673 0.41840667317964714 -0.01313859426448705 0.8223827727562613
Ni 1.8192065136625188 2.5676019683840163 0.699883587744536 1.0571368326768376 0.06173861466037755 0.38211015274145804
Ni 4.3322612717433495 7.385018716381666 9.876864657824875 0.8329029555612947 -1.183478528029581 -0.2937901880481263
Ni 3.2337257282133436 9.32575104085292 5.817409369918359 -0.0697915668718411 -0.06531476204741009 -0.5060375822257543
Ni 3.666303141095105 3.295790663013443 4.281938525719885 -1.316350568301675 0.8347567209405818 0.09843057076477242
Ni 4.878046229895033 1.3237912298022725 13.532415704581371 -1.4039398254765691 0.10630431708589434 -0.032612643828698676
Ni 0.5380316721527862 8.722078683912883 2.5877802034504565 1.0412175903434198 -0.49940259340773996 -1.581704098275663
Ni 5.457739162062783 8.936927336640464 4.99593187936842 -0.31829254406486474 0.32292207241707616 -0.5401473794252697
P 8.652008338693795 4.251443432996236 8.250514922290641 -0.6875533516474804 0.33110229423502335 -2.9425712609324743
Ni 4.118848071918485 2.8585020200919997 9.419077563420233 1.700676497747529 -0.6795273960192104 0.12911591566377117
P 2.8453068953324236 5.666284704288055 4.411819408552117 0.06303959285998821 0.24077944017904984 0.22994326879549432
Ni 5.926478946147568 5.083849689011271 9.735913304561508 0.025054371865466527 1.028617899301538 -0.247096126425697
P 8.75311575212352 1.46744693952787 4.278100529529356 0.21964831462738948 0.06212145192109302 0.4699351800762423
P 3.9368952148781338 3.6460871793818628 0.2717349151324983 -0.38662938076805026 -0.19319551975249954 0.3916931684442028
P 7.853988540995731 2.3287094795359535 11.510795609042104 0.3122129135296881 0.6823877482861409 -1.3572051404241916
Ni 2.0178051034016664 4.7408684614739975 12.604262899630983 1.0783085816584463 0.20233219194644508 0.36851158812141693
Ni 6.2141308255820995 2.5134320245488513 7.050089827531354 0.3319358458799122 0.6952939148248478 0.6882786598492792
Ni 5.451380841833448 8.80659557437084 7.3724345792678605 -1.2955506008371882 0.6824887926403794 -0.864606971532795
Ni 7.058913262072469 1.67054512201976 13.357096296243375 -0.35061439612602197 -2.000545544999884 0.8508163455066057
Ni 8.80616309817579 2.701154298063578 6.627627756803151 0.0017558063488421374 -1.160179962512957 0.5887998503256505
Ni 7.321748369208132 0.6325314014194346 6.299249502064655 1.4266418950597752 -0.7017473837596753 -0.6117670006447851
Ni 6.524593523900166 7.097468054780018 6.140386273029328 0.8732001125184445 0.03721363293581978 0.0037836354121483225
Ni 4.140352260595702 6.6356386881948435 6.508830226671693 0.6567042274771077 0.7319766149578619 -0.7987265667899018
Ni 5.785068431987756 4.3488517947151175 3.605412333156457 1.5263932415185004 -0.7807506990377715 -0.08057734463343541
Ni 1.884528822357242 4.0815170948267125 2.5472976711075304 0.41834265271093113 -0.9766294220493891 -1.3784419383157807
Ni 2.8451596693936834 8.326685022184154 7.912818185792018 0.9518882105489671 -1.9758421287159327 0.3318291450987188
Ni 6.213339486161371 6.191752482893612 1.9964361785556664 -0.7339280822572779 1.473394834944598 0.10203782850005652
Ni 8.354354297046111 3.335164400005233 0.25837416119183937 0.4130281824765532 2.454242923061025 1.6696450823630213
Ni 1.9211420729976565 6.921836711484318 6.150163915685901 0.44037032193493186 0.5228911634479834 -1.4652354390622573
Ni 3.1934962404526264 7.850197473073175 3.717919635055247 -0.10111377402389038 0.7337900140175169 0.28154068125681186
Ni 0.8043091057686146 8.073042334598574 9.365422910370658 0.21394277960217994 0.03350327396376811 -0.2529579845231127
Ni 8.888379583340935 7.198465048755688 6.31174714393945 -0.928338448253485 1.2926735363997093 0.7107758125105308
Ni 8.206272607537143 6.239113227062051 8.938192559551512 -0.16295214748692582 -0.2855189491782696 -0.034013895051599484
Ni 4.148799348830912 8.120081022026017 12.365659341687698 -1.1238628732494775 2.1873241054824457 -1.7797266071031608
Ni 3.8696405657374475 2.3920350364365146 6.8823387526067155 -0.1249062484577978 1.3374408133130709 -2.329866321854452
Ni 4.740785646883456 6.277502390588516 13.304344322230701 -0.42088290263428163 -3.396842766329531 0.5289322274357408
Ni 8.647177487578888 4.445625244573183 2.49589189427221 -0.7069001316052084 -0.7354455473430689 0.04285129083757136
Ni 0.09429085246606086 3.547289372866122 9.918277474068214 1.0817744287198596 -0.15835270104170146 3.4183312752206096
Ni 7.727319023952266 3.498005489872893 4.786000572994758 0.06174504241828076 1.4615142814569282 -0.34260309578577125
Ni 8.56376479166148 6.728777497690264 2.166355155428253 0.050250154404803786 0.4646551626242255 -0.966276360949839
P 1.8630338353011957 8.107962486943478 11.336809515611822 -0.48313368104438736 -1.5533759407549312 0.6462035850561
Ni 6.035582568375111 4.164101644838706 0.8550735296082989 -0.003655337364400156 -0.6698551630367688 -0.10943386385381153
P 8.956186329751896 9.01315356642312 7.635899077291636 -0.013746917272447293 -0.42365018096677365 -0.7725252258041856
Ni 5.676848165392653 1.8985336897798888 11.336552790381146 -0.7179013678117184 0.0765885351890165 -0.506348942818586
P 4.080826973238869 5.427070158698998 10.967489567633955 0.5404533407014628 2.0235803153321603 -0.20788706032640328
P 0.22534586215974484 5.8377201083296635 12.934418907579765 -0.5287098270122894 0.597320486202152 0.1485675966304796
P 7.324481250695994 5.7889699193643676 3.8723108762013454 1.1598531753011574 0.6528815112969079 0.3135858826178148
Ni 2.256163898221797 6.22963555725566 2.2787824032228534 -0.4307988761964129 1.5420944543038408 -0.42230523690310495
