# total energy = -340859.792636117 ev
CRYSTAL
PRIMVEC
9.32976057862899 0.00000000000000 0.00000000000000
0.00000000000000 9.32976057862899 0.00000000000000
0.00000000000000 0.00000000000000 13.65504767347841
PRIMCOORD
 96 1
Ni 2.2733174019858673 6.6230289537456715 3.218494899992967 -0.6161576735133131 -0.01758608851287939 -0.4538616715531474
Ni 0.4742531782542536 0.5753728530907435 7.108475978496532 1.475788531987755 0.6351781804798738 -1.1375033468510474
Ni 1.4044461481248305 5.655738057700351 5.315063723599427 1.0179997574660598 -0.6480900034455355 0.9695745720851365
Ni 2.500683662297838 3.09370189118374 11.284886298335083 0.7274329614512376 -0.48855588050122306 -0.940477140498548
Ni 3.4030860749426752 7.082071823662353 11.017028878000383 2.8006828760943834 2.100126170208699 2.2373441461543147
Ni 4.340493748510389 3.9031519012234006 9.761256193337816 -2.288651023958407 0.5939777949821642 -0.8943551493295049
Ni 0.46463979316498594 0.5296542283305158 11.211531057395288 -2.061914177915352 0.3913113596247519 -1.0517819961228274
Ni 5.714506218295555 1.8857311667728933 4.328418239658449 1.7885346923130938 -0.4811780999799133 -2.3182351653734266
Ni 2.81824071614431 9.079125691216635 9.118922717067548 -2.6037651702952895 1.2968117269377988 -0.8365377241004045
Ni 7.0918960613360715 7.201642032614271 13.312155527836282 1.5771938691101353 -0.27249014101876945 -0.10114154193803225
Ni 3.119349402451594 1.3175394302419416 7.2202157195666326 -1.199118291449367 -1.4323021786693462 0.3671090513469355
Ni 3.4737869990560974 5.521716049929262 12.74377812907389 -2.0471228785387905 0.17904365373214973 -1.4210803418115976
Ni 7.050527903838194 3.1606989004287245 13.154835242459487 0.24472428375941077 1.10090986399773 0.7816292449879829
Ni 6.5258781589722386 3.4453219001553252 9.72512483033781 0.7224743318943816 -1.3138949076723307 -2.8330828896916436
Ni 8.980612751428614 2.5932908637691803 5.349842271345218 -1.2388567476895698 0.31305957780069954 -0.5110332356681327
Ni 6.382619688430987 8.866127261880473 7.7507273528755105 0.08188372214968478 -1.1713323795853505 -0.9207611501268594
Ni 4.480197580349185 2.7349819345676165 12.959869373974 0.2511319870579675 0.025770166985568523 0.8447930221306611
Ni 4.353144903577399 0.4375256435663545 5.44725803131327 0.031030901163875593 -0.7836491036314891 1.2210117490883488
Ni 8.878274609887292 8.803692505458326 12.898011196742962 -0.6204416456006476 -1.2788970514409073 0.9939990236760882
Ni 6.58007473698423 0.9329471151329524 12.798370288925733 -0.3401878014760593 -1.6829181453228437 0.2589895354291733
Ni 7.524768953403962 4.276202369773837 3.7781601685182102 1.4903574309408654 0.9314597674912861 0.10732555926155708
Ni 4.828925363604861 4.187448359336916 7.252004079112589 -0.1465593079511992 0.5732109947484579 1.5350092653222855
Ni 5.791430092578369 4.493893668578072 5.1508207560251975 -1.1752229728890082 1.444252151942371 -0.47822827332297
Ni 1.4978557089883284 9.006166965092728 1.5818823298437938 1.0235371423445212 -1.7898315567476464 1.9627976368271487
P 2.732920057524984 2.247940453768856 9.151885693444578 0.4433641144559332 -0.0401410909952599 1.047508565558454
P 0.42165478819431135 5.093657314214306 3.6017232041352916 -0.6651240761096867 -1.330626875715031 -1.2900278712467461
P 5.556338790676809 3.840502560312655 11.513239647294613 0.3840839886383773 0.35328962896533994 1.2373030300492045
P 8.729791473536656 8.891177668484398 1.9170726307969395 -0.17164067639985925 -0.5061964764011218 0.33938844550321545
P 0.1800466486715811 2.9897683606184815 12.730641826467437 -0.36993160839739514 -0.10533783940756697 -0.01915266166905089
P 6.273601438461953 8.438189813050377 5.39057600513767 2.979251389962327 0.6579607255920282 1.764309501217142
P 4.630583987816097 9.229166897549714 12.130952818914196 -0.1290218132880681 -0.5166510960755424 -1.1597009659940092
P 2.7428469225628147 8.823387629607632 4.026627547867832 -1.2599243669931461 -0.8905892545291695 -0.22144885817123794
Ni 4.603481033929914 7.642734443571567 4.631969457231621 -1.9739924771017037 -0.8897567313255451 -3.1305389566271313
Ni 2.3999968883426965 8.191371002358823 12.98812082136221 1.2002752878719458 -0.008362255921766244 -1.4671761077283958
Ni 6.097875401819525 8.844127686918814 3.1663322097424857 0.5992734961634647 0.1480361496070418 -0.12507028483948782
Ni 8.660368726594458 8.401971683278893 5.74746359681636 -0.9518984949616123 2.746068531183613 2.5671806863030366
Ni 2.2855580475964254 3.476352683158921 13.535210505879473 -0.6847505920913626 -0.07408453782024015 -2.4575457621820127
Ni 8.48638735514195 1.416257624758189 0.6846821915834438 -0.12068989638360506 -0.9305722226800104 -0.9330196557792382
Ni 1.908318516638108 3.5924988700536153 4.285062843200931 -0.3700303387587885 -0.34698271291070565 -0.1027219990512747
Ni 4.041997395107797 0.9694927194935605 3.174266237964451 -1.786975318245774 0.24889924107270686 -2.3103349366897437
Ni 0.6096709181772787 5.531969456580179 8.942950374751248 -0.4698328501704231 -0.3790955342848503 -0.7109467908707562
Ni 9.05632375686282 6.438598250674394 2.1713440540751656 -0.15591812345827985 1.3208777667480671 -0.45913988923295124
Ni 0.952456577050817 6.709786395462578 0.03399951275457044 -0.9654736625428856 0.16134700778333505 1.5876747140368013
Ni 5.582760672055697 5.418015763373351 13.078449695350248 2.4254295983737584 -2.495498844387018 0.08550486384203984
Ni 5.03974062901353 1.5114678293738502 10.722939903398423 -0.21698670863482628 0.5128296654469232 0.6243831467468989
Ni 1.2876002292020927 5.270652198267583 11.991671625220338 -0.23543360248610423 0.5443436768948043 -0.6100957835899493
Ni 1.92905857394929 7.747377035925242 6.073792491366374 0.69848156852421 1.6707228888082324 -0.2849610197922705
Ni 1.382595849329154 0.836446604657581 13.442246907561847 -0.6413136039536504 3.243629957617556 -2.6052438117233456
Ni 8.312284696804582 6.638040538187278 4.710827390839945 -1.391730685004887 -4.0871628820888715 -2.758938445167745
Ni 9.014843642240457 4.800404286141846 0.4862727085439505 0.14900622682979497 -0.8415812000615829 -1.6769056205801764
Ni 7.7775401512140645 4.1331304944400635 6.571928923201777 -0.3694078746834412 0.21961874694103467 1.0468917579100616
Ni 6.825148882485865 6.384578938109507 6.68473318993054 0.708479046056554 0.5991279717245359 0.44361633967605535
Ni 4.780102727568236 8.35028481080748 9.419633955582905 1.8180399008610624 -1.3376377598152254 0.09939679133278366
Ni 0.4967052465940467 1.8466581303269953 9.103710542777902 -0.15364809647718053 0.6017638666854862 0.02101285480624123
Ni 0.4844366117023667 8.11263715456347 3.7929487716868806 1.133931313229073 1.6131358344223832 -0.6616430595396218
Ni 0.3860141705899717 3.7757260340366594 10.625702341853513 -0.25422245305783314 -0.10625957989088795 -1.33077702813965
P 2.5778501103503735 5.973229803224206 9.688843258195783 -1.037183529483362 -2.6952972141680163 -1.9839020229059319
P 9.283867282621895 6.405664196554523 6.608046291561223 -0.6749513466127537 0.6168770681778408 2.8130881917372714
P 1.4703142563645724 1.881150254429308 5.747654856904026 2.676930024514738 -0.05088238867216398 -0.5905407442761572
P 6.467604475676853 6.177467587569275 3.4939028953982656 -0.4907793705151031 0.7715998857764388 0.3227071281927926
P 3.001551847970719 6.935202735856402 1.0025182052650956 -1.173907082291062 -0.1889971654004358 0.9040502651300817
P 5.8494425425832866 2.559451822893041 6.133532812992538 1.0116565888568514 0.42396616954529565 4.861930366960014
P 5.652845831984442 3.7324452756621325 1.526470084055083 -0.08287128287393469 0.5183660218841202 -1.4320530387730175
P 8.815448003529442 6.785600028260898 11.890691896789457 0.03495337614673335 -0.20819919225018335 -0.7598057213549881
Ni 8.099771415007861 2.252987854131137 11.023269554714487 -0.8583391362462119 -1.3246500893063058 0.6904347869603336
Ni 0.7702864749181361 1.5094432713727135 3.2153675643156348 0.18313839262681364 -0.3120177667997465 0.16053891005974286
Ni 5.106541713290662 1.5360330884383318 8.368003891709593 0.6312413073193128 0.6666777937500518 -0.46423890102241333
Ni 4.820071421010029 7.47631017802192 13.643822911272244 -1.60929872006448 0.5093193383008197 -0.9845841581200915
Ni 2.5726161147806152 0.6107438406202774 11.151312119061942 2.577203874866994 0.5340788046336866 0.9447994220229856
Ni 3.7982853946207524 4.8594989883501345 1.1658655158434312 0.24874960286872 -0.9407311654908832 0.8153487487276152
Ni 7.566370354911187 1.447596289854123 7.1298187383278675 -0.483992943720889 1.4867334610350331 -0.09555684876140318
Ni 6.955233731379168 5.446172980181784 1.4973854890654836 -0.5812881153296375 -0.2279853737381751 -0.2548405462578063
Ni 1.381280353116434 7.6609368060610485 10.566493816568661 -2.821534522732412 0.26741349782681045 0.8291681711092107
Ni 8.643080680621619 3.1324297264958036 2.0675383412270296 0.776384965869908 1.4069295042325125 -1.0107536174266076
Ni 5.744408100293908 7.027744629005127 11.262150605279924 0.670895174265509 0.40438901874431643 -0.5731886261509548
Ni 2.229374230624793 3.4237514941708658 7.257070138995617 -1.175555930748395 0.630833787468249 0.6042161848807207
Ni 6.220440463851464 1.7945514186387577 2.0396684810381123 0.23606892207725796 -1.2142685168272442 -1.5070243500735852
Ni 0.866659167676385 7.876118399324704 8.26337902590063 -1.0227084757956386 -0.5997445222626122 -0.4196292327328386
Ni 3.7171724579300562 2.795634706758347 5.518769711603184 0.3090082905494614 0.24743448360172224 -0.2808505971683227
Ni 6.8096428207444415 9.191661260846631 10.259037161302974 1.252462254288146 0.45080848654912037 0.03115457122593344
Ni 4.4343977866737045 6.510586681719414 2.6753377094733035 2.223022073104688 -0.09126079248921057 -1.0112012464869875
Ni 4.34197718040984 3.5167318860571646 3.2310023767502183 -0.7391533352119594 0.5957166320501418 -0.26000409273661673
Ni 4.481494417041157 6.769739435625266 6.529338567094919 0.8993505456615671 -2.730005049962847 2.3055436859486873
Ni 7.5310572118959715 4.915692135082141 11.121326269220223 0.7914739989925466 1.7293561250704086 1.1967613611814163
Ni 1.69944384138721 3.872830180008222 1.8790986401230871 -0.9647190437650484 1.021837128934279 3.088178232272733
Ni 2.6746090551881023 5.710233188044307 7.522852620623162 -0.5475439289996571 0.4705535303865316 0.33609563368455664
Ni 3.7876028189926356 0.43998496840091483 0.39390714786629205 1.0476440626950538 0.6941963108852948 1.2344190236331902
Ni 7.911244947132442 6.8594170923392035 9.413721686433963 -0.6495393342975524 0.5122948759893758 0.33592594087591177
P 8.426229060251035 0.03686748109350765 8.64636195734512 -0.43541066393681144 -0.940802642158767 1.4018690589904694
P 6.170265012560623 8.658754678049773 0.9909716938263555 0.9163797332297121 1.8536779617796462 0.7677740842724455
P 8.427078068445061 3.909748041807749 8.713476521570815 0.4759363919649997 -0.5913647828393493 0.3802124214981129
P 3.7932753132999673 8.49382317415995 7.320648724039604 -0.5962097696364764 1.408733904431103 0.6439890939032845
P 5.753457967856591 6.086343817997383 8.641214728546839 0.2519565398417919 0.15347737522727117 0.2971117962221915
P 3.5996174772189025 5.108724877218155 5.196714780280454 -0.3206456176780736 -0.3815349969642784 0.039403955718919234
P 2.360093503223522 1.9199620575847365 1.31326453403862 0.7980423962386837 -1.082049536758117 2.0371873645926333
P 7.771886316427481 2.14776681663428 3.617604322243746 0.1566909970685624 -1.7749811219983755 0.6559807190475219
