# total energy = -340867.9237331324 ev
CRYSTAL
PRIMVEC
9.27937672881859 0.00000000000000 0.00000000000000

0.00000000000000 9.27937672881859 0.00000000000000

0.00000000000000 0.00000000000000 13.58130581639555

PRIMCOORD
 96 1
Ni 4.604946454309392 8.53172820789921 10.109679751241343 -0.5588539546958375 -0.551362788525115 -0.23765889227219716
Ni 1.7571984827725053 3.893979156309414 9.283800361676558 0.7151502874291426 0.7884784066993323 -0.22889708691916708
Ni 3.15231567958141 4.218395451506068 6.397310991654328 0.16098551067885825 1.414908665783247 -0.9192634825354103
Ni 6.964747671845511 3.221660463025951 1.6462041441275792 0.044363356606723595 -0.5429817635502713 -1.147240628743469
Ni 1.2679990128925704 6.311535215563561 0.9951380077186017 0.07135582603516744 -1.7004795512453748 0.09102322255710776
Ni 5.991990593230333 4.7597635782206345 13.413006154336706 1.0692061051365458 -1.1801736320260643 -0.2702440252970701
Ni 0.958142060024899 2.844509469004819 7.15116849754391 0.4818347597273056 -1.1852263639586234 -0.023328390313295307
Ni 4.203232949679709 1.4210530551960976 9.64881207485972 -0.4097145447222879 1.0913291622878303 1.7828715804900457
Ni 1.2884878770496089 5.215056204971123 7.118424360337868 -1.7463308052515345 0.48991625118385945 -0.016741224014080847
Ni 4.490995706189633 3.5688854666003222 1.133740348464986 0.6395431423167889 -0.3794223214966498 0.393754936069238
Ni 5.525293612290986 0.6342760318773902 7.798494117131465 1.1507039047017213 1.2784463370567338 -0.26053271154657714
Ni 5.692387351818064 6.5768511593941925 9.569931803730498 0.5073161918278617 -1.0434845320007256 -1.2682462565952803
Ni 4.128784508949674 4.878465367304345 8.812230779936096 -1.4120976786970132 1.997285129081057 -1.286422670393991
Ni 7.6925292007569706 0.18213839326702558 5.708969598307478 -1.2791500479919775 0.5858181419895072 0.42224944396450503
Ni 7.067303345153294 2.302120610833153 3.895526028435763 0.2917029665017944 -1.2580798575852397 1.1812501529196946
Ni 4.725541236277177 0.8129940468254464 12.002899980049149 -0.19399718971818847 1.3042671547745797 -0.3698961271737694
Ni 4.1559730832160335 7.970799154715875 12.590930381356145 0.8646229123723949 -0.13555498642089558 0.5222422170100748
Ni 4.13707099250594 3.418875059914326 12.228689490110161 -0.18028755344157982 -0.02399122070827481 -1.1105401879986423
Ni 2.462412567105199 2.9531524135476643 1.9311394745013388 -1.5744926681288882 -0.4757484443239097 2.3431697238315774
Ni 1.3266446747913394 2.6940722109822177 4.722084668388365 -0.02887477405282124 -0.02904960906778868 1.1741027432416358
Ni 0.3556042808994643 3.108405668172395 0.3688951324085792 -0.358890262981569 0.7353727851236045 0.6401941456372264
Ni 1.9536800088871458 8.36391067697528 0.26362152961184804 0.9173086728018848 -0.32670673627048896 -0.797075147229408
Ni -0.12332941433512107 0.501060369411423 3.76397786999562 1.4554513630922998 -0.9600512059757337 1.2042676968607904
Ni 1.9347964769308175 6.28136796131785 8.978546907680402 1.0768602792476938 0.3878838220004417 0.09526194322880367
P 2.480182573835601 8.33932032823608 9.578460479023402 -0.9075425945540564 0.670889003617922 -0.22829853410321976
P 6.204998689573093 7.66847705587697 11.347466040941477 -0.10534658115831534 1.1344820435262204 -0.2654394048195751
P 5.476808868078792 3.51706014671035 3.2694418304704347 -0.6000674528196698 0.25491022315347717 -0.05010180175239758
P 2.9765271639152275 5.000322144528179 10.61695544728881 0.08367758082531396 0.3588126156660982 1.4045232087838648
P 3.1052228419016235 1.5673053142445934 6.190793819441029 -0.7608588452098509 -0.4177196744149516 -2.143363897851412
P 4.558809392448525 7.280441352772412 1.0777216781617143 -0.12053742996614081 -0.2633706952160045 0.7350642527442501
P 6.759404340807876 1.6697125175222534 9.702470999621717 0.4253219122422417 -1.1453745220690081 -0.24688401041489094
P 5.678737388423587 8.240875418887342 5.681250243683428 2.1293863526253975 0.1157963157367296 0.4728284424636373
Ni 8.8500572318608 0.7177245402459721 10.339190291432326 -1.01049445022795 1.1949644171819935 -1.4661162990053136
Ni 1.5844350439700883 1.5928792769333602 9.3891918125597 1.1180010151520616 -1.5569652007680863 0.03854083638767556
Ni 1.095022148421851 0.4512514581180652 11.905888734428789 0.6172480783640144 -0.9566915454748813 0.9548768608636458
Ni 4.649134847024888 7.48197085991125 3.9583668966232075 -0.1427831287382186 0.638197941142804 -2.2183773752438247
Ni 7.100133780564346 6.59289520202441 7.787222458032029 0.5804041700627875 -0.641748891718856 -0.7614548269226371
Ni 6.952146278038781 6.9413450833473 4.310883000896104 0.735353758960211 0.1575302051404061 0.2697370037536645
Ni 0.5483805518248361 5.002252254919784 11.338081807099986 2.2180523878042386 0.7444323242227114 0.45594555066536957
Ni 4.946770860538023 5.830993404315201 11.576134941649197 -0.3660101618558019 -0.18224004918226033 -1.1215717632224556
Ni 9.143452570138534 6.905535967956896 2.947102259820133 0.6648672229038743 -0.7779047449485441 0.03988552334102809
Ni 2.6786962834875565 1.8667693650036223 13.405427687236593 -0.007057163957097524 -0.6476547156803297 0.697661900836392
Ni 3.2953665536053687 2.7321918912164174 7.919476777052947 0.9149208892959986 -1.23359087130494 1.5257684634503077
Ni 3.2798792735881146 5.976252770037247 2.4653197958825537 -0.5975421152946548 -1.9682599454933007 -1.977422842939491
Ni 6.469423813222983 7.094566154434716 13.319974833461343 -0.14516756980999515 -0.8488116563717509 1.4000533459379694
Ni 4.989845728027592 2.8049886028613287 5.737857226481063 0.3546047482323377 1.8405082571669078 1.0366407696060147
Ni 0.9108654906828346 0.33060192782667275 6.179807037211893 0.2795866428542346 -0.010697074702529964 0.03552904614454526
Ni 6.964942538760048 0.09783711016292211 13.410046033111119 -0.5021300196412319 2.152829928360318 0.6060753495766464
Ni 0.5907817365527211 0.7802740359992997 1.1918654373206343 -1.1685656154734907 0.794126349013729 -0.012271618278501446
Ni 6.971744322015079 4.415006888897067 5.172318178862397 -1.1135373229537533 -8.947439001274914e-05 0.9909772061306289
Ni 8.008603336136062 4.754353701498011 3.2185249615772813 -0.09851336028656582 1.0339069156146192 -1.6265433660775406
Ni 2.427763373825135 6.220708674635531 4.6251949826051675 -0.7509233312636938 -0.05982160014332278 0.7843828964737201
Ni 8.197299465046104 3.483895653731521 12.030334457802901 -1.3359583152302734 -0.11130099896953735 -0.1758194903678972
Ni 4.99581236736318 0.8563008987370847 4.8231018210089935 0.8012470192189105 -1.6559711844203546 -0.18903444639627445
Ni 8.24917118182049 5.136469162151397 0.34287947138019503 0.9524183720208242 0.43395799065068486 -0.3085346933471525
Ni 8.253894384653792 4.051635769546769 7.233879295450316 -0.9112578386221145 2.673902036321692 1.4236761275632321
P 7.910807983169113 1.0146349064868774 2.230553416625201 -1.297281981705998 0.24318933517212307 -1.6203752895936159
P 0.39442548202599725 7.064974221555732 12.697570836367701 1.623573227705623 -1.620079869840384 -0.5323793054440766
P 8.85544854982966 5.146193949124483 9.263700303410905 0.7119196963069867 0.5718933043782989 -1.0603165159563996
P 7.411531109994549 6.520042814118202 1.7812292850856764 -1.475040855188453 -0.9177329048234969 0.93503848598148
P 6.151883536296422 4.14133950587199 11.156594826090126 0.8869128341188467 -0.5525897189536805 0.18460906363506915
P 2.640409574469468 0.6027966737404625 1.6939149883077547 -0.6015028997146157 0.331263502403236 1.6394870707224023
P 2.2073317759762032 4.04419370928683 0.12035630198189867 1.170851840404506 1.4395632311071338 -0.5169246614519033
P 5.792446872744397 1.9961331581255741 13.443754297575275 -0.6360842372339109 0.9685106495969964 0.9884950631387234
Ni 2.6007959145571506 7.066050629274128 11.2420615989307 -1.3827662767227475 -0.5156537651592796 0.8816572421468621
Ni 7.068834442338942 8.71813233071922 9.603341272259032 -0.14894734856740155 -0.4584765446173395 -1.3885949675893827
Ni 5.514798637036634 5.661932436888988 2.6710491489985095 1.6188786504434312 -0.5396311019104836 -0.1768996108059534
Ni 3.769449918543358 5.653942893392969 13.410181512013608 -2.2926596308971674 -0.2422143728533635 1.8322946110078635
Ni 4.483562925306577 0.22791912705559603 0.8620309139621621 1.5675074950603067 -0.9636332669000373 -1.6405818464484778
Ni 2.5423636783266845 7.94556852897177 2.998005209647963 -1.2849792530792452 2.0748470839269366 -0.7419648365188254
Ni 8.626860379700819 7.958169922778499 0.8021510949379921 0.417976527620764 0.4931887512875442 -0.1483192280650994
Ni 4.8595168797098385 5.9979850706965685 5.704515497403774 0.7750523631014136 -0.9159598720834741 0.7901226271709747
Ni 2.6152531837404234 0.8978632277947721 3.9919665923778362 -1.0906938426966764 -0.7582949411374166 0.8640639545451314
Ni 3.129321383666038 0.2641337512157739 7.9167746225046995 -0.6104374832000842 -0.4885180852847522 -0.004404813935914994
Ni 9.18617482130656 2.7412856805614796 2.8457594010709206 0.8324483845223791 0.6308612982720747 -0.7538633877286243
Ni 8.856218738110925 7.4313054621316175 6.2087753959643575 0.6617140219868732 -1.9102386317835103 -1.3479774511783367
Ni 0.19093617048952916 4.941119720016447 5.119894339163488 -0.2610160789408989 0.04048818992203349 -0.9312422521638413
Ni 8.332100973021328 8.30417004860435 11.78717488215513 -1.851999802746275 0.38688597686354664 0.9937838223414883
Ni 7.722148971766603 5.812286180519644 10.96653834052908 -2.163105342144397 0.27559603363760277 0.7417357512271547
Ni 5.548241511321944 3.323909916896605 9.170763632179746 1.6554214825644717 -1.0123844681618113 -0.19505468444842536
Ni 3.613844047597084 4.1629604540087195 4.158269728994506 0.3408267206116388 -0.8212941676777727 -1.1224215128172603
Ni 7.876418612441766 1.8155286458572615 7.723227235360374 0.27084309233364967 -2.19942551673167 1.3708021623823359
Ni 4.86666199990953 7.7624121880607095 7.672174887564732 -0.4478247213304481 -1.5558557697539916 -0.036604281486595024
Ni 6.14589833820707 9.117553829258872 2.779862834075997 0.6719889215503201 -0.3721337582550366 -0.19937028110464372
Ni 0.15063862050095592 7.290973445534295 10.107655919143223 0.7460932568649022 0.4971641909955245 -1.0360848971025447
Ni 3.5572769661200434 8.45470937977266 5.758269999747663 -2.5136202365780775 0.17029213279176478 0.34360865423215015
Ni 9.103245030105722 2.979607917040289 9.629077624043246 -2.791094718185316 0.2285386751384838 -0.10110091850808395
Ni 4.399658799533054 1.462624663630668 2.715364669177299 0.9667561287997352 2.347447525271325 0.19148419348834764
P 5.775317143018902 4.525125254364264 7.224453304412852 0.672048571143662 0.46290552692297054 -0.42134852941679046
P 2.9811575729797033 6.468430919896533 6.726006007531602 0.09279394130428535 0.5013023815336141 1.3728485033884033
P 1.5337232493060422 4.4114992844354 3.355669512215391 -0.5312698744299817 0.8777391380393786 0.31672108581268676
P 2.5241575408827948 1.899850343590507 11.321852176932113 2.068961828790753 0.12233565951714416 -1.8292116012071655
P 0.8782540485662156 7.849257876306054 4.431254149881015 0.7313821759069727 1.6486404550868963 2.368800537025804
P 8.685506041599588 8.630785556122209 7.859230422641909 -0.5725823600255235 1.1138314571554044 0.9202592707897764
P 8.694776139105423 1.530939436241227 12.86138802791749 -0.4203511985005276 -1.258490205649781 -1.1845344800979212
P 8.28220576352296 2.5140430200806336 5.766568546493876 0.9547945855624846 -0.32630333018448315 -1.7414706489457557
