# total energy = -340891.68543544185 ev
CRYSTAL
PRIMVEC
9.07167372831331 0.00000000000000 0.00000000000000
0.00000000000000 9.07167372831331 0.00000000000000
0.00000000000000 0.00000000000000 13.27731148022088
PRIMCOORD
 96 1
Ni 6.415814270458692 1.7777668370494708 11.512929219166098 0.2364227058722509 1.3027252642087566 0.5167719379241229
Ni 4.798489055706916 0.396655306927388 6.1192739552579445 -0.02556087918823985 -0.9047043537743129 -0.9339632506394302
Ni 2.570721841292459 1.4809325996185723 4.934579584103576 0.6461272232922098 -0.6344415594241654 0.022439045729806515
Ni 3.4229330186016327 4.355319648690803 5.049149380815468 -0.3297637779292579 0.9824380583113662 0.14987166015388384
Ni 5.1459069460798 4.39746664502661 2.9567514967329487 -0.2550971423533026 1.54153729624879 -0.7268462357098322
Ni 7.328170644863518 6.4221372270764405 2.6591670318812644 -0.18431827186752775 -1.1874472828693419 -0.17885416342916294
Ni 5.184552276340354 4.419782962501015 11.547104935760135 -0.29702874959008196 0.17617584526605146 0.02713233744041779
Ni 5.5004642437097395 7.812398447363029 12.186155365824149 -0.14681847514985683 0.8481485688664555 2.007532003620046
Ni 1.9171984628956524 6.439001468615025 0.5953993502171288 0.17180908365692346 -0.016372013600120194 -1.20304308042507
Ni 2.6377705821271453 1.4088762948628 0.16026018882229306 0.8620929468616895 0.5465815650863877 1.1092847183249863
Ni 0.6986966851023142 8.829623370550019 4.506505442240882 -1.3881545376178546 0.5952643750040716 0.06278453942638865
Ni 8.710993092658638 2.6994670354374826 1.4982649395236936 -0.07273445155024892 -1.3779508576119752 0.13702540031883498
Ni 7.035318872217687 0.8115047627680552 4.781266483054413 -1.1712799290808602 0.16865151186454827 -1.9436010092940397
Ni 0.8499813598964867 7.267072922022007 2.6297040498107873 -0.5642185614418606 0.6465828227723897 -0.34502430363275416
Ni 7.4947719336511005 3.7578229274980313 4.01963959700903 0.9246206330822656 -0.07465969359741981 -0.20746308541510722
Ni 7.673928418936476 3.8459542381743907 12.732357214851362 0.10938886954848903 0.1442013492419839 -0.37696768930857016
Ni 7.737638783823772 8.936542117604223 6.661492432332714 1.255231075282535 -1.3699480419121566 1.3783606914558841
Ni 6.996283459985018 0.6083718437083481 0.283190440080693 -1.508819237190479 -0.25847120103185806 0.7297325561186917
Ni 1.8553387194574538 6.569016697087861 9.240159245513011 0.3999461524816144 0.7843451012572492 -0.24463249537655288
Ni -0.013934090910848079 5.073560347763385 1.4065321743606105 -0.020093942536397652 -0.48133673704496466 0.48605805378003386
Ni 6.538136719574497 1.951979260130152 6.875695514894053 -0.5956716377448193 -0.9436293129742845 0.5070451975546622
Ni 3.484774618692291 4.193009261596471 0.30454334580071524 -1.0071828693562137 0.4468808693599401 -0.12383024178479965
Ni 5.993273849595748 5.504891220509539 4.903483700754485 0.13883545694438026 0.7491299868086969 0.1448685505123376
Ni 5.263221831274518 2.903207756639785 9.587413845758034 0.06412151307025732 -0.5967694987946884 -0.5819877124998235
P 0.17315103724958156 5.69328266969286 12.55785359104266 0.14379511494250072 -1.2744145901895212 -0.8307355155963306
P 3.9077051215273486 6.168230149925576 12.68607262810902 0.9445312559632636 -0.29002275058589405 0.10235047464446889
P 2.384144726863154 8.525368503975193 1.2930047129649018 0.7028077067033897 -0.04155622617523166 1.3364501672650275
P 6.163558237933983 7.601228025343028 5.933431646404016 1.1467845150426572 0.21651568253567874 -0.790183305205581
P 4.812359644901374 1.173012776840632 12.782174311359775 -0.5562663964743194 -0.38235209354893507 0.11914054961861416
P 4.024149126040139 6.398015646521788 8.114203054852556 -0.0704957920277173 -1.0700147170807701 0.6784015099448832
P 4.7767533253537975 1.0425258213317525 3.9601575392659707 -0.08485617451444741 -0.5842297144564648 -1.0546510901405062
P 0.07531212847185524 5.584731021360043 3.7266762427758264 0.5566674885674799 -0.5841117008213617 0.03665878887361428
Ni 1.683475859883224 1.1624352052247149 2.7389768962083267 -0.39805587743743703 0.13170321677497318 -1.7711198392707563
Ni 1.8324962449043836 6.425647964825462 4.902487630974529 0.6900748325177535 -0.41377174551079704 -1.4933188275620346
Ni 5.9200291555760955 5.468695242166907 9.160137104019729 0.4810269191140296 0.8101605196584563 0.053617785325456045
Ni 8.665888730673785 2.4704163444166474 10.3888055066072 0.39494869926702303 0.07911130161087021 -0.05074612020461583
Ni 2.3428141811666543 5.442469033297595 7.05228380933512 -0.16311284143450616 -1.042585931445856 0.413755547560881
Ni 0.6535505934181172 -0.0776997930081412 9.148970780776134 -1.3304980634466503 0.5383337232552987 -0.37184348070812734
Ni 1.3757374705806855 1.1017184926815466 11.345210300170043 0.22428787028192984 0.209590159060439 0.007657773655573909
Ni 4.222791566583655 7.0495251133416375 1.6083732870754577 -0.42500515233277125 -0.6531170243464817 -0.30017295164601854
Ni 5.767289384309201 8.02358701273057 8.15760647800552 -0.3440953640605816 -0.2184085286830174 -0.21149688916484866
Ni 5.261616145017213 2.853159332450235 5.042284845273645 0.5583667306467738 0.09737436158611618 -0.04508403682283203
Ni 0.5485976780698916 7.164844230306937 6.651601586421191 0.20920732179972357 1.1160744875533102 1.5992925007813876
Ni 4.97955059248401 4.423983147456564 7.205716656478048 0.2862334587467909 0.6407253355503482 -0.456973991929884
Ni 8.210100625443484 7.318627244057391 8.74036082215453 -1.0035468152655231 -0.2776611436967476 1.0498302717130952
Ni 4.532552939136922 0.600642777656237 10.312793044920294 -0.44624837798226374 -1.1848193583281919 0.43852889785081894
Ni 8.112072118683963 7.25540674955368 4.90633855648993 -1.3712253659626836 -0.7221087210248467 -0.8698988160593534
Ni 7.154166870279549 5.932920004003384 7.0398692237807605 0.2976226744203391 -0.15789273068614745 0.2548539159942449
Ni 2.335701988930909 5.171706786281916 2.5646320266906026 0.7469455775628684 -0.24104786334908807 0.9297175879891988
Ni 2.383101484379595 5.382541556372424 11.393234833941486 -0.8179789872616106 -0.5812680607249796 0.16924029448848274
Ni 0.8967186231599563 3.365881262261578 3.6277995345188025 0.41224708133615456 0.6528318890058951 0.6526611677559857
Ni 3.593988499210325 2.8182243167616443 3.294074428534483 -0.9499313439329123 -0.8056027250844449 -1.7509240810491717
Ni 1.0030186820630393 3.3107617724345517 8.095004671652928 -0.8140559980581207 0.9099414338035361 0.4036878789122338
Ni 3.7454582361494073 2.4726479761640876 6.967840134046298 -0.44956021596431617 0.027443698033249513 0.31017300028152384
Ni 4.18095300715603 6.835633189190611 5.885486943361748 -1.1804479687333735 0.8861111641531577 0.8798842094068394
Ni 0.7966108887723322 7.415703225071053 11.443011107917934 0.552474533532055 -0.5937499952420743 -0.5208414800078063
P 0.24081211606374847 5.504791432098068 8.049847693960208 0.027090685569204957 0.42057051360018544 -0.7981136157962513
P 8.52276493360318 1.4009476519877473 7.902390358329633 0.5498147273117047 0.9428952630217373 1.4508678574866753
P 1.8687829399847173 3.389785122645748 10.344591982986568 -0.8643061524629243 0.16503654081978028 0.26555998955783944
P 4.156876784970229 6.272481824891376 3.8317262250333926 -1.1549554808892237 -0.9484866410665858 -1.747503999624029
P 7.080740742784495 4.052189669663467 10.409969721512804 -1.2287140028286128 -0.8783906555804485 1.279810564394112
P 6.337670872603193 7.896973661921517 10.259829891948417 1.5517929125385275 -0.263649659909004 -0.378972892664057
P 2.2898718930444475 8.484591330378668 5.812369252774877 1.2173849509690389 -0.9328905864005417 0.8388386043194392
P 6.931783859479725 4.228642796165358 1.827183872744623 0.8410906335784095 -0.24371049778291576 -1.3011977718206365
Ni 5.462753295847501 3.129500658834515 0.454431890001672 0.7117952549139805 -1.0546359206318545 -0.1750101070927244
Ni 1.511023341513939 0.9890210894358008 7.024906405064385 -0.5186005064924294 -0.28071124337698106 0.34449337082994863
Ni 7.042703214666535 0.8864966611558265 9.465222935911894 -0.6317542423999895 -0.7676146758764458 -1.7218135368364604
Ni 2.4278429794136462 1.710790669604945 9.078069300091293 1.6719608749803916 -0.5190270525068869 1.097663074925658
Ni 6.250610019431704 2.2142504204970326 2.593749377990439 0.3513340479008659 -1.128372588194373 0.28830036857814867
Ni 4.29736979664751 6.7788989414325105 10.334037090555075 -0.7269930457003415 0.976455615475686 0.25355962266285365
Ni 8.395961077644953 7.288863082417747 0.4774213256698173 -0.4670249484079828 -0.4608782120802966 -0.3678685552207794
Ni 7.340009179133477 3.47706369598772 8.362873961903329 1.5848071626810192 0.718254380275763 0.08489268417933767
Ni 2.9704107159285633 8.142970239544868 12.407567707530575 0.4555917668703767 0.7984784553348376 -0.7525135585689493
Ni -0.09107779031688316 4.971240939310615 10.067043216823489 1.3505747795918677 0.17634116719932214 0.8828132101281764
Ni 8.930500382873348 2.321196382572546 5.933059707779442 -0.8400724767265404 0.24159859364623554 -0.9162028413322156
Ni 3.5845086001205875 2.627719167589893 11.520179300843148 -0.08691845636011483 0.17650237536753474 -0.254132207336872
Ni 1.0848088927741113 3.44983053132993 12.573613809883428 0.08347626344778526 -0.04475519272850357 0.1274524119184192
Ni 3.318082613167009 8.53704374811729 7.866408471487975 -0.7147414820264981 -0.37251762395701654 0.6791566429433529
Ni 5.687404225089847 7.987118884174835 3.424032505462567 -0.2306600923568608 0.415707014860297 1.2415114117035975
Ni 2.8807281490375187 8.27373841694062 3.615212587162812 1.9818703371878836 -0.07522070830721239 -0.48566621765825385
Ni 3.61299365575865 4.510926068869043 9.341305686547312 -1.1220962682673576 -0.10835862851176177 -0.2785273483517849
Ni 7.033867404414473 5.995033754307145 11.401214278189652 1.2302561505047522 1.1026834109583847 -0.008437332134075791
Ni 0.6729249670888844 0.019334458306178717 0.15039202209519636 -0.5151428869611322 0.36168505211788676 0.2837600575056339
Ni 4.786224152769764 0.3463719263871927 1.6590530997594057 -0.4279084420224953 0.7807175318069909 -0.4728508110611405
Ni 5.959590724887429 5.602366355169085 0.30086931792383154 -0.11228161771525179 0.8264561714946863 0.8196106093277626
Ni 8.164497321401276 8.866862591376211 11.397669068080305 -1.305349589205481 0.14343644605150135 -0.3288903741853691
Ni 0.015389187383569453 4.797981041975791 5.850793234195442 0.4338808575558463 -0.16138788832359946 0.06583129667251242
Ni 7.947430311430721 8.97556845816312 2.3369529727438034 0.6684510836003906 0.3882286069343701 1.2294243986320763
P 8.739759370183574 1.544996759782901 3.754119870265083 -0.1996569591071271 0.5027475986205728 -1.173107212097586
P 2.036962700008293 3.1385541892570585 1.6046693226751325 -0.641244698388928 0.13112548989463224 -0.004540053962198632
P 4.894939091230443 1.1224472672461872 8.223090355114868 0.1436645029019074 0.41471996835667924 0.5369954640598493
P 8.457158588897936 1.653103896100985 12.57626908879593 1.8306804724432082 1.886671900207164 -0.917373207491233
P 6.42090347944371 7.774923363018815 1.119715786274015 -1.1912653710638517 -0.403472420467318 0.9835053232336158
P 1.8903553802099757 3.1924852898202043 6.114255505328335 -0.341878816025237 0.8216757193869075 -0.5492580834772863
P 6.9610400073882435 3.9164411433679387 6.175463902589842 -0.09803410665730214 0.5087999754622399 -0.3825613813462637
P 2.419270247700917 8.645141812761604 10.116634428655027 1.549588191577725 -0.5408207513432106 0.9298883092391083
