# total energy = -381168.82038959156 ev
CRYSTAL
PRIMVEC
9.23644576052817 0.00000000000000 0.00000000000000
0.00000000000000 9.23644576052817 0.00000000000000
0.00000000000000 0.00000000000000 13.51847200477342
PRIMCOORD
 96 1
Ni 5.574001071412228 3.779304234932708 2.1430161384013027 -0.9397775433283622 -1.553359742805015 -1.422982443930317
Ni 6.219739469773351 5.8513623021649765 6.031198672710957 -1.1396461042256631 -0.4832743203873097 1.5190182892106676
Ni 4.6356520702922035 6.944763518831518 7.85448877443545 0.3086321381569652 -0.06671627038062704 0.4397712548983523
Ni 7.516656533068353 1.3412612395527523 5.80902243464456 -0.1036167429514022 -1.462110263169714 0.5485160631049392
Ni 4.864651270866745 7.802441402385373 10.829350304793508 -0.4185856219596726 0.356009084779032 0.7343150332830515
Ni 3.3151820702221 6.00980429331795 12.0677914297657 1.7131517473964042 -0.5535662239343369 0.49762030469633656
Ni 1.449263000223833 6.458714031805582 3.989611640153613 1.0900775492689163 0.33374590250545744 -0.08328240226942431
Ni 1.681735104416977 4.949571153498226 10.722068063249791 0.11328126262435974 -0.7146116413168532 -2.9266394201935664
Ni 4.396077139283353 2.350943311541053 5.071643715692127 -1.446282037888206 -1.1432574757260052 -0.9866073591977073
Ni 3.530742242166142 7.994614893578609 3.055404261327689 -0.6523174112633217 0.464380054585968 1.3058388701370738
Ni 5.253745786391414 2.178489632118343 13.32364417870446 -0.24911392818667422 1.4617999310181469 -0.9819053257363477
Ni 0.9651901125978452 7.891009681105548 8.577173231773958 1.403433575264112 3.2087012640611707 -0.1285988668180366
Ni 5.8904786501032325 9.250669920680261 9.069732565795617 0.5502947522719168 -1.0324334163928865 -0.6655591067645764
Ni 6.510161034879037 0.6800213142152958 11.212058741696096 0.22561867327821145 -0.31207587373119156 0.3424657988769586
Ni 5.172437354065448 2.360817072095007 9.205565584933652 -2.5608819977785187 0.6447228867455155 0.5769897450645999
Ni 5.032126506006404 9.315971592444953 13.165869982582405 -0.9935850760671211 -2.4329737292696034 -0.491942794695585
Ni 2.5935293238787995 0.04343438634702451 1.0822020261411265 0.9933673036293601 1.297172195601011 0.17262206647652206
Ni 2.381746858264567 2.8405395937519464 0.45345591710751526 -0.6353800120780349 1.7582522392794688 -0.33499417309026175
Ni 9.146298083206284 8.646892695561995 12.267404878046131 0.4666667937376156 -0.28718271003393764 -0.3813532199707755
Ni 3.392371047723872 1.7819597777293774 7.147243036241875 -0.885497698938875 0.8745008336077391 -0.4858014576845375
Ni 8.964986652266976 8.867883897633002 4.601336826877751 -0.4384142266498256 -1.0557836610830529 1.219143071310726
Ni 6.5673531072364595 2.382882941097249 3.7064406849963394 -1.310777959309904 -0.8339943888532605 0.7186647283403044
Ni 5.19872427879562 4.52648651745106 4.247423009738448 0.21651285432220133 0.3662047943651113 0.38327640513541733
Ni 8.486815853503456 9.267110794193862 9.58574600662238 -0.9031552641196382 0.2776673143443347 1.0242094858211974
P 5.804034753915715 7.241198010149202 12.905098332120541 -0.5910325963109112 0.20338814401478522 0.40345030898013096
Ni 3.991927217114208 7.410178785953309 0.8879826622044847 -0.04640764073026201 -0.5099531152300767 -1.8267837084919636
P 3.817764795219579 1.7625817144532356 1.44137969373852 1.2327555198878384 0.8554247908128945 0.747518676457519
Ni 7.251579775221836 8.552348436413 0.2443935847796628 0.48499001752683574 0.5969834145777073 0.9988620081953441
P 2.0348074813444326 3.5458438310395892 6.827585349263943 0.22670882101859666 0.8954134153906903 1.0723641911495532
P 2.930419447774891 8.462173016124645 7.282184738360775 -0.34830785948003234 -1.7453036495386007 -1.6458178980364364
P 3.7493227318848734 5.889277912149992 3.1617674765148864 -0.7247183907335518 -0.6122190005805392 0.17282621206752816
Ni 5.20785912368604 0.27133075529374306 2.073706772806526 -0.4991555103939404 -1.0860339753271617 0.6700564804142977
Ni 5.532067607506755 5.9619410312126275 1.8205459536790487 1.2355976173223238 0.9313342976570155 -0.17098607353499584
Ni 3.3694923714917446 3.148787499240357 3.0951486875799477 0.7415066659354843 1.1713524341900083 -0.5253686784541984
Ni 4.435110359209462 3.521579687938338 11.03749453440942 -0.0785816543596453 -0.5034279125170491 2.3371456291246844
Ni 9.193209991394808 2.8609151931738577 6.2454934515812 0.44847263932709214 -0.39455917713808825 1.232175221904336
Ni 6.222140945679832 5.038370343363255 9.40703186424039 -0.44239789388792194 -0.6908713602771199 -1.921567426532768
Ni 6.741312327323617 1.8364548079149055 1.4653889109358522 1.8897759930537843 -0.15230855173015062 -1.056603842991503
Ni 8.224962615239097 4.9555656068186344 10.313688772551503 1.4069960958043897 0.4719828066338903 0.8097208610178765
Ni 3.2888212539255752 0.08579457404818853 5.13299126501234 1.4237694586079868 -0.24587896618914426 0.6641871661177142
Ni 3.601308688033504 0.30658072702256484 8.817463987331855 0.03762320966941262 0.6193563829562688 2.083876026898424
Ni 3.021343020172575 7.352848166908975 9.616324184068517 -1.3164757810256293 0.3422788796771331 0.8785402937844352
Ni 1.4443030288323706 2.0748012916331335 2.664409808903162 0.4107175320655056 -1.276541406724537 -1.8763905728858135
Ni 8.758422778526445 2.1228492826543395 4.0293292807130685 1.4738357791367585 -0.46887048625715383 -0.6600752008318697
Ni 4.259405450867209 4.203007712848084 7.614306085293343 0.2335620964950042 -0.12448304487745013 -0.5502204473905556
Ni 0.414545541910469 5.325956319610135 1.1201961459153924 0.4135321186961652 0.18265682500470476 0.6111555923130313
Ni 0.9951993249830622 8.155716981120301 2.2399434005651884 -1.7864410430088589 -0.7770195141301134 1.7937632877018848
Ni 2.7806597156684254 8.3308769391607 11.978583065351993 -0.14999301622309652 -0.6994894409634341 0.5162554032990205
Ni 2.9348252324187043 4.8005041548263225 5.155566985822419 -0.8532576079582466 -1.1217918496530614 0.1827288158932208
Ni 1.0999960389635706 4.119870464254875 3.591087637117689 -1.1563878424603762 1.1953557390831415 -0.154306813107102
Ni 5.643662345591763 1.5482776991371987 7.172725466543375 -0.0068427339534462795 0.1698401328560107 -0.4555262037397639
Ni 8.119417749149262 7.033008521948898 6.120420891793358 0.0868724336135278 1.1232717766326978 0.8311612902798395
Ni 8.127702841026622 6.287885966842643 13.202667058981747 -1.9927293913895745 0.3846835698955891 -0.21466628803176577
Ni 7.8255509897623545 4.375877032331531 2.3930938319226898 -0.08331068440419846 0.8582794866528703 0.6623241447670465
Ni 1.8889362929173068 1.0754732753800829 12.616465866565184 -0.8472435405536828 0.8267153386933439 -0.8197394215961431
Ni 1.9126370128251144 2.330068944046258 4.975555122806351 1.026613981497632 0.578845567326416 -0.3017004440341385
P 6.075281457552731 3.1574697582868647 5.7613568324792315 2.524580335134007 1.6793967624331463 1.8266063023738348
Ni 5.628606938947287 6.946490734195026 4.1459394088643045 0.8406010955365009 1.601379208107087 -1.4850527308985004
P 6.7014016450470635 3.120209935953234 10.698504966384318 0.10711035792695747 0.4269756457955808 0.1641309982863754
Ni 4.088614331687447 0.943087297812427 11.100625641412487 -0.48847771896512 0.7190694199778906 -0.17088451496012505
P 5.583856359074595 0.12271264788743509 4.3734690909129945 -0.17084132042701544 0.13953016901855972 -0.6892896176122968
P 0.34293075944547075 6.8629101362036975 10.308119195737627 -0.8436452816794632 0.14710335338012728 0.9394895797742983
P 8.752068103820063 2.6202318886697076 1.7682427320804746 0.07672428943593237 0.6809769839815433 -0.023818956796468657
Ni -0.014940874716628782 4.147635220312111 12.452040505826755 0.8733520647152766 -0.9473463568145556 0.12865311709473973
Ni 1.3620986612643708 0.37693196370292237 10.460634159624487 0.879003349463783 0.45481735059819733 -0.7138837620118931
Ni 6.117122557000264 5.629151889249142 11.651017133485103 -1.4370291518313703 -3.0269330123090064 1.4313634689051606
Ni 7.1026328503452545 4.031237530414141 13.528881698828954 0.26680080394347594 0.9382238256879971 1.2623391470822258
Ni 7.1108809964394375 7.104655631974175 8.320524730714608 -1.6551384041064139 -1.1531194561217495 0.294011560030313
Ni 0.35920537693477583 5.153382566392101 5.969838192366632 2.3282982060363837 0.4153558021684653 -0.2761040836222729
Ni 1.2712027982040695 0.6088258663893522 6.383747343161883 -1.010878058819614 -1.522643544668081 -0.16805244482796863
Ni 2.4126520058918177 5.815312454230381 7.973451425330457 -0.20270037391914122 -0.8428199575646904 -0.9288909783228453
Ni 1.2614583478912336 7.392749612739735 6.303893651048497 0.5567543918543315 -0.4946067146809933 -0.8607330903996854
Ni 7.692185948940518 4.495812280968663 7.261460924932424 -1.9005843965231977 -0.5232092089090344 0.5299663251272099
Ni 7.854553429556009 4.2435741827760225 4.885224530228651 -1.464495218462123 -0.6089220749968224 -0.6509020189730339
Ni 4.100122943146967 5.358440899468187 9.87335137940543 -1.0278511963388426 0.7049841455294181 -0.723756798151231
Ni 0.2531081713864502 3.921129860101993 8.547351519238363 1.3586706692261246 -1.3445337156041102 -0.07902362699307036
Ni 1.037243626238066 6.216026418564099 12.321533221333631 -0.43853892515314796 1.8905203274189764 1.1909545246916522
Ni 8.921390628118555 2.523055242469379 10.398273372200658 1.2722008703676542 -0.182771239095382 0.6240170216567318
Ni 4.878025644376685 4.357542687430129 13.486622188386944 -1.7184507910118145 1.7810124157941198 -0.5170295624608837
Ni 0.18263686091076856 0.825551677792617 1.0061158802671766 -0.7202153606568757 -0.8141560139710946 -1.4150711595030403
Ni 7.433140590197584 8.984512498675826 2.9498390750571066 -0.4931622689249829 -0.504971088634453 -0.8327476609303528
Ni 8.312385574680796 6.326235689779984 4.018135632055129 0.14731778338377852 0.42299994897728443 -1.2575057302493244
Ni 7.0279469496537 7.310766919870795 10.712456617756393 3.313737255957603 1.7737716750713066 -0.6918252395499569
Ni 7.263051440898178 2.0416147418947266 8.863737657116005 2.3702688940412147 -0.02839834863703496 -1.2457897273639769
Ni 2.5719899322868245 2.973775324332665 9.527940634264226 1.6758293567968623 0.46623253441367446 0.25602299660168165
Ni 5.946562348965356 8.603906276835987 6.369390211819446 0.1287762729361653 -1.0476461195775828 -0.005018279150197809
Ni 9.212782020032629 6.04499515179369 8.179716961871838 -0.9803117559969826 -0.4102279940235968 -0.06944086840064169
Ni 3.858756141654049 6.8037045186631495 5.620656206407676 -0.5380570725551443 1.1781486311762355 0.5175216716059539
P 7.849260946115956 6.771506268624718 1.9937856546388417 -0.086626893261625 0.49888837277548276 -1.01173037951758
Ni 1.2934256867848117 1.8687177130738966 8.208308379827653 -2.1251324624450496 -1.3121283026902113 0.6034206855626189
P 1.4979483060048358 0.3788947084341808 3.9881245723807535 0.8936210993769578 -0.32673913217032113 -0.6614687387452867
Ni 2.8212446584879523 5.24693852584112 1.0672186637738446 0.40412419511870407 0.3188916111014443 0.6157139011076751
P 8.211976172452513 8.678823088672397 7.612670310743198 0.3680593310753468 1.7155436446673487 -2.182656010582815
P 1.5918367775024445 7.5594766957700665 0.29867617671192503 0.18292010596842048 -0.550893305087864 -0.5136300498610316
P 2.0878339166486892 3.0666016045639455 11.58660123687207 -0.01188441014241179 -1.1255325476424165 1.2810354379401487
Ni 7.69292486460405 2.2377599047794496 12.435399201439422 0.4912190291556831 -1.2964525438261674 0.42791564111134694
