# total energy = -340868.2369424193 ev
CRYSTAL
PRIMVEC
9.32122531565546 0.00000000000000 0.00000000000000
0.00000000000000 9.32122531565546 0.00000000000000
0.00000000000000 0.00000000000000 13.64255545335613
PRIMCOORD
 96 1
Ni 4.939018993858756 9.334368202344915 7.1269119042985585 0.7868015332175418 -0.7284254072714939 0.3702319132466333
Ni 4.668740745793334 4.176561408838225 9.4377974501156 -0.36653775222449775 2.9384114731278297 -0.9632337174687734
Ni 3.328367193740934 1.9071879397820939 6.656380180921429 1.1358784096531145 -0.07517622822252215 1.7921049261628557
Ni 8.96372832174672 2.1857993632431034 13.479881541915619 0.20867818876913094 0.6007662786589072 -0.25233526333744927
Ni 9.293774266273566 2.00438035572147 9.963921893153612 -0.41406048039580945 0.0022923955786025036 -0.34048682077371684
Ni 1.271881188733849 3.2058862936312766 6.276926149703469 -0.3510327146103632 0.8581661010034576 0.27966917526571194
Ni 3.688679156734756 6.890128547135272 3.6081698697920515 -1.543695994463006 1.8373013201938357 -0.09910779933745513
Ni 8.649109005049514 4.86253834047978 13.254874620764397 -1.932166542204853 0.12681143590031063 -0.5242078253768778
Ni 6.523431544828275 8.429258585720262 5.530651143882358 0.34476616487536105 -0.29075474365591214 0.8448056205361515
Ni 8.423647208104889 3.1374218939885496 7.720785809000727 0.030211490586373776 -1.3530548657012438 0.12859783837677208
Ni 7.866610785688363 3.473666453323076 11.451533519645293 0.2695516272157357 0.18897788212672614 -1.8556906213343007
Ni 2.0465309364136974 1.9870988040621618 11.548354950818736 -0.36119577118629403 -0.5776795720427729 0.1423442414285871
Ni 3.470292169773632 1.5675038483212003 1.1073186849989967 -0.23617125198307712 -0.9998979056590264 0.06080504710251464
Ni 5.545308770626836 8.580681890307886 11.728573384524989 -0.7830063278411676 0.1858935867744476 0.7034653948920466
Ni 5.418157936654549 2.62197677874777 3.334554623078285 -2.0670877516964916 0.6177201329044264 -0.3660906373847501
Ni 4.166140278981103 4.164583634360226 6.8924374146358165 -1.0173451546011965 -0.08108025241178293 -0.1354770819951086
Ni 6.507743922690943 5.496493513863191 10.061479701123757 -1.3165254033166423 1.6102911658847363 0.17019983018827464
Ni 2.686321196819076 5.288499693083367 5.13556262151113 -0.8598643146414868 -0.11581637034138763 0.5752766190282351
Ni 1.837110968166842 6.360319423746167 11.562829881547831 2.1242024944316125 -1.9143685947914837 -0.8313019296227618
Ni 8.933863115966558 6.56757686772929 3.729411046940173 -0.07381534331925352 -1.3572938434832562 1.2997286434742779
Ni 0.8380331474253322 4.672525163254866 8.370935679176418 -0.2780316396622889 -0.9615810123566988 -0.40471117797042555
Ni 8.66024786925279 7.718142309512821 6.4944975294530565 0.2959879670303935 0.2493142171229384 -0.6317766109974925
Ni 4.456887937749781 -0.02294885662633006 3.3323986236722454 -0.2827537277283066 0.43989158252630045 0.02886603230207287
Ni 3.5615842501141177 8.288797042055693 1.3212566511365027 0.008348886185327559 1.1290061080133138 -0.6451445476639663
P 3.2598189030707343 8.957855949823655 5.077785938768383 0.5978110526853253 0.1666427089646356 -0.13181737375533428
P 3.3060708228838336 3.2586164650102973 4.901729432147288 0.6558796746932833 -0.23235547778141274 0.1500621788981351
P 7.180810957327027 3.238697006598247 13.328763041394476 -2.6303195237450505 0.5387412431063625 0.5023508774027864
P 8.301054453291933 7.058460554371216 0.035207199985098 0.8697252665959666 -1.3613890965985522 1.2539372961717759
P 8.081987016885757 4.56671993516166 9.349366053811922 2.8655764914439747 -1.480493136552276 -1.1670489217186482
P 5.384638810566702 4.518864764601311 2.077870760032319 0.8173449532220375 -0.5738779389084956 0.04815419110772352
P 5.0097484512432375 6.054312919202792 7.821071939608779 -1.1904811845996595 -1.0971010317746008 -0.5902103575199319
P 2.730727514027783 7.556931718386752 9.792203484775367 -0.34021325539735603 -1.4370769743501701 1.2162022435148476
Ni 0.9197914785548473 7.746292409842438 0.5387463141824937 -0.0037761792129805934 1.2662695924848837 0.21794547300366982
Ni 1.8560889828261466 8.7220475928241 2.947405920396053 0.25330868299431214 0.09370616870590959 0.21654525022203355
Ni 7.004667763310878 6.662177983042298 7.6841151766475 -0.16367179926176975 0.6103320679704715 0.6513766446166073
Ni 4.343411341255491 2.607715304077467 10.895899941632614 -0.6390286645742156 -1.5390898631495622 1.2193932396483191
Ni 8.380489935082991 -0.2786543010972732 13.260400243107245 -1.3856950203337683 2.321340800881944 1.036667766189208
Ni 8.54774068018707 5.131530259457292 6.468044824245963 1.7440929170599513 0.903828893147895 -1.0257277222379368
Ni 8.351100111791839 9.000901368142253 9.624140860949861 -1.3333704998984393 -0.3620352363684539 0.2757194465893445
Ni 2.9598805161811943 5.584299455950938 8.614332445672108 -0.2815183126593087 1.6822098064019095 0.4131847626590755
Ni 3.806443516855411 5.090181304138689 13.466716243337622 -0.9849402559079296 -1.119507424494259 -0.04760397503120834
Ni 1.4534493358598783 0.9125283798207952 13.716088847356927 0.4051423519705732 -0.847734107036856 0.9756757998868683
Ni 5.128910995155098 7.392234989007945 9.509638929675354 -0.8945358978817434 0.7014424509247468 -1.1023255133983338
Ni 4.939634194726887 3.074317198878779 0.4798902335529351 1.1283862150411277 1.4389636498499219 -0.30145207546875824
Ni 1.377882162557824 8.55284871163761 7.249312641870853 -1.048658105781865 2.2791837078979196 2.209346632500124
Ni 1.2536488720965213 -0.12897965837118372 9.67285824484812 -0.1776891965867843 0.21023602017455403 1.2434844762695683
Ni 5.195334046462665 1.2922573871843601 5.29788150632236 -0.2461952118779825 0.25557845286509534 -0.7633088494122403
Ni 0.406483720269558 4.288583894189661 2.4273104458657215 0.2134144179025357 0.14107668757007316 -0.09865117141601075
Ni 7.06981380675581 2.3036103294901324 1.5351014050212615 0.7033887760178401 -0.7353373038999788 1.2136013155568905
Ni 2.966172343241622 4.697394192287786 2.529493445817176 0.5575768877556269 0.16199158334586938 -0.02762238970295888
Ni 5.011584732622355 6.5399114711139585 1.6255517787194416 0.5966504567183208 -0.2701887465791024 -0.747322758396629
Ni 8.17683980528118 1.0474354053441655 6.075807664686268 -0.06422512852765713 0.0627724552415306 0.30576021592580893
Ni 0.5446792740698452 4.367096574678523 10.720319749623055 0.8545344177881411 0.15156781690938412 0.45662432189994906
Ni 3.3072825821695457 -0.05377787709989791 8.767074703636103 1.4931051688893318 1.35754992535812 -0.34614607594202323
Ni 1.596101367464003 7.527252937112084 5.317117718921774 -0.8673698789899126 -0.5362421308335926 -2.907269243197071
Ni 5.6359204015222675 4.310544700936872 11.816458557027568 0.1317402406604957 -0.8197875012252592 1.5255344930626307
P 0.8799684078137141 1.3660628489094946 7.772559622666564 -0.26126624727849196 0.7282665130961263 0.1121612900873036
P 4.105440459992206 1.2904956756074402 12.571505767954706 -1.012945997092236 -1.1878332054538512 0.45156361954759006
P 2.1549367863585465 6.731788893393813 1.830626191743228 0.9783219792604635 -1.171045187362235 1.581919813830895
P 2.0574274487598303 3.300198450960768 1.069805413880936 -0.30958987408454425 -0.2244817314602908 -0.16796965530617525
P 9.64923919212454 0.845226336969824 2.182822163890362 -0.3465093728187129 -0.005952360928692974 0.25665805908251926
P 0.182188008606797 0.5781788255846166 11.71229759307282 0.6417085253992239 0.6777379082189554 -1.001906708558939
P 4.531094212161728 2.2691777233253623 8.725246637338381 -1.2066660218896381 -1.8962783129486762 -0.6598921382867861
P 7.041850130931687 7.53326512741427 10.5962272096634 0.5660676988354574 0.32831650395977 0.6056508604447182
Ni 7.421578206172724 5.941992154642565 1.579207578776123 -0.08761342554461041 -0.9318305205671437 1.1592026862013518
Ni 6.359834720031882 7.429510568881501 3.439437981991822 -0.13107355361077427 -0.5917635609396646 0.1358565768217144
Ni 5.9059469765052715 0.3589436071234944 9.320594227756482 -0.5095844190367482 0.5802226501796008 1.1197444802057297
Ni 2.374740599561426 2.4666385595447675 9.041521403644374 -0.264805370780002 0.21641412396080792 0.055654870360142855
Ni 0.13467306276897512 7.455898957634198 11.820837668661625 -2.624192842022022 1.9448595642914894 -0.758407812566197
Ni 5.1979533107648574 5.3220654252975885 4.190406224738748 -0.021492108435504923 -1.541398456678081 0.06906960110415201
Ni 9.537850550091783 6.832169168377139 9.23310427520555 0.3354636565275126 0.24500890487936514 -0.13490372599014186
Ni 6.596099817069896 6.418996536850452 12.807972203458654 -1.8426579565200587 -0.20118856526030515 -1.3663860355925113
Ni 7.161721087964426 1.1450752400967272 11.44145168238817 0.5678854687704865 -0.12667233921928506 -0.09897590174528116
Ni 6.068490502845622 2.0970146925015136 7.387716991117294 1.2600830040581976 -0.524725902663877 -1.9641870609755077
Ni 2.537973896572105 2.1701024198804957 3.188974794615375 -0.6491282149020627 -0.2237145142769631 0.14753992669691365
Ni 6.781126138772841 0.696368233577799 3.6650451900507344 1.6969244869042643 -0.026950817557231006 0.09578593405307374
Ni 1.660166148777068 1.043753521360656 5.493475301119242 -1.6270259621409142 -1.3047654345672368 -1.3860372341645355
Ni 7.459049531777048 3.7281731882236917 3.284322540072886 -0.8837606616431102 3.002062988540204 -0.32205663909298726
Ni 6.602428929031422 2.733579808961844 9.544468620036826 0.8740588609743141 0.5516543516236048 1.0711069217036842
Ni 5.971307408131522 1.016526222333235 13.611777811675257 0.4244050568549272 -1.5075452555740618 -0.4334687097190922
Ni 1.3071340627227932 5.41752409333587 0.10660778558935806 2.4166600797112445 -0.7019001072874557 1.1498140458976005
Ni 2.7040967734179433 8.488094159654215 12.68809472156822 1.02083619847359 0.28278303830434526 -1.3782233945470714
Ni 3.397036660339705 7.725366259100719 6.828617781547476 1.4627098444269262 -2.588371461448039 0.4474912492504293
Ni 6.421839510559238 4.401557144519117 6.914114856134677 0.25576768605776595 0.11971647672674221 -0.4552639512173127
Ni 9.206201354817688 8.998682916526873 4.262438789416634 -0.5726471518251879 0.6825294160703278 0.6308823813179975
Ni -0.2659858238264181 2.4686053380777313 4.084594471787851 1.4517183784124288 -1.73865246277067 0.33524202743500975
Ni 8.239776718336007 8.300355361396331 2.3340776864230413 -0.12842737423717882 0.7314657367597145 -2.5005459198926228
Ni 4.144878564129494 6.149883441944369 11.22505384490067 0.2828010360264742 -0.6277541201016608 -0.30099519043699774
P 4.3743950940686185 7.094934508871146 13.17281521405851 0.6046363031372748 1.4153274984882205 0.09330173417863931
P 7.177147715794067 9.098615772697013 7.748152926407269 0.4769751176421592 -0.2564832240675518 -2.0431631225600944
P 0.4780110745375541 4.507381015062872 4.670269426738387 0.12543538148839042 0.40260518737101625 -0.890632449062279
P 6.052579171301697 9.140663819911218 1.8563425201536188 0.2705391879399857 -0.35276075304506344 -0.7238488436444049
P 2.605450246335713 4.100956950635072 11.347236465801535 1.232533633685019 0.9217574526018577 0.05081528287965443
P 6.967438789563696 5.979743117005131 5.196217698618707 0.566540781817134 1.8058407876917093 0.23617870818224487
P 1.2478603912009276 6.3193712811143765 7.058958307800885 0.029693156189058545 -0.046350819350397594 0.6285210801746725
P 6.8868940819649485 2.8170234176210256 5.165425963046238 -0.01950593124341157 -1.1190829353623308 0.9311113830129318
