# total energy = -340863.579683594 ev
CRYSTAL
PRIMVEC
9.30683673022356 0.00000000000000 0.00000000000000
0.00000000000000 9.30683673022356 0.00000000000000
0.00000000000000 0.00000000000000 13.62149630415541
PRIMCOORD
 96 1
Ni 6.793525629033766 3.4038360105961565 12.515649119480225 -0.5207926290477418 -0.04704450298331253 2.8170764869610583
Ni 9.161892267809021 2.6193906448938904 12.266566519548611 -1.1663490674381463 -1.9441285996627358 0.401732812068392
Ni 0.6125452952509441 7.812642888339822 6.056430657663763 -0.0028174148441370834 -0.7614381147520887 -0.28029369622358824
Ni 6.199153794288081 5.47931649066781 3.039963814451185 -0.08133993383107281 3.3831146181101603 -0.9315158175402021
Ni 0.26900202304802145 5.335972588019167 1.7645288201713734 0.21341930299854212 0.06961724607750591 -0.24175748782160303
Ni 7.69043481239648 1.5308350751306514 8.908444761349537 -1.0043788242485154 0.069337510053558 0.4894246562594216
Ni 2.0520458646405877 4.951479233252029 4.0233949381699174 -0.4832604364302387 -0.0136219616588088 -1.507853787953416
Ni 2.8501350533062944 5.351822131338907 1.1767397111978863 -0.6360808947998012 0.5519430865086172 -0.9132231898786014
Ni 0.6336522707617129 2.7652473935180666 4.060527356218714 0.45784302479839856 1.2359485729038393 0.41701210682496576
Ni 0.8957188389172678 6.948233179593981 3.7609765715777876 -0.6209733497344014 0.45832433531019134 -0.14220154520313574
Ni 2.7615153519025553 1.4262262278529754 2.2554607463598515 0.23125041764269208 -0.281584904231186 1.1373513946542153
Ni 5.174024318314644 7.7111611382761405 5.647827011103249 -0.36227023519739543 1.6483607190629481 0.6952455780854155
Ni 8.861393116483255 3.9756666862576298 8.519809864141248 1.3577265601453004 -0.8735482398864827 -2.1187047045418352
Ni 8.99054409278862 -0.05430725494970591 12.51454532861838 -0.2442882246632567 1.4565024300646334 -1.4440390074903002
Ni 4.295291387508272 4.655075090182685 2.9506340013884347 -2.8192750372742736 -2.1013700699181292 -0.7127987564778304
Ni 7.293740194392596 5.949293142787747 11.87226468932365 1.4671858779204088 -0.7717078721092128 -1.41461093203717
Ni 4.18655030462639 4.157243075082137 12.031105406171767 -0.6350359984750548 0.6829366788110754 0.9046963833545127
Ni 4.141030565121486 4.53482144999809 7.752906024715579 -0.6265451873952242 -0.48016585666531497 1.3733935772585961
Ni 5.348657806777127 1.2733800446820438 3.1881388961587125 0.25771298270959486 -1.123326026909401 -0.16882506132793504
Ni 5.358867406907341 2.104918005333157 1.1044618847883527 0.8197977856379043 0.4492624822182392 -1.5573349254026791
Ni 3.2706272533821554 8.059934852842947 7.317454014932054 -1.5944860805316796 -0.910179003735639 -1.4268324138040267
Ni 7.265791763042519 8.022139788003566 13.198126918230209 -1.7326314533875709 -0.47018174886940955 0.12028443341507024
Ni 2.771669111011091 8.392886944600852 4.840071741584999 -0.4542830753612821 1.1061963092076497 0.9754127760334685
Ni 4.702605106468013 9.113487408850728 10.805783075429911 -0.8371745863534549 -1.2679099563017842 -1.4015818667673539
P 5.023718901630082 1.7528496704873204 8.438476485382854 1.1665912653559394 0.9742264690348512 -0.7947624399358312
P 2.3350574693440436 3.658275625874126 2.252695685103072 -0.7038171218045104 -1.1939745424648986 2.238740255170893
P 2.3551323166374556 5.546874820061818 12.239841006573293 -0.019351665053734413 0.6804311387804024 -1.4465214075925217
P 8.67031444713646 4.70590903358399 -0.21001901321643793 -0.037902431472728274 -0.5057483331201097 0.14313511276099866
P 1.3893711535451823 -0.08610964747929188 7.426317017377936 0.2339757869936551 0.6514092976267556 -0.011048030284045489
P 4.9707350788941564 4.540638223089598 0.5156508851181495 -1.5266776055281384 -2.1779498633563974 0.2879609829608589
P 2.829818228252276 6.237265291583641 5.579405937924309 -1.5062319360792769 1.1483937685113061 0.6829166242064175
P 7.013083219436583 1.2710254149346014 13.333919253380534 -0.07850632103701963 -0.5236794636772335 1.3932334948026586
Ni 6.4514621439053235 3.8693267673079212 8.464670577968532 -0.7426626339167983 -1.6986175583359713 0.9006291552636747
Ni 3.275885616256878 2.9307694886100117 0.45237649277057523 0.5091033656352716 -0.017681733550479226 -0.6801290341589512
Ni 7.663109939121814 7.067891182214005 1.8126395830821578 2.5714392044690744 0.8397557168170697 1.0896003525221813
Ni 7.24171497586215 2.1192691479045247 6.6883453419675805 -1.597353631887462 -0.854214058334245 0.2814944013999088
Ni 3.3428296944124227 0.6167175502540209 8.940006106802212 -0.3233113374356948 -0.746820879059546 -0.4115785945142202
Ni 9.06404018415444 6.3743736134781885 8.170800686599696 -0.258315135069968 0.1523561171386344 -0.5275461457214914
Ni 0.522625428725791 2.9777597083524485 1.5117132479405524 0.06745854786329027 -0.40012355859974313 -0.38865361028693063
Ni 3.7891018328298465 3.0813634172399116 9.983590109756692 -0.8280322577325545 -0.3817612540424715 -2.4044874489044523
Ni 1.371492719771124 3.860448044861044 13.121669391348041 1.0919128027054419 1.605605587483609 1.0940707295887093
Ni 7.513530455719072 3.2381650061130687 1.8179928756937342 -0.9747568876170245 0.33334583885356145 -0.6425693307376223
Ni 8.646851911194554 1.1708931562281502 2.1159903492483036 0.8546233779575216 0.8758738026958657 0.7123979214949859
Ni 6.928474764756746 0.7063060933838817 11.293064860168007 0.8814476972392175 -0.5840355961677877 -0.5330727319666755
Ni 6.745418588857761 5.479465400058953 0.5043607612184565 2.0495839384847736 -0.6028918096423423 0.7095925908357069
Ni 7.382201679568246 4.4338794964773 6.238713435412502 -1.3128947485425904 0.8544667977749993 -0.3999476951435112
Ni 8.21446557350118 8.707355658183182 3.759641971159672 0.9528246063203073 0.6651078781597707 0.8409703059504613
Ni 6.961849082046582 6.947851599279177 8.978269305539996 -0.00016069394758036842 0.6958994096193305 1.0145999877558913
Ni 1.0311323858038743 0.4847801069668994 4.0601187860767665 0.19587383791561103 -0.9922501593057814 -1.1713364933504085
Ni 4.696611503474524 8.874543677088536 13.090557566119879 -0.10277162134228754 0.23200580775147783 0.7868588688180385
Ni 4.753048162717569 5.499726384091293 5.633959824053094 1.7365271888975513 -1.8924720518287086 -0.3266997942919535
Ni 9.16238553016718 0.89969565034447 6.096069406902227 0.15581116556677035 0.3075214215912897 -0.6242149966001508
Ni 1.3044555732461152 0.8921822408776312 0.21329595050526975 0.2538887238674982 1.5184894132903914 1.522215970212359
Ni 5.401297276546035 7.23564691817309 1.3672711385322311 0.36401601424390856 0.8846428071377473 1.1576384270380256
Ni 5.025924621986382 6.342730367860387 12.791389292477449 -0.5241237503035038 0.5406713702495398 -1.5488453998744294
Ni 4.860086094438258 1.773669064736445 11.58756203234703 1.1355511082206833 1.9514914677857098 1.8960949932932765
P 3.562750251456149 7.18524108927132 0.519880842510294 -1.8668445810685912 2.8647182572087373 -1.3022814918031185
P 1.927045737613322 3.693557844737976 8.650726347415347 0.4572922945012512 0.6199389949326162 -0.2737970327556511
P 2.643067238085564 1.7065760771897578 4.808905936702548 0.38584108053880006 0.45385807200872164 0.5091928400252844
P 5.917184555322624 3.513638072889931 3.72906156632115 0.664760779232997 -1.3282596610344348 0.5441634425631983
P 8.682683233438244 5.396206436736347 10.055388634063485 0.0018910463751257755 1.1679948305716852 1.2366263156971542
P 5.821696408252432 3.5678690117766756 10.65943399513127 -0.7667279023961182 0.8872966998208268 -1.0716594517730447
P 4.1196620674925235 8.733107676013907 3.0012241056617435 1.4564080705786144 2.5230710975783324 -0.06266524023970498
P 9.126051638728386 3.175790584898212 6.23122143167064 0.38456709892238283 -0.5031954847912687 -0.49354870573012416
Ni 1.8804836323704208 5.7539612489564425 7.500214233416146 0.5231097072166926 -0.7161995546292633 -0.6604968617503205
Ni 0.1647663799318967 5.365112294498384 5.657606635366539 1.1769643810601471 -0.46295694898619627 0.0879543538237969
Ni 8.342192603753745 8.731218388113783 7.786265451066299 0.07828237795167163 0.22992347130115243 1.3462640680316555
Ni 7.551930464959971 2.194663834007412 4.1774268123678215 -0.019845316860701304 -0.6928146000464197 0.4114312703030785
Ni 5.2025218530445585 5.78175146407843 10.142702586243642 -0.9020203791842465 -1.0921951098325513 -0.43820133930807115
Ni 7.2575179849971585 6.982054225057243 6.534695048084479 0.6524986740361923 0.1891563166861194 -0.9536108496670287
Ni 2.4350222049854597 6.097523134833258 9.753591178983694 2.3521379887684586 -2.8863296648309262 2.1042826155792342
Ni 3.966518065539307 6.833749778316161 3.7599276910539268 0.2553966758715924 -2.382866785310883 -1.0938475578343099
Ni 1.852842326639576 1.0284334030894147 10.534443174940952 -1.3930234356743814 0.47846610036538884 1.7792820633665742
Ni 2.8946403475840388 2.215278477843716 7.235480325791749 0.5275703140912076 -1.5357335450828196 0.8245209021451865
Ni 6.785028486901692 0.08737816935508791 1.7839261297350861 -1.0488272843698774 -0.3169601984066864 -1.918851827373818
Ni 1.5379641122316035 3.79762689547276 10.828844486699426 -0.2846432314415356 0.03442964243277942 -1.0373501369682134
Ni 8.085063312598262 4.754797848063495 3.5392458347479847 3.0997697937650743 -1.7141359656865445 1.4658792432938432
Ni 2.903965798204344 3.876837384723676 5.893490279140751 -0.5502263609278266 0.6215757592050908 -1.6099414958548013
Ni 0.7450048520907593 1.690605544989714 8.474301292840678 0.270298018463457 0.3314018277533131 -0.10012158531395016
Ni 1.9415364827388863 8.692874219894565 12.35657759307584 2.16728184211959 -0.7621253706271003 -0.20758624125653283
Ni 7.888428461594459 3.300697643556014 10.520481058153942 0.7880436331547589 0.34166335758032124 -0.8604189015933761
Ni 6.151595857491914 7.874170387392555 3.5645548471400583 -0.4685023042844576 -0.027204071218617662 0.33938098930404775
Ni 1.3508408485870347 7.753693383121246 9.15992480247855 -0.5176728524718375 3.9577263498608874 -2.7202914222195083
Ni 2.313149175172189 8.051372562852247 2.290849993848585 -1.1688137269285548 -0.05240782417775491 -1.8534650744378918
Ni 5.374316756238385 8.896889392596872 7.721699269750564 1.446203876352103 0.9980883632541132 0.5571549697268597
Ni 4.787986028614402 2.184649677453072 5.095133984254684 -0.6310297055291391 1.0050097729642948 2.2540226352512596
Ni 0.3629480272361926 7.329422607245141 0.16018648547056713 0.23064312307599633 -1.6430696458673382 -0.857672963417123
Ni 0.5402898052500819 7.379335173788751 11.10353577917279 -1.6585286607348853 -1.4110101020597894 1.3010116239517595
P 5.9304467979712605 5.679087745722554 7.59503321890989 -0.35132839147391104 0.32650336201043123 -0.6711592265601731
P 6.07183626486116 7.558119511529335 11.027977292739646 0.8856283109794683 0.40808472242834876 0.8188220519881962
P 8.756328234195205 0.06669930834385408 10.108866649841266 1.074419273906369 -0.38503323992552396 0.1316080859580056
P 0.20530416961938538 8.666545178173164 1.6685920835603645 0.32164269148402025 -0.2364198776587735 1.3429383460925324
P 6.690880524351783 0.10246548272891713 5.462683311677182 0.33549836642018993 0.45553083172545417 0.2040625443739905
P 3.945251943116754 7.798887383333025 9.299545970348628 -0.3786684740497608 -1.405300967490154 0.48567881606374425
P 8.166451601694638 6.634499706130417 4.477917587540335 -0.8350665388715167 0.558664978613483 0.13768231717654353
P 3.0179559371240035 1.47109448877163 12.42739517676848 -1.3610941910659526 -1.3036950843211936 0.3942143922041598
