# total energy = -381171.34049748513 ev
CRYSTAL
PRIMVEC
9.20583693637440 0.00000000000000 0.00000000000000

0.00000000000000 9.20583693637440 0.00000000000000

0.00000000000000 0.00000000000000 13.47367289663919

PRIMCOORD
 96 1
Ni 8.938490410093426 5.5106877503635125 8.191009576470059 0.485238643202532 0.6466548136609057 0.19641248402790043
Ni 3.4636133661503323 7.417962291980167 3.5808579872042685 -0.47831131995507953 1.422184373509054 -0.7005927013299419
Ni 0.01151742282842827 3.0942107397924543 1.7431427509122106 0.17871995184414383 2.008715482405186 -0.6886445278291301
Ni 3.1402583370970647 4.433669247473009 0.7291722647470347 -1.0531881324417347 -1.2520051121460698 -0.8135340641163795
Ni 7.395757812832082 7.060628518094569 2.5325386815542936 1.7836639944843538 -0.555961720749707 -0.3442933390040006
Ni 8.726148570943456 2.883664038882069 8.495083900246483 0.41411755888599006 2.650338390069139 1.3651022837840814
Ni 2.363773593024298 7.403002806650301 5.626390393698831 -0.5734660481820575 0.31859670556884484 0.36203935013351196
Ni 2.04449674981788 1.8119849215246875 0.7081488945022248 -0.5932869395627266 1.025910527672704 -0.7374119270408204
Ni 1.6784082248253875 1.8888352498531338 9.341108617385883 -0.554094071413349 0.425916351293131 -1.9945739007974814
Ni 1.3368256382624981 8.967921471385477 9.840537249063535 0.15369386211345143 -1.5067710964121985 -0.7655223121237914
Ni 2.4872514863962967 8.844857840684151 0.4917040137451654 0.4122447673433094 -1.287038449601119 -0.6751673192783018
Ni 4.234657460481591 7.280031234320235 7.253929003732972 -1.273366351430665 -1.0537920845743205 -2.5343975783347448
Ni 5.762421366575942 0.8279950851279889 11.91731610793141 -0.20306187102361803 0.20556072618607177 1.5326027127633217
Ni 6.118945026794445 6.709527095943321 8.696986320095487 0.045950241477869254 -1.089199260429021 0.5320427480402644
Ni 4.2366919504864535 4.685163511920161 2.865890329142762 0.4287054840024939 -0.5143733557849594 -0.8561341581750933
Ni 4.389683757684638 8.985762383735803 5.348698157958304 -0.6782135623037931 0.6196669722181521 0.19119957236839327
Ni 3.816657219935181 2.4829431546212954 7.666318286551041 -0.8328098816268561 0.970960910909702 0.22687594272408024
Ni 7.611496605881572 8.571435272202695 8.461911586746396 -0.33680422971580704 -0.003958984647748021 -1.8550876976429795
Ni 8.188978768800048 4.493028485261919 3.734889133413987 0.9032195416986702 0.7456816232487803 0.023198035383018113
Ni 8.405987967372935 4.6942312614893416 10.61295669546143 0.31452896325737445 1.3566225284478441 -1.190810028693988
Ni 6.617422695496975 7.028131913039536 13.258094732655843 -0.21289916882901397 -0.2596184272624239 0.6832832635172168
Ni 0.7984121275233574 6.581823723330455 3.6020516654359107 -0.8694882108844961 0.26574845141956166 -0.14787956942451952
Ni 2.8372390022552896 9.31980538969244 7.682513195223227 -1.6205143862746414 -0.1266494564011496 -0.10428831509713006
Ni 5.12892168474532 7.166734996809672 1.8650261932939747 -1.1034454859353902 -0.5511902675029927 -1.1266836305277241
P 7.0521775596128355 4.672809278496973 8.7354400223548 -0.8181710486677587 -1.0856292836895756 0.08376422700184928
Ni 5.721915683221226 2.43011085535477 8.758170154802784 2.4382825430770265 1.2775220254702513 1.631463171976661
P 6.166078912879932 7.765270909235474 6.840111895576648 1.6270776413144559 0.9069694956594059 -1.2571408907107382
Ni 0.06681964819587863 7.526324200791157 1.0435442379326814 -0.0789655200616253 -1.5453304447426353 -0.4101207790217711
P 8.24348653042352 7.883354182051594 4.388860755845568 1.0688916592199205 -0.173207763776663 -0.8075356804410997
P 2.435542299259152 0.4061219489026401 4.2028025022742455 1.5328374544819472 0.41199999832235495 0.8973288872458481
P 5.2728365365371985 3.72378873500737 12.24663928119351 0.10403351877384664 -0.5230060917592929 -0.22305399787482874
Ni 5.1120657969674825 0.5103237399163579 7.693144095936414 1.336085070616125 -2.027048990607051 -0.17044228521638388
Ni 3.901930889233983 2.005795410539874 12.54671182757123 1.2389881310611113 1.163473545662564 0.9863643899489658
Ni 6.329832343678496 0.4230597686308994 1.062990648277795 0.5437782913096377 0.30756950122040577 -0.4967116768391381
Ni 4.051332419953 0.7565762007039248 9.931161350900009 0.13709739120735098 2.2542954292966724 -0.9801245796868411
Ni 0.7873016026959017 1.5127860090902319 2.936169530930619 -0.16759633112715652 -0.8373913303499514 0.2936822017153523
Ni 7.432433867942352 4.553925097850883 6.555022769705324 2.5773565983947737 -2.276389432982234 -0.12300183234623333
Ni 0.3569360817217518 0.4407745610125991 5.038830600878445 0.19731931211288598 -0.11033632106342288 0.6467049501725507
Ni 3.47995372704911 8.685495594194723 11.643180087072684 -0.6058956294656727 -1.0545004234952549 1.2211691006018195
Ni 2.016290064863596 2.0999711243395875 6.445670312819567 -1.4486811342480017 -0.976497010236583 0.08249178804732889
Ni 3.7949866793404086 2.9490070708029257 4.977121112871249 -0.19345468695115717 0.4223384041338855 0.5067099257024306
Ni 7.807544113318394 2.282007347670529 4.632505202975318 0.8802223094725485 0.8081774277901566 0.2817160304924116
Ni 7.289034543029534 4.678645779234902 12.61985956820757 -0.5401309243650374 -0.24765328448074767 -0.8753744944619439
Ni 6.2155418757583165 5.2391892018414055 10.654509082497379 -2.4900961853142083 0.17710272795569498 -0.24834002613512715
Ni 5.356526801850316 4.835918300696711 0.7478481465246962 1.2444815500755149 0.9033689227923409 -1.1409501677490674
Ni 5.823999211112236 2.329794848191967 6.3595331359983405 -0.65818441156706 0.26151333029229157 -1.1752754233934986
Ni 2.487518455672953 4.51271056503746 11.748678980537466 2.4769437070926505 -1.8163491434222008 -0.8245489271696443
Ni 4.88191986881569 2.6397645900639257 1.292728757844902 -0.857487329768878 -1.1266525201794726 -0.7428680650593852
Ni 2.337030636173059 6.578334711059674 1.6991784345492302 0.9294738474095089 0.550359286961265 -0.2269268505666737
Ni 0.9214214437856398 5.244804762488309 5.608254894560471 -1.2742215003421087 1.4752210895200595 2.1834947044340267
Ni 0.9754597077156806 8.273083296783838 12.003344655874551 -0.07539605754281209 0.01947019290946969 1.0078361866694965
Ni 7.069622620966741 2.7633805709928168 11.005538699119043 -0.7904180469242065 0.12405392775983151 -0.1171577148606305
Ni 2.4923607260012663 4.90833141553039 4.156331436461836 0.5625825685003344 0.8331873195709327 0.8902030748343442
Ni 6.917367280738643 6.298366792381582 5.209097161443703 -0.32409141013482895 0.8879124790279546 -0.4927298093732546
Ni 4.147211213621037 6.4985845440365155 12.792309753339133 0.14510226378969848 -0.24323921457345204 1.0296080311289493
Ni 7.798927449768391 1.5532916924449471 7.1046278166386285 0.7790956799328517 -1.5697903775572126 -0.6567937018671205
P 3.1511212249058294 4.695575313709748 6.66640971659594 -0.3506971856478154 0.01760100091121485 -0.3612723900605004
Ni 3.7036923925611553 5.415462571131426 8.82002785678771 1.2167786848436077 -0.32699778514834654 0.731742901680501
P 0.2636809516346457 3.437975109754223 6.34716417323575 -1.4424564934945288 -1.3008355033852113 1.0065976862767052
Ni 9.032859446472786 7.669530203124328 6.501262522056489 0.04505549757774176 -1.1910807658568712 -0.018576734560922847
P 6.240195107581935 5.225942002216989 2.8039930420581944 0.9472535399904333 0.717358350824055 0.555861704836733
P 8.710001532624327 6.627530704661401 12.633683973819792 0.08062568137286759 -0.23940775664250386 -0.9265885554419138
P 0.4339953825529599 0.17763859493581682 7.659621960625538 0.6852817820044843 0.4853031778918803 0.6661229496878464
Ni 7.663205793018716 0.5476340772046139 2.98218214605415 0.9435290399509944 0.08484126211611195 0.06614548547882157
Ni 7.819253938142758 2.4461290119541346 -0.22282728763656484 -1.7018247524193593 0.04894686221234796 1.8261111079049714
Ni 2.999270941511277 2.4695670732771133 2.6701852788470304 -0.1688155482462383 0.6828708585701464 1.2245734982976781
Ni 7.856528372666221 5.197219790383645 1.1176963353994762 1.8768407730493546 0.9710174751792503 1.459418318159848
Ni 1.8095085513377742 4.003462066897428 8.366006096150693 -0.5384656208474726 0.5520505586207589 -0.7060272420819518
Ni 5.429041180892383 1.5270918799841473 3.751474369580318 0.8150756975718865 0.7482987491566532 0.4856988706684023
Ni 9.087937969998073 0.5058414178196737 1.04409106465797 -0.40449109153981944 1.480378722461599 -1.0095616540010355
Ni 1.3355828502504783 6.18963665008555 10.429700698711283 -1.2658165641078651 0.2666766196607859 -0.7696031670613842
Ni 0.5189689415614519 4.057224155713686 12.9856295712355 -1.2508568574742391 -1.7585204053391907 -0.2591198903594505
Ni 6.858403893946153 3.318704283948838 1.9600018943399433 0.4854368752562672 -1.887056794350408 1.1447960238577186
Ni 4.438585164498331 5.922280728270176 4.871230971328608 0.7283901831581843 0.40153252313212784 0.9837464927101445
Ni 5.300269931172892 4.940441375426128 6.727297123347778 -0.9600926007366304 -0.19719821315398942 1.4724664095930577
Ni 3.9278821440923792 7.823433388197994 9.296982278289484 -0.8745345150591518 -0.5542912750258197 2.1205489568394253
Ni 2.0562526038278732 1.7255605225851265 11.525555264945442 0.08862721152110543 -0.258269112323381 -0.10926417104516667
Ni 5.980213061304546 8.227155375361868 3.718720001085755 -2.19547398828309 0.45529120491082237 0.36310070151849083
Ni 6.035963610940035 3.792629985036134 4.558063121639052 -0.5877289858589749 1.2093366267432657 -0.6967838691068129
Ni 8.311931929455861 0.9926654173043085 9.962528399739673 1.5913030548180076 0.35905867023863325 0.32136475523228525
Ni 7.741114792616661 8.922435430145557 12.408822196178365 0.24638547351191759 0.09355575917097436 0.7932843127284079
Ni 8.231344031254231 7.723421173660351 10.506609023813624 0.7847577633146355 -1.582993506511048 0.30730750580827076
Ni 3.498356195464127 3.122196484655712 10.075182069818837 1.4464453029389477 0.5687856119872527 0.07641729971847484
Ni 9.286204084182279 1.3920882785303061 12.160407284249883 -0.05865611908031188 -0.5061779644583605 -0.28265705424944226
Ni 1.8410109259831913 6.617662047262253 7.983178597511865 -0.09610757905855061 0.7305851339269741 -0.6088860795525642
Ni 4.198515343924634 0.5121290045767806 2.163144340449829 -0.9152726162084625 -1.6192064660964953 -0.45404499120854713
Ni 1.272753011865039 3.0178299091574377 4.434805247774366 -1.061233114233398 0.3566212644417342 0.4775757273406355
Ni 1.635950903999945 5.948683069147751 13.07079645282364 -1.022543153862368 3.677195083705196 0.813964981006211
P 4.784015790979919 8.533995132610961 0.06748615080380622 -0.6196613157911973 0.09780502136563156 -0.3288636347124917
Ni 1.4276596331854472 8.645137204234025 2.6361918046752977 0.45211177874157615 -1.1285381672379595 -0.4597687810662018
P 6.315471237761824 0.4042678933054493 9.97030272919264 -0.8790126054351636 0.16805013083512352 -1.3966139812391174
Ni 5.820399728795941 7.71688502930084 10.96561666583812 -0.5000931917168614 -0.27551735788086745 0.2361177730373224
P 0.8942007039875585 3.648733544918507 10.632574334377088 1.860221676435435 -1.942048062984623 -0.4356353783531078
P 1.672967575083879 4.665067169473946 2.289836912146253 -1.536739617749831 -1.5656308468628841 -0.5977927978528802
P 3.3802729226480057 6.321740412844679 10.852760467342183 0.7688274652376242 0.8164692354853036 -0.7775640737796738
Ni 7.030562254040819 0.2040059536323113 5.3305083443809 -0.8663671487570113 -0.289372775706721 1.7144858928267954
