# total energy = -381180.34541298996 ev
CRYSTAL
PRIMVEC
9.07440878735524 0.00000000000000 0.00000000000000
0.00000000000000 9.07440878735524 0.00000000000000
0.00000000000000 0.00000000000000 13.28131451559904
PRIMCOORD
 96 1
Ni 8.589599206281996 0.7931650139383177 3.4183315186411933 0.593969567452048 2.2670902670684954 -1.4294770505157253
Ni 6.427076902849763 3.979164450271696 8.449213568687064 0.4699894303529454 -0.27594107568184734 -0.1401379778058877
Ni 8.22929981449073 1.8828218084521997 1.1357838280953798 -0.36018275654074744 -1.599747071820303 0.8708766065915905
Ni 8.811831471864874 4.5767233282177155 9.15559366150023 0.102860581511668 0.1854852955924354 -1.2802648783227113
Ni 1.311388152744363 0.3651496631654623 4.866286797859327 -0.4196243476368322 1.6297017092008643 0.21419140527787628
Ni 3.804999326819995 3.5471863052816075 2.8142045837809686 0.8418755913735502 -1.2666786549978442 1.1574165408352066
Ni 7.163093106572163 6.812058685918508 3.0455248695345785 0.08067093278850623 -2.428695927829856 0.012487333833733332
Ni 1.16569852334734 0.8511132795481868 0.23346729081840809 -0.3091245044123515 -0.5413239162318741 0.15747826885654814
Ni 3.9160065667087385 1.8742283435478722 7.13626280278903 0.4054927933314565 0.3646181666042817 1.565454212075704
Ni 2.5458979161862296 7.716695549463734 11.887625846026026 1.2061271186670324 0.2196781394240604 0.030910316425611283
Ni 3.117458613613877 2.2305531443907802 9.913279552858885 0.6939044906764888 -1.252629890214262 0.27092022542848826
Ni 5.316314848911926 1.8539107427867427 9.083237049982134 0.9316785683703116 -0.7469784876833329 -0.1545119871393726
Ni 7.99302036446023 7.310579468863648 8.644329686617235 -0.21703375982267786 0.22557342186257281 0.029731979846793953
Ni 8.564490317802298 1.8906076509948746 12.006786442004039 -0.1494129753499104 0.054078784122274605 -0.3031001525951425
Ni 7.701867965880131 5.5406251540545615 6.885976095708562 0.5039153936764289 0.9674922356348113 0.5486453895939518
Ni 3.3662698218628315 4.1417234051778475 11.365059695284172 -1.4356075888934952 1.3145266277190586 -0.23718863750399796
Ni 1.0574952757029865 3.348184525606945 10.961586989897002 0.08816775538618364 0.20351361384905592 0.4599965808062917
Ni 0.28561428703721414 3.9184566570193704 13.658636421991252 -0.1000807047736857 0.3244724476233315 -0.9068239712204769
Ni 0.7759898808607877 4.364218828608903 6.608263803643563 1.2798257339027634 -0.05655784179038646 -1.316836763909474
Ni 5.392911931549127 7.628192842798572 12.283714705169634 -0.4688352621438442 1.4377590880188593 -1.0227066760234256
Ni 4.817204229410522 0.47208521593427805 5.4073538527690195 -0.01633936058997186 -0.903328813583025 0.22194328130915322
Ni 3.1823406348028347 6.145534302932477 7.450086703710177 1.8839599005926393 0.5544627676066773 0.9032992458966701
Ni 6.852376283141241 3.049019424270224 13.028889709449517 -0.6340515230745983 0.8138004304038888 -1.3339893644293606
Ni 5.639536207335629 5.245452792483316 12.274391657817251 2.7442888135753702 -0.4705075076399445 -0.1822192232466539
P 0.43392823538918046 7.8052345537631265 11.999375372534804 -1.0174695959942026 0.9644598765663907 0.6750307937004374
Ni 8.603954920620588 2.802340702032375 7.4477627476784996 -1.78834237379663 -1.2342318473230485 0.6717994312473333
P 7.576132960901922 0.9118873159829847 8.379858771519919 -0.6574529327176741 -0.27799050201170833 2.0455241665931028
Ni 4.380035522725317 2.758420564612158 5.1603484518230855 -0.7294908724215308 1.4146469274814284 -1.6344963023760302
P 2.5199451077106465 1.8957891382814331 3.6105519928005405 0.5750225940359001 -0.6536978365506162 1.5443642241746243
P 8.697339659089897 7.5321130049875675 5.964213100892018 -0.6899570759929665 -1.4447265204756279 1.3288741546899823
P 3.862694416431099 8.805760692539641 10.558843866957886 1.444324657051519 -0.7235788778124699 -1.7368678600664214
Ni 8.293229022781107 3.7428305537898483 2.7153643108866516 -0.632463095541556 -0.10216715498906921 0.1756773083630781
Ni 4.460325889645582 0.8505497587767414 3.001696383640796 0.817656056704553 0.8676935808779186 0.6184564968498187
Ni 3.7239648583979825 8.051686415787028 1.095251167389825 1.0907493785249602 -0.09932351489268702 0.08880616030113093
Ni 1.6295641400098757 2.04111579133614 6.656196644528083 -0.18944350890923503 0.6949054211371773 -1.5228646595399513
Ni -0.12861703713619696 2.5688198722034756 4.947489142839659 0.2936060970617782 0.6396354449202791 -0.04707998420693827
Ni 1.4125496593477893 4.331079088555467 3.5806554463656957 0.9758632333073259 0.2923097468478579 0.9082679027558551
Ni -0.01794282804152807 7.602376150451358 3.942066453205305 2.33318175938093 0.3516839750411169 0.9686759715302673
Ni 5.414672363270963 4.66525325810855 6.512558738906001 -1.3394012794735515 -1.1386924820631423 -1.9031809536057802
Ni 2.875262649203629 7.979726355922911 4.26397928191496 0.598222429191131 -1.2254674708668571 0.17427271470606762
Ni 7.457929715026767 6.970062287728596 11.058208569898914 -1.084304651340881 -0.22025200964965938 0.9634070098218441
Ni 6.2315959936955645 7.583828059359018 1.20496711894078 -0.5746600684901587 0.4630294540953445 -0.6028211043054069
Ni 0.6120942655740578 1.5832029866875845 9.181093656988775 -0.021719136844646467 -0.0012459565919591443 0.3570231278658432
Ni 6.035407280673849 2.9020956753093277 1.9357119987318974 -0.4551402811552549 0.14384422301288127 0.19099851210118074
Ni 5.116432851607147 7.798628384332977 3.537079229029823 -0.3472771042226729 -0.0662249325665053 -0.9122202025353838
Ni 6.518909917455672 2.308828992611193 4.214028292567164 0.363876917562883 -0.8455658957409437 0.2925030938055866
Ni 7.632875237614446 2.7617145749186736 9.860353064944956 0.3192430809035921 -2.063115911532937 1.3565739345980958
Ni 7.607639307414938 8.83884598614173 12.903686464812802 1.037167331533446 -0.3278290228003902 -0.5549003693647282
Ni 3.3224041308939616 1.6370505270701403 1.2638536783955356 0.43197052790701085 -0.12892951068457795 -1.259249709523625
Ni 6.0903981965347 4.674000987958362 4.082490203316181 1.8830954957098152 -1.1612785948937743 -0.6172822740360594
Ni 8.572865996901236 8.205633756971736 1.9069179929368372 -0.231076353958673 0.9400436525055552 -3.056958612136819
Ni 5.534527151503656 0.7058283687728462 0.29654531958605584 -0.47668818252935974 0.7712345320172201 2.122520221633183
Ni 2.6756710329727027 4.566305907193251 1.2376685650608703 -1.162092091934005 1.0358640393409901 -1.0023602511565899
Ni 4.31174152391859 6.389980720665084 10.227103453780032 0.2811727563944319 1.5973664874032683 0.8070358579865455
Ni 1.9427673513856618 9.083029246026157 2.3500086586469253 -0.7249914418892804 0.5503893688682522 1.6173457587386726
Ni 2.0198090800422 7.901695516733562 9.358147164684453 0.6727132013108544 0.7767022400000108 -0.029215959442323875
P 6.84538898855166 4.934037239593435 0.9666114442322332 -0.18872102892091366 -0.4300769104287238 0.5708419802956491
Ni 6.54255782615755 8.478247138868053 7.058248297535086 -0.1847471318748302 -0.9587965076330262 0.48461463646528796
P 2.349446045316336 0.8907176282582687 8.203229946144749 0.7960778163131451 -1.902980150448884 0.6506878460796987
Ni 6.296069666499416 6.757158514143236 5.119853903633475 0.35103168616909863 -0.4834753806545222 2.6314006726243715
P 2.8997272546757165 6.451350945742135 2.619619318751434 -0.5663273802547472 0.17957484364527138 -0.7463801919777017
P 2.502295383065539 5.535688675799066 9.694841297494063 -2.4260003832755643 -0.600595814519314 -0.15938037097526744
P 2.176061321000614 2.772622014005265 13.017945972728697 -0.4437963168973454 0.7369645550907566 -0.8509693261447021
Ni 1.971506003288519 3.624427670926419 8.594697209009821 -2.13644583057534 0.7123421285563861 -0.719434002406161
Ni 5.90949986193304 1.004219423059578 11.394956241719017 0.8174567962095534 0.9132100772524789 -0.5797817059874403
Ni 5.692748539119132 6.1687103423893435 8.099596570650151 0.022552174268903095 2.994444809873314 0.7521343208526595
Ni 4.333420285963404 8.589118262628427 8.354119211645447 -1.2985405367034475 0.0009641636854822104 -0.6966928520549033
Ni 1.5910523500901645 0.8804608242652787 11.252274778758936 -1.7610467713054703 -0.7343358592186578 -1.1803045011769737
Ni 7.107212898672638 9.025116370609664 4.83564705736359 -0.4552626656657321 -0.4148891469446919 0.023471086538746674
Ni 5.445888328710126 3.4412244365510536 10.805610610958748 0.8927842052979593 -0.3336785396026318 -0.18747944320432872
Ni 4.036242480100863 5.466051664525771 4.292148968401237 -1.9071602499685023 0.8282538868250574 1.328439381145409
Ni 6.180906347491156 8.507085609265046 9.744726043659387 -0.9223449496742114 -0.3492576249878114 -0.705603781391288
Ni 8.337575657403546 6.270343718237781 0.1009301091852 -0.36374579130165746 0.6382156817546171 -0.07085523224966507
Ni 1.4630578173810393 7.4871674594003075 0.7852031278696197 -0.34983663741973303 -1.4018207222510373 -0.6729805960396281
Ni 3.6089467299266484 1.0127765903296742 12.120460650567948 1.2521454943786758 1.004540289527044 1.7209002809935718
Ni 8.311014863554584 9.104717082479528 10.452221381284318 0.8341142022605763 0.6603503088701272 0.1943417175418008
Ni 0.8579000297086373 6.319145887462146 7.789371580163068 -0.7077989892703939 0.11701501863517912 0.6681507787511525
Ni 1.3367420502551248 2.5545186043162307 2.0454551735085262 -1.4407338543764672 0.20476754086081508 -0.06495969270083651
Ni 3.8419049464249584 5.99813868472657 13.014678278206999 -2.342015041401844 0.5503924541920457 1.1638869790508988
Ni 4.946360286415058 5.634654175531481 2.148983285863852 0.7050540795354051 -0.13644433100438438 -1.579488578681583
Ni 8.078564813935516 4.66810262239573 11.486052414350025 -0.35154127881566555 -0.6671516480626768 0.021980360925833112
Ni 6.330289261171243 1.7501630297443158 6.8472873548219715 -0.054752927371163766 1.3715590951530185 -0.8761221712612459
Ni 2.047177496252815 8.090515810006265 6.830566849613192 1.1610034868555166 1.5547465958502127 -0.41978735557725766
Ni 0.19175223467775945 5.8654708316101285 2.227780912576343 0.6037266468388118 -0.24724499329873545 -0.04254558667169447
Ni 4.446405746917769 3.226514855662673 13.170415092759322 0.2784813256051978 -0.06586112146918334 0.7126514322666888
Ni 1.3931032018082177 5.6510697806127155 12.181103108078657 0.578537549167694 -1.3438896542622083 1.451332970048552
Ni 9.120506553370268 0.18400450465102774 7.079418892700658 -0.3719044158530498 0.799750637179042 0.03742009251967104
Ni 4.071632673476658 4.322104498491708 8.71198393962063 1.7040850092084459 -0.8855984861827972 0.28407733163573656
P 3.171714502381538 4.3743730917851895 6.185253896631244 -0.7113003175554331 -1.0878067509568685 -0.027591793575339578
Ni 0.46220590733729644 6.418928083964773 10.318451894968948 0.891506109916484 0.08050226842112587 -1.3583284553953574
P 4.374436612645095 7.463410657795736 5.8896123881375555 -0.5055398166537294 -0.021959792100542826 0.8250652046844307
Ni 8.610089220805726 5.441278529162714 4.656840373934525 -0.4074229204746338 -1.0598809710808779 -0.22145040083313475
P 7.27339254259339 3.644908611041591 5.943374629079666 -0.16184271647283097 -0.19035907874496893 -1.2782738160346114
P 6.257403611634221 5.464699577650644 10.053463738583833 1.032380451667764 -0.9395086059376917 0.4011401727897156
P 6.648438025211082 0.5401133345702581 2.263016841006654 0.037694172116664114 -0.011592589933605842 0.10388670878333722
Ni 1.8716421371088716 6.093882769420932 5.543580688921868 -0.6121328686246361 0.1102573881963714 -1.7517663744448089
