# total energy = -381166.68989333976 ev
CRYSTAL
PRIMVEC
9.31056658670716 0.00000000000000 0.00000000000000

0.00000000000000 9.31056658670716 0.00000000000000

0.00000000000000 0.00000000000000 13.62695532613755

PRIMCOORD
 96 1
Ni 8.470436921931555 5.893393127911257 4.8765963925270706 0.5066003967077598 -1.3137601818666793 -0.6714867851029209
Ni 6.855249140919994 1.184732355977364 7.387540750116943 -0.9486781882521016 -0.4590789540880287 0.49462188418964503
Ni 4.2277420759961135 1.370040562765927 4.151384257299718 0.5190463357805964 -1.3095800823470607 -0.9810170095941234
Ni 3.9589460186185415 0.6609254661114907 7.620071219580022 0.8335462455722482 0.4100282193079648 0.22346357460842162
Ni 7.988093709305905 1.2500552911544005 10.306706899730358 0.18800240558733428 -0.0191374921603993 -0.8117816002016471
Ni 6.201954615183517 4.125828614130685 7.8017585470227555 -0.5977652870490543 -0.37120944666855427 0.5101665167924634
Ni 4.511295381414677 6.202001168016453 4.684687925084716 2.631919778352635 2.1208271502014764 -0.7185593131106915
Ni 6.72382118297258 4.410769193970769 3.6785964791626937 -2.3729215011727134 0.060785763828804996 1.4895457336728475
Ni 8.906525239751115 9.173906091007405 4.313012900086605 -1.4952697806408182 0.5325806228216053 0.11515971059399523
Ni 7.707426679529428 7.72829165925174 10.486978089995148 0.11719602429773364 0.42856741576273283 -0.6719351854942492
Ni 8.224796243656789 5.644726515495595 7.529165640590851 0.527744891995859 -0.4311161503265156 -0.25280011878900976
Ni 0.8617096966815916 4.595816704894886 12.348923817271961 0.2988724876670401 -1.6936864395829412 0.6514702327716779
Ni 6.907965568937721 7.943039877589588 1.3299678841738567 0.14889592650417582 0.9751214700452947 1.52799246768482
Ni 3.8549283687043667 6.931381643904974 1.779012786456411 0.15110373278877204 1.9657328081960728 -0.9840187725349246
Ni 4.84114082390568 7.611136799882776 13.375183812535559 0.07495974133634187 0.16758836070735655 -0.24939392132093818
Ni 8.12384177014986 2.5164506266696476 3.4834861078709407 0.47195221050627106 0.15023058615519932 0.3731678559465057
Ni 9.13416859281248 2.8519382725126 0.9126515307077657 -0.06779459104647034 1.1920588134994246 -0.2712580683838812
Ni 3.429826519457911 2.9079692622354347 2.1518870124309752 -0.054618715786144634 -2.0191096811553164 0.7310872703743733
Ni 2.5051662199657465 8.350209575588757 13.575036986446921 0.20977630692931615 -0.9109613904276181 0.016471001071829694
Ni 1.8123390284992675 3.994149270885414 0.9525668607245094 0.2717638043757062 -0.8243887474426964 0.7927137849369187
Ni 2.3673698344725684 1.04716873464887 12.758945341816842 -0.6695926534040016 1.847075368861464 -0.03620293228311829
Ni 2.8081413672855793 7.779285632450803 7.220691672644513 -1.6923047287440662 -0.8531673622372855 -0.749309964029987
Ni 8.841099888341617 0.8815542383059267 2.090251992679199 -0.7178419753286928 -1.0624921834514798 -0.5366072274824952
Ni 2.474739288358199 2.5059483075590863 6.888616349455835 -4.219460023694101 -0.9849027178017746 2.01606112413698
P 8.24154595294748 4.618823114932294 -0.18521789429266536 -1.5279945245673492 -1.3084801644146626 -0.30375809789411556
Ni 4.527951985039495 5.8381907786147 6.923923880068485 -0.23666490379004404 -1.0153283812814837 1.3365658669072853
P 6.075461257527413 6.475061464891043 2.9034406026473345 0.09405172497078641 -0.7660846123851645 -0.6375271403280246
Ni 4.614335421837178 -0.035318703292555625 1.692563244635957 -0.5578777068254973 0.5070752794616493 -0.5298593672357004
P 7.010661118396488 4.30133279430274 5.8630248528732105 1.4172170022014496 0.34075961481912925 -0.12613112200383436
P 1.4932193587169236 1.5507493496603257 1.0508184767511217 0.8384444542048142 -0.5861158757355841 0.8868020195725953
P 0.56528360189932 8.113944637867478 8.83194294610293 -0.2404228281705795 0.7529773855792451 -0.026688822145095967
Ni 7.049365143700215 5.685907151511563 11.5347948400785 -0.017104006670138283 0.13240204261421068 0.46127081953302496
Ni 2.361457624689584 0.31503233105048556 5.718878660967441 -0.2835093749474085 0.558587074187696 -0.2306698625488737
Ni 7.059690562045615 3.606531762719738 10.222696726355796 -0.12515744523665542 -0.5586706350404379 -0.22785964679358822
Ni 2.8676451983455054 4.982791783966032 5.389965206191835 0.6590788983568713 -1.768560306073696 0.5641301154931123
Ni 8.438762374401298 2.967910689924967 7.739157090459209 -0.18389378273559942 0.3770625630152216 0.8290319026416626
Ni 6.315534216982927 2.054022715974398 5.176540019366053 1.2583914752883874 0.208494354893099 -1.1180493518914938
Ni 4.653737739634957 2.057309345979742 -0.1566716971357677 1.3594384006300846 -1.9733733554604658 2.066628552671886
Ni 3.3412737206453693 3.339253327695909 12.449858738589054 -2.3279935303117716 1.4501402352920314 -0.7521129806964209
Ni 6.1549269433506755 5.776163784009595 0.738505762200809 2.7476145355144936 1.204234786740326 -0.16324396769573177
Ni 8.66950614613626 5.001422227707374 9.919019562315276 1.4834457914226968 0.4525084999593626 -1.193965286493518
Ni 8.223045857138361 5.017343296571788 2.2390311225188473 1.026628122565019 -1.3368150068036138 -1.4778852666157836
Ni 7.289037748792471 7.784918525236167 12.79359927065506 -0.2322804015691032 0.5183395395215589 -0.8859124178787905
Ni 3.7306974787289966 3.6446678434616335 8.453659280941102 1.7271069240249157 0.016433462965674925 -0.2675099141953587
Ni 1.8942906356013594 0.6390083923648054 8.728514655053738 -0.8077308271710413 -0.012175459020269353 0.04820098518525892
Ni 3.5026258396046113 8.295053779125135 3.7092161394986007 -0.30274354058667213 0.402586675428255 -0.5490557376584931
Ni 2.973599446109855 6.77717072951825 11.640867332038509 -0.06399784300819945 -0.028786328104073007 -0.5350882197348075
Ni 8.945964799815243 7.779983924944856 6.091249185289628 0.01480595466458095 -0.5640547821704867 1.4808163242196497
Ni 5.873347478048635 0.051209047287231815 9.478487311063562 -0.16806658589535572 0.39028883189750846 0.3299692090718446
Ni 2.435318349427245 2.8110090217944914 4.633178146496712 -0.07386625116184697 -0.08951038545700714 -0.7850655243630414
Ni 2.3204911317051256 5.963026855418249 13.793340910164488 0.289008964609399 0.9921804824101106 -0.6336943968454958
Ni 6.067388996296158 8.506096391961208 3.617221224218705 0.24709175555032284 0.8331770351582877 0.35423065272237064
Ni 5.025517974035505 7.880128379158682 7.868067471201394 1.4431134103522372 -0.47439193029601534 0.6595604659789802
Ni 4.563928014333119 8.389760862451933 5.6298677822788 0.573603087980554 0.6299848092043925 1.0988139007006494
Ni 9.144624359090104 8.985050558349052 11.794919966793248 -0.7287653071094158 0.38707932382127536 0.2332250248705596
Ni 1.866712737369549 4.724172175868464 7.755059538190448 -1.1361100660479466 0.6386663961387904 0.2668712521700953
P 1.6145174202172703 6.084269053519072 2.258994839395501 -0.12602544966390555 0.9012942996514993 -0.6009310863715458
Ni 1.186138251532058 4.611197760897232 3.722816084112782 -0.8208205704754639 0.43784806973371043 -0.9490494555485912
P 6.2080157940318985 1.2087349966396217 2.4561228104667387 0.11206590216001991 -0.8293293792774233 1.707502519530427
Ni 3.7984597823519253 5.150270255739769 2.9069292719476247 -1.3760700956494947 -2.692863407915543 0.5998846473849023
P 5.707647324493089 2.317688651162325 9.112058790337437 -0.27850575108523007 -0.7021394769917715 -1.2678176536982941
P 4.526937133281471 3.58064838760683 4.247085709138048 0.5356482060033355 -0.353741628901094 -0.31142255641790884
P 0.5293010552090844 1.878863026766076 5.121963340144166 -1.0104839087049888 -0.7847927303176291 0.9828512345893847
Ni 1.4659766408822588 7.537536771009561 4.6242800380091555 0.19113143813461922 -0.02925169777626575 -1.1012919299274968
Ni 8.793048054184165 7.101290173558016 2.7849273316132725 1.0342370452605285 1.7648687161547219 -0.023403209415288725
Ni 1.0629873872808233 2.4229539169992083 11.217095962757389 -0.42532319779382227 -0.6429560246530798 -0.7133073206831327
Ni 4.568285359496012 4.438226054836944 0.8161866124092708 -2.3984582119912368 -1.4388245531688963 -0.9495235669715324
Ni 5.680348743258899 1.9515413095471401 11.246258519422373 1.7079491201495427 0.15865583410441708 0.44306098139321765
Ni 6.177709899789987 3.853671442215071 12.697256320778859 0.6863238501157534 -0.18309442676275564 0.2728994606420461
Ni 1.822794794776892 8.698834430886498 11.109948100356538 0.3292806676452523 0.5374538917535067 -0.4194736809915808
Ni 3.6532801175549574 1.9908970745119823 10.091060211716826 -1.20411497333301 -1.17907345698335 -0.01118249897938074
Ni 9.07723447813067 6.417494231681292 0.36486900082273804 0.5513555894362633 0.35972792839151596 0.3623597095874082
Ni 7.767386728352135 8.069104949182671 8.209163802356583 -0.22203609813327568 0.35467211113516334 -0.7957245467387845
Ni 1.6283715432992871 6.44171101537506 9.615520230096575 -1.0938758399690838 -0.11267988159493497 -0.46392548354705265
Ni -0.0077454603440388625 8.668919580441257 0.45891875814846733 0.28231689730120413 0.5004477468428026 -0.41349278081779756
Ni 9.249945488326512 0.6168883482665154 7.113488877900797 0.2717121252021643 0.708345091581851 -0.25766695996300787
Ni 8.189518506857217 1.5905706429545365 12.698578421234267 -0.5613471534313365 0.24772990335495404 -0.0016894718872809615
Ni 6.916196109800962 2.540416025065556 1.0739719937406107 -1.0728082206655074 0.7627375502898026 -0.3724875420500295
Ni 1.4363783497009874 0.9294217232449489 3.4855027765937665 2.0798548215541732 0.8474415154971018 -0.8047640312332334
Ni 1.7451446694381683 8.500295908977272 2.182929372489949 -0.6417758883020496 -1.4890950192886743 -0.8836177083073427
Ni 3.233448048996957 8.15568390787869 9.438642741352881 2.059251543481525 0.8837889437778844 0.6707162254854836
Ni 4.4270626854986785 2.6735012638655213 6.272011042413576 2.18594907951179 1.1793570496620398 -0.1717214090391236
Ni 0.2056126904023145 3.85147414850045 5.8358119288516255 -0.012459051698959188 0.3200624914810939 0.35756974439793254
Ni 4.7690677279527955 4.055561768095752 10.688901933915544 0.0371023041689361 1.451388762987152 -0.7187099797559429
Ni 4.350846387414411 9.536813355450183 11.709029058968039 -1.3020557489455575 -1.5458032706139957 0.3026730923600529
Ni 5.297907910115804 7.503096985202854 11.04132270721096 0.2103272943367797 -0.6708977453686704 -0.6427853034031704
Ni 0.18516016877982364 6.44465315441667 11.475668086965364 -0.025907206784065058 2.3297873889874006 0.44065314328267335
Ni 2.333823863058249 4.22441820372442 10.324816882799464 -0.434054149908917 0.06142288319217162 -0.40989220795073283
P 0.9139736311631731 2.5632269132046295 8.831207411342529 0.5006254100712475 0.7883182269723842 0.7199572218994826
Ni 3.8928130641484033 5.921026889542593 9.34212289071152 0.45317184457497434 -0.12529911302084226 -0.41447339956351203
P 6.666077048997669 9.036407643645022 5.6628309122247495 1.2073530206543337 0.2645220352116283 0.8179288507499656
Ni 6.2976299974354015 6.2577342196084915 9.213252545405659 0.4727783059519922 -0.6579661249086668 -0.3832985166226044
P 6.240761056719704 0.559079040325492 12.816628026052276 0.2607443133367509 -0.9547961282243815 0.5733629469452899
P 1.2979302245466926 6.010520055580459 6.054278787484472 -2.8304703917694605 0.8671737038187064 1.2469104712319816
P 4.327998257008988 5.361908744837434 12.37402510479153 1.1187070400801506 0.11101894895274429 0.9386598847841512
Ni 6.6198035330584055 6.7495369678869155 6.064063261911147 -0.731289101972534 0.6459030230965457 0.4650709100054055
