# total energy = -340894.44503467047 ev
CRYSTAL
PRIMVEC
9.05047685814119 0.00000000000000 0.00000000000000

0.00000000000000 9.05047685814119 0.00000000000000

0.00000000000000 0.00000000000000 13.24628771811685

PRIMCOORD
 96 1
Ni 6.301095978805977 1.9496447151655372 11.470040632268311 0.11139021624923397 -0.9091749879511568 -1.3193448750433086
Ni 4.644541912357224 0.287964458516895 5.955610308363922 -0.34763217356924647 -0.5814773485223083 -0.43777787861740736
Ni 2.777184134510516 1.7037251528220207 4.972192712728834 0.031000047925940164 -0.8234855189021366 -0.8675434284532993
Ni 3.075614564685517 4.4026407618229415 4.71081674568304 2.0693809186060426 0.33749508513524457 0.9342213893968234
Ni 5.2236095348311995 4.651501729207002 2.737689662769215 -0.44496179796035623 -0.007872974990173537 -0.49992607001137773
Ni 7.373505105156926 6.167664795689885 2.8185049925200687 0.11073458494310606 -0.29506956898118214 -1.6038677788568958
Ni 5.124524912111606 4.743852797003014 11.447600879475932 -0.3565143065502247 -1.4302332119554595 0.3700802181601175
Ni 5.4494822905137825 7.924498147828546 12.498627348753688 -0.43954679759237203 -0.13393210610549192 0.282216624277914
Ni 1.8557641167484427 6.47719111072552 0.5071661075675256 -0.030967652026107958 0.08103988609215075 -0.7188796725645877
Ni 2.6639536161651707 1.656554066448754 0.36370971102555677 0.4388690547990571 0.35672616545071467 -0.16621179207480408
Ni 0.6190363392125832 9.08595491785305 4.417544182377596 0.16442461826739424 -0.22117452146392877 0.733618264326343
Ni 8.562964051167402 2.17293808488949 1.3825544940166536 0.4627461185269708 1.458297060071211 -1.5082759630924991
Ni 6.912899176761939 0.834053952724004 4.547728959376633 0.08962505665800048 -0.7634317481433497 0.28677493307255775
Ni 0.8742507414842164 7.209039836243839 2.601994955343461 -0.8528228344136733 0.9917871036264339 -0.0965788622680143
Ni 7.4779838121970235 3.736543752057075 3.7162589178497836 1.2961270421659485 0.142132125417781 -0.0027929893641048674
Ni 7.350127722942392 3.747033254955505 12.54318827754636 1.6455173360768822 0.34785791642680736 0.24292811109093645
Ni 7.964338347793074 -0.20145818879836855 6.976952117972514 -0.5078355546664415 0.3396756377263312 -0.8800883549978457
Ni 6.65004617186194 0.7414702876678627 0.4173138764844181 1.0634506907100072 -0.7913621560050307 -1.0535696841508695
Ni 2.041615662925541 6.457361515513734 9.299304528444557 -0.31228644708010095 -0.33112054906746846 -0.7431614279300879
Ni -0.0038618385563071725 4.860024720388902 1.3656264817464008 -0.057595024805649195 -0.5777173672592437 0.04004261774418265
Ni 6.4220194026419755 1.751448318295205 6.78105273217692 0.3777670452814139 0.9537838849097832 0.937325996464076
Ni 3.3430652119258104 4.421393350266037 0.4378457887151152 0.4791795814926458 -0.8792550604632727 0.1846157485032885
Ni 6.061937122817187 5.600688610551805 4.766915222616283 -0.16385640446875005 0.7558858174752918 0.950452249433389
Ni 5.492933630820392 2.914859991362039 9.042671011371825 -0.7458616004700703 -0.3649724646199069 -0.4626579296885387
P 0.2627308234598525 5.487204678849119 12.347222823268316 -0.5923947667657604 0.610509216978284 0.5182269252030947
P 3.8326417173508873 6.309712032955508 12.688619488180166 0.3180904553563877 -0.2198925694277116 -0.017807974715698362
P 2.3279003529023594 8.602740897792595 1.3702096433234197 -0.2819461442253467 -0.049877344446417324 1.0540803052387007
P 6.261482040767645 7.796940724316492 5.71034238036785 0.22157509933645708 -0.07389633306883402 0.6137624338082591
P 4.542171966469268 1.029899035657311 12.594358769727062 0.18367652451847077 -0.2010605243228731 -1.255088893277716
P 4.206697933737518 5.967205779557597 8.26499519532184 -0.6697530902412658 0.9818832142491607 0.07359062890295713
P 4.851653029119665 1.099279992705942 3.6898858277324202 -1.158890811387888 -0.06276988413836931 0.5851820510674051
P 0.11884633935352153 5.539842253359272 3.8389200332789635 0.23883260086532415 -0.7349940616279471 -0.5935643615938293
Ni 1.693380457556356 1.3599970850226535 2.6737760989051758 -0.28128022850657364 0.01920151262911532 -0.2794966542435896
Ni 1.7542720671341265 6.536643694452685 4.881495167089459 0.6053950356801703 0.6550659205427363 0.18055597661161807
Ni 6.228927474826617 5.571491771595519 9.339679611602612 -0.3101223495492466 0.3617305606438415 -0.19553290963642453
Ni 8.738914375454177 2.393335301958138 10.283238906319076 -0.7526544550221876 0.2349659188210663 0.7283765563114295
Ni 2.379117002516004 5.340116325867858 7.074073692220435 -0.26048051815240303 -0.2660672682115612 -0.08251415664483208
Ni 0.5171252525109529 9.256013381581692 9.527684266269386 0.29824719537821537 -0.13016158331946617 -1.097701127252445
Ni 1.4706663183634645 1.1964730657225409 11.460727691386099 0.5743445941322689 0.40327778795800867 -0.4431723101601013
Ni 4.127804925311622 7.09453320063475 1.591077485198555 -0.6065486896686393 -0.37727725012918895 0.027137993867372617
Ni 5.597348984521156 7.727061991030231 8.241628673679765 0.5534073297589694 0.3659021755230279 -0.6019482147821504
Ni 5.272518312797649 3.137022051455013 4.764703286025794 -0.8137636636286824 -1.2473678704843743 -0.31901219583970863
Ni 0.8427577965008979 7.538631058894502 7.166824791101962 0.2584241498440065 -0.4255252865022994 -0.006083744300234684
Ni 5.067407351462777 4.581731601645314 6.887593137888513 -0.25858150135747726 -0.09471866913082397 0.3129546767917191
Ni 8.10229476943308 7.540124387607395 9.026987439695647 0.2132969184880649 -1.726127847941098 0.49046029661278767
Ni 4.622558303608056 0.05204295816811139 10.383248487792958 -0.587161286280963 0.9936886915245209 0.045528580559418365
Ni 8.188156645185801 7.231150151671677 4.922890239010804 0.287207392624286 0.2288351233329801 0.15156524580622285
Ni 7.2744476338684745 6.179358012035675 7.153233689719242 -0.2920819471077679 -0.11974990106783893 -1.2493635607581643
Ni 2.212579174358966 5.250000725902659 2.5762970308138655 0.253820332523408 -0.9313114148388799 0.3321003964822345
Ni 2.33917724730395 5.302258180376803 11.496956751008545 -0.5694492137131806 -0.7857826050347241 -0.4975570555585689
Ni 1.1238972902760276 3.4344840805858965 4.2067431861227575 -1.1180403530304295 -0.27934135961264794 -1.128564906710837
Ni 3.706441865396007 2.842736739767917 2.574614547130675 -0.2800350432455629 -0.2341367380515516 0.09126979135027506
Ni 0.9561014458093414 3.237066024741677 8.339505057713474 1.0566550079444126 0.8288969197256949 -0.6550170695826719
Ni 3.9621178419970797 2.4460905326699134 6.928100358011466 -0.214056936582541 0.055524772540181795 0.9635502202679277
Ni 4.150159603619752 6.835897718039038 5.943529731600485 0.032939688150814245 0.283302401142925 -0.15463719986332725
Ni 0.617501378305272 7.355304595813748 11.051921263326635 0.2680840415312738 -0.6361806536024592 1.1272906679841037
P 0.15062889960237058 5.710199382830494 8.115735632896806 0.43658591519183526 -0.4456439116290454 0.01228910177999819
P 8.490243468088122 1.7197535476737198 8.172495699702242 0.03427460491215387 -1.1139903513307718 -1.5719151372096993
P 1.8678646045613854 3.2656383807816627 10.525924733213404 -0.26091966257235066 -0.4753216411991362 -0.17553924012331704
P 3.919852114183734 6.25779849660918 3.733929974285663 -0.05442022662209338 -0.2567259362059772 -0.004948088033894704
P 6.932964084376967 3.776374901544555 10.309162187727164 0.14759340564266837 0.8237243743858201 0.9093788764318467
P 6.315078965844868 7.702073623901185 10.350781711479295 0.3231154193748048 -1.150990839814521 0.04683572940661611
P 2.363043355279066 8.501819028232292 5.90906279985925 0.7139840350351833 0.12058499537462458 -0.9738737136811227
P 6.920284366032964 4.104029322106984 1.4108752467947094 0.01851399964378747 -0.7032957020834016 1.2403839829673735
Ni 5.3343330710342975 2.7585401517919954 0.3338214156228176 -0.972108908471216 1.5930717166826565 0.5494840834451634
Ni 1.4218842470756845 0.931058775818008 7.17475934432979 -0.09116051946592042 0.997727894590901 0.09761064596663835
Ni 6.999186424935907 0.5756782188195652 9.176604495964071 -1.4075846213180083 0.9158493146475387 0.907529996148566
Ni 2.751046356796396 1.557080273216103 9.243087490261987 0.3034840182971225 -0.7264472004992005 -0.6537765123073515
Ni 6.371019964477478 1.9083202369651657 2.4079898343939776 -0.1148735468121441 1.1329689493158037 0.5850054162802247
Ni 4.20252566381847 6.6789986479379335 10.48288699970788 -0.04906976094345743 0.7256036215519825 -0.31994293518409417
Ni 8.488931148916187 7.0895916401666375 0.4211793352315444 -0.7224079974328204 0.27112694212265565 0.07387627846417599
Ni 7.611623156285216 3.8460726252898603 8.084593846422942 0.42374016957741867 -0.032229292347350946 -0.17029598944650673
Ni 2.867897065960872 8.418980011813543 12.50134339691574 1.0922709573758094 -0.1408712564274864 -0.7888242200745254
Ni 9.157815705612785 4.7890599298569025 10.160922614065418 -0.3320931973933829 0.6830773181539977 0.39239816493102747
Ni 8.709509375525792 2.1042087621883026 5.7956349811142625 -0.0373028502155164 0.8228712823569054 0.31538539772039875
Ni 3.913064256397865 2.595423403959036 11.027163683362309 -0.01616221158215926 -0.0974826050292063 1.364843887916372
Ni 1.0753414809144435 3.3545140653913097 12.71846343624537 -1.0111475104309169 0.4225788022794658 -0.9167749117856018
Ni 3.32304555669602 8.235843608750793 7.967443566468184 -0.9454748508234556 0.37597910014305574 0.4963540363894032
Ni 5.652991317411188 7.7807132189697406 3.4015140977483727 -0.16065640947421367 0.959024307373116 0.6299832665424957
Ni 2.9738510007597663 8.397792845044584 3.470209933684483 0.7893767501438856 0.14168218236455601 0.8941186078386667
Ni 3.3252086207104505 4.151571478039212 9.157609354736094 0.3569051142307402 0.10960227111087577 -0.1132169850453276
Ni 7.103628930067814 6.041039571313758 11.74158933551586 1.2476375792059933 0.7149677391046912 -0.6028352453727941
Ni 0.6610785202428473 0.15041621339174668 0.13990046410987816 -1.0143184519597306 -0.5156023430960539 0.6211134748566917
Ni 4.514178840960344 0.43931015590145334 1.4744575631987986 -0.4644006234112583 -0.1921935608505464 1.21138116797712
Ni 5.684912349958869 5.676060983406096 0.5131502829915479 0.8614378297761939 -0.1392144375503538 -0.37691652435566053
Ni 7.752611487736243 8.575526113309783 11.641977069984376 0.3838003959596874 1.0326954118050216 0.2778691459424957
Ni 0.06994118157789125 4.8242391341418 5.923965315366201 -0.5244970744825225 -0.3771610362662988 1.0196432066067536
Ni 8.143573995248213 -0.03193008302472862 2.2442920459345466 0.02230380570352288 -0.8766628742560643 0.6820938711948059
P 8.729655737434252 1.8458447939040257 3.4764484275135494 -0.8335974105251579 -1.0453215852094642 1.4879259386812376
P 1.6324435955933465 3.257004225678037 1.561591936024444 1.162431734661611 0.6592976992358969 0.687108550800578
P 4.876469437184801 0.9427700931178943 8.338604535247214 -0.30594662090500213 -0.21333934169022614 -0.9637353396955401
P 8.340774839643283 1.5882682171229099 12.341619672928008 0.35829530971004747 -0.17405622781988733 0.45861666973962945
P 6.525095285739661 7.677103357726233 1.2710987742203865 -0.3061229985818663 0.3818463575571101 0.43048880115516186
P 2.014509484167303 3.2460712494042636 6.386339706976332 -0.543389026291019 -0.16835814899384555 -0.6739373035259426
P 6.881711232855132 3.8674679530309195 5.963690574272221 1.2520051121460698 0.1838251342811931 -0.014659658894703786
P 2.4376735890154357 8.39177427780778 10.262151294797642 -0.15718979108185185 0.6958580148584338 -0.39069712307952065
