# total energy = -340871.20413062867 ev
CRYSTAL
PRIMVEC
9.19769574526081 0.00000000000000 0.00000000000000

0.00000000000000 9.19769574526081 0.00000000000000

0.00000000000000 0.00000000000000 13.46175744052170

PRIMCOORD
 96 1
Ni 5.5745394308997955 7.515087672402734 12.923799087592524 -0.9025988773955358 -0.939055063340041 0.765989738678513
Ni 5.914477067559355 7.401376560034377 2.454912819614896 -0.42538901803475127 -0.3551973875110141 -0.6313261537236353
Ni 5.353840721745162 0.09321772650182542 8.407661499126426 2.045053911824904 0.41371852367535844 -0.3706201498239875
Ni 0.35161227185564065 6.525921484612148 5.8077387283274895 0.545562379793254 0.42721707238242557 -0.1685396688770323
Ni 3.427006244582693 3.672244405957563 0.464126764008911 1.246685499705369 1.073963417315873 -0.13856420556086457
Ni 2.9711132577955044 4.8936432133541246 9.359852030293862 -0.08774609446773275 0.8288655522671274 -0.19777439737243357
Ni 3.4044167038582183 7.393760867966027 0.8052177917136042 -0.4182248961861443 -0.0012526414601784878 0.564763378201737
Ni 0.8621855597857465 0.4418867357223553 2.2112686189108532 2.3803859278705586 0.41669329003296623 -0.30232367944043415
Ni 8.405728143482987 7.876345567775377 9.718338659941631 0.3335844372269287 -0.4133503417026623 -0.7090413463179273
Ni 6.034525392288936 2.5102811083987704 0.5173262361385382 1.0783078103274977 0.47746902655944223 1.351820993294143
Ni 1.8213553024766869 8.29565931862558 6.837172428044686 0.8974654128237125 0.8692526978349223 -0.6265734695299983
Ni 1.6494043807160748 5.4535713365967435 2.6184460102390914 -0.768482937414012 0.13941446937630184 0.8062580992802567
Ni 2.6575730078945954 1.448949799873562 11.051577768394107 -1.8245789875311609 0.40105532638539315 1.9331492178330967
Ni 7.7614019641785665 8.517737682140423 5.256923682018832 -0.9245257593756141 -0.464834111404251 0.052083093848484495
Ni 6.427966025037368 2.5020399730204606 11.663831582671556 -0.21818612825956618 -0.03274839807561456 -0.4612181119182186
Ni 7.856027857897378 0.4019641373857981 7.6991151686630355 -1.9344396545097458 -1.8051530175960653 -0.4319044505557658
Ni 1.8362647672626697 4.241949679766192 6.776661707575529 0.5641884795348736 -0.2825115298105135 0.6118230506937011
Ni 0.9214803448787734 7.224431289489811 1.3194296880763658 -0.7454026585557808 1.1392630098546315 -0.8755814682664276
Ni 4.618567727015819 1.8784637952935705 4.784052668674922 1.5182477295932304 0.030030742034135374 1.058731687967783
Ni 3.9180252313807817 9.170498148433582 5.636343347389255 -0.16574385129945002 -2.1203597236467546 0.1171101494521467
Ni 2.312613429363878 4.599022623579536 11.634956336681972 -0.6919630506794018 -1.6455834134281273 -0.03191793175451923
Ni 5.7391413937683655 7.471619362360442 6.252219214247036 0.20394504495951973 1.2694117376582912 0.11020596613314568
Ni 2.1067873942122883 9.203490283034027 13.262765447582494 1.4156031207471105 0.6089922661131254 1.1035730126521897
Ni 1.2835292420846023 7.0966477026473305 8.638571490085749 0.18056009037667614 -1.0705837022103628 1.3465715719697455
P 8.59501672170355 1.2305689100440778 3.52358848818428 -0.1530513434334461 -0.35675110515137914 0.6829089108969336
P 6.19781208466744 0.6146194616204186 6.1949663176071175 -0.9744390992662895 0.24763194432450902 -0.40447977868590984
P 5.710104268333851 5.526683819992042 10.589354927402283 -0.8912669973224843 0.2459175327365636 -2.3292952798423303
P 3.6353616460613316 8.422504740503118 12.10811063905451 1.1847684504855984 0.9110117840495794 0.476016867493948
P 5.641001980278891 0.38149098644988233 1.1552802518379444 0.12592774774377666 -0.18552591902238372 1.4238594472186317
P 1.155129409627895 4.755990498988288 4.767804019389963 0.37554715481195966 0.27056669874381145 -0.9332307433487799
P 0.903417909994928 5.5557761316009655 10.358324446628837 -0.7092339219447076 0.17931079135060732 -0.793352446962182
P 6.521764126140054 1.2287845570715419 9.967704747162244 -0.10000665700264068 -0.3289934754221366 0.13765840591714357
Ni 7.7124610251741155 4.398871566696269 4.505609905928135 1.4389968170807024 0.6972325266084572 -0.2925023224746382
Ni 2.518779779257653 1.401057398182869 3.709360787325457 -0.09539821169635183 0.2752098539427777 1.0413212058008197
Ni 1.4512584215029771 6.700475354265686 12.446148951544853 -1.0583701908633063 1.588372511434774 -1.5721352236403052
Ni 4.387990692642094 2.6503712121343086 2.485861226223086 0.7876589961218305 -0.05188331913285258 0.2985629268464213
Ni 1.6435454485330574 8.400135944476277 10.894815921369814 -1.046718979777623 0.08975541158827768 0.020854731961822148
Ni 0.03118202807985165 4.561891525898466 12.589718543576835 0.5724509766539819 1.0702250333193633 1.6519337811261872
Ni 1.8448738104703688 2.9928474128166505 8.826214600539368 -0.5194057760025442 -1.334493814869605 0.31294567793065453
Ni 1.5358956176538812 2.4747228166883386 13.269120135565615 -0.8274419324467234 0.022434160633800073 -0.4442786558504026
Ni 1.9017799539810887 7.783062537633835 3.6327357039290686 1.243406057623149 -0.1966009458896227 -0.05184398125448491
Ni 6.4497185754499835 7.14992995403857 8.697749464442945 0.05301074786907645 -0.9455409281747006 -0.11011006398522973
Ni 6.712073648587169 0.22165067066317767 12.805348402612063 1.7152798494830008 1.3565309971753026 0.16811826506889757
Ni 0.4502465213756433 1.5609225477480573 7.221155990038677 1.5465627744878396 0.5026282994338892 0.6004788293254755
Ni 7.247719855090126 6.575405087664948 11.448658849114342 1.5997846099264577 0.7034929056958723 0.3653581300940998
Ni 3.3604701136377204 3.866131832045485 4.7384578513787625 -1.7368058964802346 -0.02539915679939497 -0.5182971163193978
Ni 4.616847757913425 5.846018618205826 7.720681005852236 -0.13255810857610073 -0.505547015742581 -0.5220205879175719
Ni 6.14421711162122 4.725555323802095 12.484797669022148 -0.8466102778450582 -0.9948089211718932 1.129174772380694
Ni 3.6255293093209144 1.7941761115805857 7.563852015649079 -0.35082831190904096 -1.053246753593812 -1.7839576144653726
Ni 4.383796543387061 1.426617794629659 12.843243828808687 -1.0974784697186777 -1.1988190150413933 -0.24067839582481132
Ni 7.406150164120697 2.306782090268065 5.259024435724642 -0.14808474345679015 -3.127247687470369 0.18968185017228623
Ni 5.98224568973278 8.57093715427005 10.731094177983056 -0.666542039503136 -0.6258759292423415 -0.40828526847492913
Ni 0.5181521892155162 2.7646433839424844 10.910969834388705 1.7644174875499163 0.08739411044495271 -0.46827527587531614
Ni 1.4558112808916641 3.19573018533313 2.363534632260015 0.31264331619888736 -0.8308717840638787 0.3139396664128077
Ni 3.765932134711433 8.99597187186725 2.400029249396242 0.28636304234611976 0.9678498760845462 -0.2843460119160909
Ni 3.519700622197213 6.993173625631718 10.679979823476492 0.9213723013482972 -1.5353635633379106 -1.9805652452232148
P 7.072862461477342 6.437458047035601 4.579460964290932 0.003368659361916779 1.5937818553758036 -0.15176064964648056
P 4.020248421776473 8.019608876539394 7.588392387638889 -2.622774364407941 -2.3066325481374923 -0.20860285544650525
P 2.232105998597864 1.3286807304463484 5.943662275895199 -0.19264504656566822 0.38855925080091147 -0.5858680213908362
P 3.979337071148433 3.2807076962262185 11.710261550740427 0.819969278218762 -0.7549399086222547 -0.008393623380333932
P 8.149719480402759 3.4521987332000945 7.0248026617242765 0.2951353892221111 -0.1861985196093761 0.7030249649205182
P 8.48564692172198 2.5663410639018958 12.57617585637703 -1.08593447363482 -1.3935065459583873 1.181132653505224
P 4.193211090067904 7.533676215482606 4.001413380450911 -0.46399541755303964 -0.02028060462590701 0.8582915708377282
P 8.53811057819283 7.5743208329343386 7.455458091184964 0.1760262070620646 -1.0496649497798247 0.41602068944597387
Ni 8.890327138658241 6.879554490220707 3.368239407224839 -0.897300348000758 -1.0195035957050957 0.3312642737341843
Ni 0.6330718788034161 0.08143271895692719 4.938257556284962 0.7992137908389655 0.6577108143647512 -0.44907736279062654
Ni 3.8635104887610896 5.849900045805878 12.708020225886392 0.432970429926435 -1.2841724409072337 -0.9787914626977142
Ni 0.02357185462894337 0.4960694415260241 13.40074835922521 -2.248326099087115 0.4112970587180594 0.15048255426500534
Ni 0.568095677055052 2.7251852692405305 5.18595334196015 0.32205792464456795 -0.14270111054737358 -1.2866072756009714
Ni 7.073837417225222 2.4906532257008758 2.839878695513356 -3.151096726173825 1.1964186331300168 1.4044319346216394
Ni 4.236339085368011 2.1681636178500825 9.73446589964289 2.2096453946874655 1.2158129784962286 0.9040716052863204
Ni 7.543913250835351 5.958745577130568 0.4851876477022755 -0.0075549295291224726 1.3913177658371845 -0.01600743117184985
Ni 3.323283829782243 0.022421222892529756 9.416768291269888 -1.2215426818911543 -1.4422482341384644 -0.9118247668691779
Ni 3.971555820556859 5.750270605607379 2.73390836387534 -0.2385821754174149 -0.5071207879876041 0.5034351116059007
Ni 8.650938711770655 2.372554812467056 1.4347540762765936 1.178373602702848 0.6405134766498581 -2.443904003028862
Ni 8.270816342446098 2.0939566086623524 9.183354687531576 1.0210367445201707 1.8428147938128971 0.049145351376399235
Ni 5.933553088513167 0.26542986282130343 3.4623097601212733 0.4186979791678208 0.8478186963308625 0.4949586987037734
Ni 7.4769816189737845 5.6811775152481525 6.657970042966819 -0.5700511089632376 0.6125049072520742 0.29296794925714703
Ni 0.06023111051882146 4.959415935553115 8.296804431744553 0.020303744554358582 -0.34596224206599124 0.5134703843547157
Ni 6.130834464327201 2.2340743054850942 8.107464346427877 -0.18319418556541353 0.0980482477246892 -0.5350236850454592
Ni 8.667135853959499 0.48721849892050195 11.050070266063187 -0.8909607789359753 0.9495523633269388 1.3949093398431847
Ni 5.000078948396317 5.609674628606431 5.1016960106430895 0.6519021781027741 -0.06179492181960971 -0.7220323592609564
Ni 6.432454500555911 5.110156970949459 2.655210119860345 0.07193175314329547 -0.9155580086593652 -0.48200368120500214
Ni 2.764588197768076 6.077524619848757 5.529632601244594 -0.07071279313452983 1.6106598620780646 -0.2043479368248932
Ni 8.027150987041866 8.688621671195806 2.148725207684323 -1.5298693729925588 0.16386977420518875 -0.55340064489075
Ni 7.9949038657959335 4.312624773791788 10.73311307219683 -1.0614596284219073 0.4745464535960086 -1.3570254203132177
Ni 6.755514365542258 4.487022282617836 8.591347760874969 -0.9688477212214411 0.5649808935291818 1.2252679532615414
Ni 5.966867142464326 3.7167704510093484 6.371638416588363 -1.5543778996568842 1.2412458167470364 -0.3079453965025858
P 4.3028292278343105 3.649388132056781 8.197806873243028 0.639037406324964 1.7600239864679106 -0.8882189545247801
P 0.8413159881636643 0.5242226684004321 9.383087249258914 0.6613198718722482 1.1622756686997209 -1.0126253805280236
P 1.915291369015394 5.323543511994991 0.3763853455475386 0.5057958985285934 -1.484286542156437 1.8785032483534423
P 2.848038891169201 1.6970116538389917 1.3883517012949254 -1.1909650662146134 -1.0079853106528511 -0.34081540775772917
P 5.429537757641918 3.6787195837548072 4.128451953938879 1.3606861569942568 0.7211111329982678 -0.32365792214183614
P 5.113495734501163 5.743970184029094 0.9245155844712314 1.5589693756823086 0.13331427001583493 -0.053279942370063074
P 8.535332874080943 4.748834691706674 1.9129698706119502 0.7306380986520965 -0.8552031617203916 0.5912028033401884
P 8.5803280016152 7.793934213992276 12.664632855566564 0.39685311537858753 0.21626808530124692 0.37677897033653174
