# total energy = -381172.4661980132 ev
CRYSTAL
PRIMVEC
9.23706374825615 0.00000000000000 0.00000000000000

0.00000000000000 9.23706374825615 0.00000000000000

0.00000000000000 0.00000000000000 13.51937649227976

PRIMCOORD
 96 1
Ni 0.8015443701786552 5.439143453993892 8.71810530320328 0.258233116879123 0.20371493122658463 0.6522557047874509
Ni 5.834111068145341 4.5915781841864955 12.497960796529311 1.0340825219605352 1.2492008099280552 -0.4833895058089352
Ni 7.514610098585085 4.934753581201267 7.875942792055281 0.5867900189844732 -1.412653036979851 -0.6406962820846256
Ni 3.8932007329941287 7.706805686593439 1.19728697398906 -1.0710706691491103 0.4221630548982859 -0.2074540865540427
Ni 2.8094345028867553 6.498514598412311 5.098548892625274 -0.060931031157417645 0.5958379881193544 0.8207964021057477
Ni 5.17206298916602 3.4859570609552812 8.254593132874835 0.775411289102729 0.034503175983192184 0.6122377696336165
Ni 1.8982535741850672 3.3673069755048415 11.509978300254428 0.6076694335366437 0.22689651154937052 -0.00014552443892878162
Ni 8.08970969532657 2.747038136423718 8.922396826353507 0.3582397738817637 -0.05549109108876894 -1.062762663504047
Ni 7.458208586575712 3.399451957783357 0.41263257510243506 -1.5499738570519177 -0.2452279628687067 1.1947846970710199
Ni 2.108248984276955 6.805388334405656 12.851046639373571 -0.0074312594670646204 3.4969797782624483 1.3190774803145346
Ni 5.594030541018647 6.912870809633474 2.6669407844605884 1.1633473044973448 -2.8820582911490815 0.646421357493861
Ni 7.491323460560908 7.132047861215259 11.99854138780682 -1.3423536772336557 -0.3998127122275437 1.3269370855682694
Ni 7.6828262687787765 7.9910024307782335 2.144484138438495 1.5185621755098555 -0.6646520215692747 1.0313838920824496
Ni 0.2933479033639107 8.54384070358546 6.0603988114966665 0.05779479952128111 1.0249021410128478 -0.4038719698985818
Ni 1.0603410361250984 5.375786432888049 2.7343482580748026 1.33155272996341 1.9020938911891887 -0.39284065178508476
Ni 7.217841710468952 8.178006788889883 9.526671689338295 -0.8100299076178631 -0.3141075594492397 0.46542366535913393
Ni 0.255550761701423 1.0945089353918307 1.5431014001523866 -0.22569426371115325 0.10041391974338834 0.06271769074419521
Ni 4.666980336582911 7.878818290038988 7.625523219335386 -0.417676479881842 0.04859822062367759 -1.0040867469293933
Ni 2.971702003946146 7.4673255686185 10.793518372824009 -0.8047380630913044 0.18172480010873862 -1.1580652301627992
Ni 8.395890651529431 7.2069235009709045 7.664959016128967 -0.001566316045855367 -0.15575640106943497 0.3391099950308482
Ni 5.941907603544845 3.326793213357264 3.405963164107531 0.7117366337619032 -0.04391161378128566 0.6837931132740998
Ni 4.804280053993213 2.947473185406909 5.923001181209309 1.7881582828102818 -0.6656920327980148 0.151631580267784
Ni 6.554241804758945 9.16318583627927 6.744235276739942 0.5894140868708816 -0.7332691085170404 -0.36491075814403606
Ni 4.823446961529971 8.713774967659553 9.810363166129228 0.47777498783563527 -1.511468758998184 0.665936287598337
P 8.54301860490075 3.065162616214543 11.24307888187847 -0.9658973803438655 0.45480063842764895 -1.6582183285833185
Ni 0.9080689618828286 0.7087303523813785 11.730843887112224 1.9976252860292951 0.3589871935707495 2.7219826938790024
P 2.0144281265175064 8.970602291588245 0.14774776035720752 0.7216400089185443 0.8566190682313118 -0.7981997477521544
Ni 6.418641707101299 8.402495152198723 0.4375005984616934 -1.420617029021934 0.00923977343071312 -0.9382616209044681
P 7.156516843415198 1.138126351000782 1.9905798750098422 -1.0094181864446359 -1.0493196506252638 -1.0811301102676414
P 9.14510890227954 6.2714398572189936 5.885336129560208 0.5719619528327052 -1.0225117864038005 -0.4155704892824327
P 0.11433083438336115 6.214558017888218 1.026417919051004 -0.9102389104392969 -0.40266946495004846 -0.9600553197407917
Ni 0.952128832851303 5.691416905433126 11.268887238340014 1.9363016474191492 0.5046764402121695 -2.3178163326684533
Ni 6.730669724735853 4.111620345338317 10.208643191385583 0.8299490151392931 0.570107673232786 0.8830425525301632
Ni 4.138213852229077 3.2710013475635193 13.26445512784135 0.2443100790401276 0.2705515292351599 -0.7726686933605854
Ni 2.7333580448276025 3.9617120357411832 9.412000931004401 -0.7976901551055875 -0.6490001739646306 -0.9142531738050126
Ni 2.6198899522099923 0.825188482574723 1.9968121220050477 1.5215593104649667 -0.35231672352910937 -0.2043767331802996
Ni 8.397793486687297 0.3937095260519274 8.057778089223525 1.5121364744891699 -0.4184377835278987 0.460651183671155
Ni 1.7044784482544073 4.781270527885229 0.041240719074393056 0.4813801886883903 -1.6246294368842795 0.5663988569226309
Ni 8.091215336737893 0.9302831767913349 10.888735874641075 -1.820802294097548 0.5122848486870468 -1.7311893216244056
Ni 8.163615443375537 6.109735817055864 10.079858199453538 -0.32662703207248905 -0.9233127129041196 -0.7637857890486588
Ni 5.95420213555999 2.049741421704508 12.193072105562305 0.029548403081078145 0.9956252464256014 -0.3555054056697361
Ni 3.543734895481751 5.355455655303275 11.69734290385713 -0.7016849059528562 -1.5014018616804852 -0.1689685288843348
Ni 1.9820891658976552 7.019291022515881 7.256363037939094 -0.600281882823321 -0.7015545510225788 0.6878785961973831
Ni 7.788858524978512 0.9786114949755856 13.15361036136371 -0.18303426294878153 -0.06269995013238235 1.4063790310456812
Ni 1.780989048315598 0.12499871945044663 4.0358311599656185 -0.5610514765677885 0.08529917558913697 1.0902783524258126
Ni 3.2458765338285875 2.1695738513307092 7.512933571492111 0.37047925337074905 -0.3757566997196045 1.1868199336979883
Ni 8.604177204804788 0.015886826155407666 3.7829379015404965 -0.22021087199907882 0.4229055894912652 1.0627616350627824
Ni 7.911120302403348 4.9289249938973185 2.4526990961062194 -0.5873407492816207 -0.6607218332769331 2.306633062358124
Ni 3.664842039922445 5.991085731605423 8.802330699011314 0.24918463352360956 -0.06571816813341584 -0.408339004531
Ni 7.952724038087955 4.065536633675238 5.166389584535139 -0.5498478945424853 1.268351671824893 0.11468225673694442
Ni 4.890193985077256 7.819738029506407 4.989312298967949 -0.24567662037035107 0.8660904980568569 0.05689311364261815
Ni 1.1760537352638807 7.8806841769413625 1.9175479532032749 1.2370235511355727 0.24218917604238288 0.8053065340002646
Ni 3.197492793261098 0.963351865457164 11.030864729044255 -0.30316597283607144 0.35078486026561523 1.6895482490448512
Ni 8.193903775815551 2.2290328314820895 3.4046653566333553 0.7455615527311482 2.190347722800118 -0.056940679051101936
Ni 3.9173002326391417 4.26175958153228 4.311869729337658 -0.5793698152610022 -0.39356904531067705 0.8044799243339112
Ni 8.771802202910598 1.9356821569990168 5.711287677237018 -0.14452042314429953 -1.2793377385227516 0.30679765605138776
P 6.002955358682406 5.278159904812867 4.385091010953625 0.8241023265505292 0.29482120041580195 -1.5715009324904161
Ni 2.2053305255836206 2.5868489747357826 5.452013455088334 -0.7504942141460752 -0.253356505513112 -0.7103886043744411
P 3.132842583213015 4.44455183851778 6.7670425111491035 -0.09067509518906965 -0.0944453608647793 0.16573948042407585
Ni 4.5683562056094305 7.32470530241727 12.451103018913663 1.0370143508953493 0.6172383081720014 1.1825272198599053
P 7.139123452142082 2.784965520686817 6.924246253793241 -0.511415558708216 0.2721317292380862 0.18519630359710687
P 3.325767899267346 7.998031836385691 3.349776875686403 -0.05405255887002949 0.45192331687985393 0.34139107775554106
P 3.905449079689908 5.662079990572044 0.40872160225854903 -0.5325641677613732 -0.4400196234637325 -0.42341338236561915
Ni 3.395673998659244 5.875585484935724 3.0005853789710577 -0.046814132140061304 0.5091889833705424 -3.1742891051298883
Ni 3.213509862017117 3.440178172400016 1.8878591062086265 -1.6176262660935692 0.9458702864896614 1.0878486599383976
Ni 6.114751542738977 9.034559721845842 11.650931276426556 0.1210421375167012 -0.18237143255380203 0.054304012759203255
Ni 7.283720450012162 7.2893642960386495 5.057463356223951 0.26340026290235924 -0.5428866327333037 -0.4085760602424705
Ni 5.2618564870767806 9.068801517623559 2.698562025217497 0.19863494560051595 1.445408634144317 0.010866253290542577
Ni 4.591328783461921 3.4878321849215284 10.726665123042183 -0.5849503946725733 -1.3635472805921354 -0.16022600680501436
Ni 7.122311995892973 6.00741686053313 0.753912526610439 0.11179259389397521 1.3959886889502926 -2.2147240947619538
Ni 2.6969640131674444 8.994018248506645 6.401640891042791 0.6046789834497522 1.2395977396206521 -0.7115877668888648
Ni 4.890166273885637 1.9560314087115367 1.8460844848423663 1.470663552056364 -0.37005579268008526 -1.3251313998180985
Ni 5.429721648843293 4.535379887582332 1.3798686259182529 -0.21148249098714544 -0.13376806972380187 1.0415955425081287
Ni 0.7685080112363821 2.0272676453011664 9.943014792998568 1.3469896333437705 0.3585413642825825 -1.6295240459724194
Ni 6.410309875487729 1.0338398998730696 8.835859393458026 -1.142389471298755 1.6171166734470022 0.559202596284508
Ni 0.19123493336554737 2.7095633682904023 13.04899691817489 0.7883339107016681 -0.8397986542398633 0.5045730818650859
Ni 0.442688133532847 3.6741068149872014 1.638697621588252 -0.34519656754456035 -3.005737609178314 -0.05804239675571295
Ni 0.6166543759875655 3.6607038353072796 7.14559863391715 0.2794246633550736 0.331815518251964 -0.26945881039161335
Ni 0.43640970121827605 7.230958341168805 4.012320984995711 -0.34102058178999983 -0.7173182416147388 1.1055288508269798
Ni 2.369260698140176 1.9789855124362812 13.429973151677697 -0.6497897597454616 -0.9491985795319459 0.1326907774992231
Ni 2.685020489579479 8.99853517274061 8.994968742379191 -0.8218796078675974 0.7925865153304349 -1.4882779227040175
Ni 1.2600648311900584 4.680411027454451 4.776192913874167 -0.5074869130777713 -0.26623747524083824 1.8458939469588533
Ni 1.121361080071039 1.3362521340156892 7.443309202548344 -0.0018697062188871023 -0.29424295931482874 0.1723968378395934
Ni 5.415164036179229 6.37974443113152 10.550048766962261 1.2654671511882463 -0.3847779293816083 -1.3387176231429654
Ni 9.166492705145853 8.341401211741797 13.567370781965057 -0.8213641016837595 -0.8384909911720333 -1.1934302399256542
Ni 6.3554140048896794 0.9863521545012742 4.635456084996669 0.5901468512718481 0.47928293983972947 -0.656832782635172
Ni 5.270945757927947 5.773368136115594 6.259430750477529 -0.9700283717931036 -0.5424839979782463 1.3503852892888808
Ni 4.422900160799148 0.5027170405251998 13.277785134716673 -0.6305993028599397 0.09875041599803638 0.20312074928601145
P 4.347525719594353 1.433943321537982 9.398292204510279 -0.15297575300050426 2.7003082942293624 -1.393436354842084
Ni 3.954950504986047 1.5499793179123242 4.086853929681663 -0.10032084580894982 0.02048295044470021 -0.35050409580040276
P 6.210308968506575 6.498431464837452 8.260001433772555 -0.7791735843586387 0.9309758858763321 1.2868001083380678
Ni 8.637255130534491 4.8999760357189075 12.467515434003452 -1.961614415152325 0.025138446938840577 1.0576525959709915
P 1.562735703121126 2.4474986291456435 3.1098487601136156 -0.10713426918635742 -0.1968269458574997 0.651396185000633
P 0.9416817136107855 7.787713129058242 9.099000250544005 -0.5714605877162546 -0.8418154275595761 -0.2891622023578117
P 4.657355316027101 0.6314881768614355 6.010917707741048 -0.624043504019293 0.20000817179895877 0.2737623228629737
Ni 0.02729460003873139 8.103629950583388 10.98877881862547 0.5382437346446537 -1.3486289687194064 -0.7051862342378952
