# total energy = -381169.178894812 ev
CRYSTAL
PRIMVEC
9.17662775472390 0.00000000000000 0.00000000000000

0.00000000000000 9.17662775472390 0.00000000000000

0.00000000000000 0.00000000000000 13.43092230678428

PRIMCOORD
 96 1
Ni 6.694909610325722 1.995760500879939 9.080941988850686 -1.0153954870739934 0.31578597559292715 -1.0001329044879679
Ni 2.2424833106014255 4.811737153501163 5.9287043356646185 -1.1048850465953939 1.225998917890295 0.0349654603315914
Ni 1.431361196814243 2.2066761096963727 1.748813781444951 -0.6078123868724112 -1.068636862896637 -0.733342127846821
Ni 3.6206384205762285 4.209548496968268 7.746888833470857 -0.034263034947928095 1.1147051180096093 0.3475100461690854
Ni 7.206240476966017 3.62395118314074 4.717584954299256 0.5875675205804461 0.6186403307258508 -0.3512759409694208
Ni 5.61001198864481 5.085457601629277 3.8588655084632975 -0.843664822063489 -0.19081776354894234 -1.6901383172203668
Ni 4.310509753851249 7.927835411862965 6.622801505950601 -0.5969841859086557 2.7687428328526766 -0.15870237107163634
Ni 8.298727169674217 8.873771361758841 0.2696460254725938 -1.0739302500850925 0.5203246882723878 0.3870734102840043
Ni 6.641932939176345 4.294735131002508 13.329169053500838 0.38665997689566955 -1.4708309308721637 1.846948870585929
Ni 1.394636333148938 7.082016469110636 10.756328984534033 -1.1830339842929947 1.7242843669744563 0.3427175098764485
Ni 5.184812948681815 0.7520182083875998 4.3271882745188375 -0.5037865814080486 -1.2148426441631592 0.36347608258003855
Ni 6.102787714272798 6.053857935896135 12.046207689960825 -0.8004252946485634 0.35285356986918587 -0.9526284311491011
Ni 1.0402533283946285 9.087302309441995 8.862635524163178 -0.49504380221841193 -0.28486666030625135 1.146733607200064
Ni 4.962041137002919 8.112157153887281 10.868611446890249 0.8087798372608459 -1.7648784863467348 1.5075856218936938
Ni 2.3787654071265236 4.3207049871176535 1.5916989049366004 1.7565313999336198 1.1312388539985743 -0.5679831706906153
Ni 8.395981069005778 2.246144785014833 0.15054349348218243 0.9734373974746527 -0.01917323049434117 1.1145511089302484
Ni 6.5960956843017335 6.851517936990414 1.8514791380737194 0.5922669829386445 -0.3649624373175779 0.2739505276143798
Ni 2.269306593083606 7.196017713816803 1.341586248978741 1.7392808403832885 0.04642383868017811 0.44892052549778816
Ni 6.201555757158775 1.4817500589797075 0.8395329528445997 -0.9243948902247047 -0.375653855593153 1.0079344028102575
Ni 2.526481581644368 0.24994655899825347 10.724899952658145 0.6633132481531931 -0.14992411065837408 -0.1954123248981602
Ni 8.902521736037553 5.9401044601352355 9.33525662258774 0.6188311065804181 -1.0669242510809045 1.054208346176133
Ni 1.1797747744634184 5.4635254822257036 3.5373687840481565 -0.03057710145590863 -0.0863463859067287 -0.45076323513348177
Ni 7.5649640265763205 7.458570206152646 7.800531727784177 0.403596347639692 -0.5521521171956296 -1.34502119676349
Ni 0.3300163054813249 7.374108525699006 2.496257440972692 -1.796446748071319 0.06760252964032229 0.6414012785714502
P 3.4693066547829887 8.022464795700202 12.764386166401355 -1.1264784564954535 -1.9010657070349903 -0.5130695493718712
Ni 4.705627808533166 0.9056046715827796 9.90149033451118 -0.8142691425101913 1.72757486480027 0.13182560128545037
P 3.718204325246274 6.003331424316633 2.594276671046302 0.7195671855499156 0.555487866437082 0.2996145080393872
Ni 2.9860195620960113 0.6720218749253487 8.104782815945894 1.936754932906484 -0.4130536363978499 -0.2822994137997074
P 0.8764624553054411 3.4876415567328336 10.884445717818405 -0.5033713482475007 -0.7149235161303171 0.09540849610899697
P 5.444419743557247 2.673839867685714 3.786740886158492 0.1897420139862603 2.162634058934934 -0.38790156261225456
P 5.034132723448355 5.434508985746519 9.640500621856049 -1.012271853843347 2.409674906642663 0.06429377698206347
Ni 0.5625474606155064 7.098938170409692 7.614137903247211 1.842402645976143 -0.6065119228934328 -1.0290876398491051
Ni 2.379472007451918 2.964986731631024 9.411812638361805 -1.1046122525499815 -0.25553577255261795 -0.863647692943319
Ni 8.115882864693907 7.357645655780075 11.947020275193415 0.18458463815503695 0.642538477499687 0.07165098867808306
Ni 4.214522229128837 6.117268432629583 5.444882245588414 -1.255047241406503 -1.496980592684338 -0.7084160540291026
Ni 6.790548423199237 6.818454547738516 9.896857055234667 -1.0697714907217124 -0.05810950254822251 0.2813015686628123
Ni 5.570185424849852 6.257120237292063 7.467001691593846 -0.6642185335762819 -0.8097458007185409 2.821252986936251
Ni 8.707105451241784 2.5648490616505253 8.975952192450197 3.549965329320544 1.2944295998588677 0.592787888439121
Ni 7.677882429225391 5.044557372404824 7.543624696749409 0.6598453442092507 0.42357407631319954 -2.237606912897398
Ni 5.786845602545466 8.599426902953756 8.452992703311983 -0.8078413846069765 1.101058216650136 0.18644663106444018
Ni 3.8365002316704233 3.042217229533874 5.693475252015295 -0.2161768111390212 -1.9561549346996503 -0.9672888613747535
Ni 2.1771181921886402 4.170208294436244 12.62706802861993 -1.8910381475956595 -1.2485163822665208 -0.2410409213705526
Ni 9.027810232694826 6.421528697418901 5.238207156387106 -0.014016883104382311 -0.44069633781578293 0.9961798333774907
Ni 2.8398542376429936 9.003574759196557 3.2186534954593413 -0.07017774656666623 -0.10899189122038648 0.5083839709707438
Ni 3.717048070168356 0.08255844788887619 1.147156451650243 0.38557060048623276 -0.13088277775620688 -0.28511117221688964
Ni 0.1907802525309737 4.442176006692277 1.3203781449265457 -1.469317836661747 0.21810051052429538 -0.4934407193973502
Ni 7.791828614165943 2.684659111629091 11.501368367629912 2.256779114950475 0.867016609415552 -1.7864775526737493
Ni 1.972167391313847 2.4331369256714845 7.228401114963354 -0.5736503962787217 -0.41484440974968556 -1.7257707217119955
Ni 8.035027598888059 5.336117184592246 3.2345015313289016 -0.6486217075792893 1.063068367669924 -0.00496531442507532
Ni 5.037766667978954 3.4080618421637374 9.461641726243515 -3.7718672158688014 -1.3121146758434563 -3.398271785466574
Ni 1.202670460331718 6.159811278194889 13.023682791263822 -1.7419177637855032 0.30109597768092017 0.10289554851466151
Ni 4.394090478055046 0.5709137920007284 12.403147303165198 0.9447577701517729 3.6736996689574277 -0.9175660402283294
Ni 1.9505289034270932 7.347065004154365 4.721358383569415 0.8414930112231508 0.2926087661455154 0.9884194727057817
Ni 0.6147441184186685 0.16304114261406122 3.9432785527906438 0.6683454112604619 -0.792506296911803 1.780078848236257
Ni 8.196297652374835 0.5105260763995526 7.894642632161872 -0.5272134449724211 0.2806803901390456 -0.2286165795642708
Ni 8.64534674747679 5.113418785934171 11.592967629032795 -0.07011989674553731 -1.4155501560219879 0.157539975332419
P 5.066361039588423 1.5780954721786173 7.793319816151353 -0.5890261074038436 -0.3199275085651264 -0.9848980898160845
Ni 0.13150199120694314 3.3137628169201907 3.5233468970714985 0.5949648414857818 -0.5567361370218864 0.08001658703395897
P 6.733818511360429 1.0402533283946285 12.284310893375261 -0.8960302230390826 -0.07683741797502895 3.356990153108967
Ni 3.2359725447335865 6.016922009795972 11.729009297914708 1.5386705162239565 0.8691462541640451 -0.9680727907286295
P 8.615917302755493 8.023896349606197 9.923141669676578 1.113936615274701 0.7179728444796022 -0.7877145319501143
P 0.9441281542581794 9.05286242604972 1.2758357122066495 1.4681042759696201 1.1876997651997805 1.6170516245370214
P 7.987226545706507 5.899470353111255 0.3368216925113574 0.6211924077237431 0.819069392112312 -0.14903013808919496
Ni 7.573709352681527 1.3476152933136 4.6714228468075145 -1.5807849288955034 -1.176194335663342 -1.4795135462478262
Ni 7.024167008704318 4.3884743819623 9.537620532141382 1.5364483117616572 0.12528291507092615 0.9135461204356589
Ni 8.598142175089402 1.0610567431695528 2.3732704425181317 -1.628841160972782 0.9763399158334283 -0.9823874075790887
Ni 7.521200689539879 2.7791049629142783 6.836192051231437 0.09109547055593989 -0.965256661436073 0.7739089935255897
Ni 3.090192638639875 4.318796248576328 3.785625925904785 1.7717183920867037 -1.2132097365454269 0.36531442134035796
Ni 5.871463285668349 3.4688570000304653 11.34283019618041 -2.09820812725038 0.47751839174013894 3.0011906132375796
Ni 7.159182730620269 0.4232682775154234 10.493902211996344 0.21043862310366337 -2.9277863893138156 -1.691558851716977
Ni 0.8817692990479812 4.343022545446995 7.8576268694015665 -0.4133405715106494 0.6259638609704574 0.6356093544800214
Ni 0.8510652207526929 -0.00039826563794958386 6.507523792344922 0.3484042758485806 -0.5765745119040522 -0.43943418327390765
Ni 4.476001056035184 6.428071632899501 0.35758381246207016 0.167935202523814 -0.3120033686220433 1.9118273164268687
Ni 1.315258504387097 8.61288901564666 12.702133760071346 0.34935378424604346 -0.03900594894955218 -0.879089481419686
Ni 3.5262292758014513 2.4761753091273264 0.3218858134254878 1.076043182663037 0.19484051155509025 -0.9821850617602955
Ni 6.571832680920658 9.030994522472902 6.179365753953109 -0.39477463558300396 -0.07909690343316701 0.39502866057533903
Ni 2.947294193613356 0.5394388769868281 5.594597089598088 0.3388513420528229 0.25547355185611487 -0.07248274055075904
Ni 5.61338898760254 4.2117417109652715 6.338065434048416 0.5126831125667299 0.025361361582924062 0.2521257184298045
Ni 5.0833653305359014 7.665842693810878 3.6651909475864874 -0.32406158533815804 -0.82194054301252 -0.13291986279089366
Ni 3.5458947887536625 2.750694123856861 11.189744776852327 0.9044050773663392 -0.42481771891231357 2.052816072268826
Ni 1.7307578489742226 1.799160431123444 12.437960675300898 -0.07648929060699085 0.5071369859375201 1.182942710130769
Ni 3.610856135551937 2.0159766114883015 2.4901063474907197 0.8136945009536437 -0.07082309346014899 2.32299607709718
Ni 6.041506195143136 8.208438330692974 13.416617726239098 -0.34252596269093266 0.5874993863466721 -0.6879130489797444
Ni 3.6221525641306447 7.57975675027159 9.157967847958 -0.8339411670178218 -0.38322575440314 -1.0072808283866588
Ni 6.532345652346993 6.338581160519677 5.477922693271306 1.5892785681888115 0.6837558322782611 -0.1751538317594403
Ni 2.306049810004116 5.549950960986284 9.462299690442617 0.7316040621097916 -1.280782441389078 -1.014857355182336
Ni 0.2338516718461849 1.9884650819359315 5.537663456626503 1.9206827099349697 1.140665803739429 1.0034496275660265
Ni 5.061488250331482 3.8048592196969175 1.8597124083587049 -2.223600571315977 1.0870156225141407 -0.9712344762860627
P 0.061119092821097086 4.256844835631682 5.835614789939085 -0.6938947204844759 -0.20411910864353877 -0.19729925750822794
Ni 0.2734249607193136 1.147977759820669 10.919204947851249 -0.1266114040743626 -1.0014133138622883 -0.8971381113912807
P 2.0630343578340495 1.8935787525258234 4.124340756690543 -0.12024483842638647 0.5955919335468194 -0.3072645683854773
Ni 7.153557457899921 3.3512034575384924 2.100193275984954 2.021169906118455 -0.5299190168290423 0.9676752981798947
P 6.820886354053185 9.011338186148294 2.4749025108788563 -1.119555247013059 -0.4767393474822693 -0.2245616927686068
P 4.231664169490354 4.4626582395011125 13.019747853347857 1.6902514457594633 -1.4380971880845685 -0.5110350354403458
P 2.6439240617014828 6.7687080495052285 7.237641978959097 -0.01945605184208262 -0.8741053979415333 -0.36898364266182904
Ni 7.62641990163043 7.990511778388211 4.265794800532425 -0.2769700311669939 0.6586271555314335 -1.0005591933921092
