# total energy = -381179.77775658324 ev
CRYSTAL
PRIMVEC
9.02255842422024 0.00000000000000 0.00000000000000

0.00000000000000 9.02255842422024 0.00000000000000

0.00000000000000 0.00000000000000 13.20542626803698

PRIMCOORD
 96 1
Ni 6.644329142524109 5.132779969373901 9.951846492824592 0.9452933309402688 -0.9905321481734103 0.1388922783242447
Ni 2.5498290791338127 2.502902754000677 11.610236898220382 -0.026519129336451102 1.6774825761295689 0.3199617042371716
Ni 4.6684340122547265 2.009016941375659 2.8467199653164474 -2.1680639717012533 -0.33797408165419207 -0.16083612958518753
Ni 8.147694855398264 2.195874121438578 9.087775944836682 -0.8385110457766913 -0.9534128747236097 -0.7257087796712792
Ni 8.390103926221558 8.608025774124005 0.9789962851568828 -0.6422888233827261 -1.0722083822979793 -1.2269024035411709
Ni 8.030942952452142 7.426810501334184 5.906284785043241 3.0307639560193222 0.31738725864177597 2.2905006755726354
Ni 1.9510379824628479 7.335357851545784 3.532345966495454 -0.0013218041352170784 -0.5184403267654814 1.3395113226888544
Ni 2.833570489014 6.433453912566092 1.476855632407671 -0.24313971288111033 -1.4557562959272283 -1.1881237401110765
Ni 3.779675940554206 6.908726187650317 7.579148276027584 -1.9469177323720985 -0.8701685247809723 -0.7104042881037249
Ni 4.908064135156274 4.857041568606018 8.130079212793008 -0.21076772430830798 1.3003205114220058 0.09497706499853321
Ni 5.3706958062198265 4.598635502116303 3.829018506769952 -0.3094425498734026 -1.5000546036239715 1.1923871433731206
Ni 2.7595043088528937 0.9436693608295842 4.138395711228254 -1.1164619527997157 -1.8280633465353358 -0.4265609268556654
Ni 3.070277303062801 4.151333157413297 6.6598659877229665 0.3191322663573407 -0.16610534840392682 -0.5939245731467255
Ni 6.393339618864511 6.8765427225955404 4.539628873825937 -1.1483282053806934 1.2020316084414202 -1.52003824583475
Ni 5.858383121370038 7.886897810988864 6.608642218125129 -0.27779175573734094 -0.5377040600910997 1.3321242861961637
Ni 4.8107107323132565 7.652518816952434 0.1613901073229095 0.23507879024984674 -1.4245528737412305 1.0783988273794074
Ni 7.063210428936522 5.133303277748776 5.793695890444829 0.1883973270329078 -0.7576884179016693 0.3026455815562272
Ni 0.912126497406119 7.617809035605161 7.7463028957764815 0.23776764993591953 0.7350953630925018 0.10155806065016057
Ni 6.5246268630506785 4.490184352702673 12.401083070726077 1.649602047669217 -2.4612761757587225 0.38457866888660863
Ni 1.9772034012065691 0.2614728340176429 10.85903313962306 2.1274318000021877 -2.292822381727277 0.030258798884541437
Ni 0.11496814319245444 1.4693867587400669 4.117861271049345 0.4405233025730284 -0.4091861830226437 1.7460544116616963
Ni 5.460127402974228 6.150569645713716 11.688227891193046 -2.5478570462737604 2.009756007854558 -1.102799624821275
Ni 1.617582276969591 5.195811560871706 8.18595140436904 -0.0735705742982991 3.0134434624630035 0.06701914633302651
Ni 7.208996924129986 7.508527810838281 10.596588576088624 -0.0478338316538273 0.7061234013401839 -0.447204571247946
P 1.027786670811554 2.454171917230043 10.02760620715749 -0.36080830593988833 1.8216921529016692 2.030450817199748
Ni 8.951704038043689 1.9848906207823107 1.3003752965161846 -0.9474828823924197 2.69472051572894 -0.577184120463593
P 1.0224362938063722 8.605165623178571 5.20921005978013 -0.6819270065996385 -0.053035173349108664 -0.3323791040649179
Ni 9.016449915597118 4.343215902386647 9.547139645324727 -0.5416273064049059 0.6416812717057142 1.5418656261224863
P 3.846875953934632 3.743594730362433 1.4845536790532374 0.21918500183772574 0.148470408930983 -0.06630540809545354
P 5.035976942580321 5.854007180649106 6.059006018459611 -0.8314657088941357 -0.8088551705834716 -0.46736099159116284
P 8.362070837933027 5.838127478239124 11.248976375160737 0.5733341505898836 -1.4556349398580157 0.08423885264542266
Ni 0.9020149164453989 3.0479374489905755 7.6242980594536025 0.17885390631884682 -0.3606800078921401 -0.7298834798742591
Ni 9.036543152680657 8.948780729190942 9.579110178006278 -0.5266238910175381 -0.4637565620693561 -2.3266208183339607
Ni 4.6361693441762615 0.8553159597785879 5.8927229778316255 -0.030886919386843577 0.923003666304133 -0.7287221125763064
Ni 7.448365392844098 0.6505697535973324 2.7906501797161094 -1.1044487303889239 0.4100220486603777 0.12270641259300157
Ni 3.46602475028249 5.880298915207452 9.982575521499546 0.3712462134437606 -0.4932314316000215 0.045673590777714886
Ni 0.00943759586411459 5.692313915371097 4.434408702499247 0.1568959139905169 -0.569454098809187 0.0810591693658604
Ni 8.157962526615627 4.44004599685479 0.9334621407520767 -0.16228006112056567 -0.38794141471125443 0.1548644853827849
Ni 7.136347285604317 5.565330431440362 2.8056113857026053 0.8030210804001977 0.8693560561820061 -1.1253039765713782
Ni 6.4351411309471525 0.1134631804867811 12.359711032413161 1.1092322678204962 0.25727435251027947 -0.958960029794084
Ni 6.908094608577193 0.29770923221024037 5.158461778998773 0.9817214918603155 1.2325025233367677 -1.2978124002881715
Ni 7.986118883376692 2.9432847965738786 5.8853813222344655 0.046050000280527144 -1.169897961131669 0.924251422668305
Ni 8.658362626252012 7.885553449818928 3.683640733462381 -0.5299100179679777 0.2160991638235504 -0.4976755834143042
Ni 0.07468151862949263 0.9862558354745372 6.953356271724736 -0.2039447878492036 -1.7311648961443735 -0.5822497079119585
Ni 8.639469389407408 1.183768656756882 11.275360139812594 0.1254289537304872 1.096545416381447 1.0543512995119004
Ni 8.118633195476358 3.620653352499694 3.6944290062871628 -0.49774937407503317 -0.18186286834849968 -0.34822532706855513
Ni 4.663697169206294 8.342861811551861 10.972533312598411 -0.8847903884592052 -0.9432480183754658 -0.8908823602895561
Ni 0.07851881262663214 8.190443736090591 11.752326851324431 0.4948841367120961 -2.0499320658528117 2.959084685206465
Ni 4.399372304545585 1.5857146014513759 10.617123016267533 -0.4649174151466767 1.1026970378051395 -0.05216871158375532
Ni 1.9515793359540974 1.098433301419601 8.863521163342435 1.3105941254338718 -0.809421841720219 -3.306929746117466
Ni 4.4899046533988605 6.664909597749774 3.1640198781191855 -0.51263529004793 -0.3212871079168144 -1.2112430997373593
Ni 6.588199808039733 1.2406919763617565 7.235754222690806 0.6478820011997874 0.07280927065224235 1.5060036221185549
Ni 6.847535198022761 2.351991445756718 11.137231992008672 -2.290226338865327 3.1703167507457013 0.4814712057402999
Ni 1.39855967696827 3.2799886230146327 5.044631380393761 -0.8372494054554483 0.4222957238214082 0.39012942350150875
Ni 0.39348639413790354 6.050040302388702 2.0632822153384995 0.6092496335395701 0.37979590278598463 0.04898517164945112
Ni 1.7641898249581167 4.75321899154257 11.21009907418666 -0.046160814826778564 -0.31576000745099814 -0.40828706824714195
P 4.898797967897722 4.083546677750684 10.51289261957401 -1.193675266056925 -0.623807476749087 1.0076338408507033
Ni 5.330978505078495 3.2496908726210405 6.531284608737228 0.19932708657153414 -0.4948810513883026 -2.4104796619321456
P 3.048875795042075 7.902912851771658 9.346061109046685 -0.8508114604105992 0.48385204726765063 1.0083938589451795
Ni 7.330323264077165 6.774623905309653 12.925457911978262 -0.21752664029869634 -0.2236409807265503 1.538924798326608
P 0.9848122261645388 4.1181933011906455 3.0782379061516236 1.7251045488829064 0.6821386083898123 -1.3461653376702623
P 7.236109711483394 2.068908682624218 0.027665870170300737 -0.4370710823583699 0.34634250822354545 0.6295688047128963
P 3.544430780931778 1.8787763139392404 7.679535965189055 1.0577119884540171 1.7201726587989277 -1.39015716987018
Ni 6.340584721142257 0.6489384750770343 9.915439568282252 1.1733362973892567 -2.0314088102376435 -2.4291875227542934
Ni 4.963345349171026 2.5826802134944638 12.968230251321879 0.2454372506660354 0.7648142303131731 0.48842398290904915
Ni 6.500184752920768 2.9412547209816933 2.246572778149903 1.3376022785915995 0.9325653418506391 -2.4242376349481862
Ni 3.643886439832481 2.863164479868967 4.634933253704575 1.2199753374040343 0.6267303068228368 1.5679600092166932
Ni 3.7835556405748267 7.503348862438662 5.207044645815132 0.12124319778391376 0.058855893795943796 -0.051465000648511366
Ni 2.6791945184260446 1.927651511640874 1.1351451884286792 1.2098176801447422 0.42611998266350487 1.7450347121479302
Ni 2.860728389158345 3.611684929661329 9.068905264387547 1.5135359259398578 -1.8418066642633568 1.4296158900864346
Ni 3.2265570334283162 8.612672391590563 2.1273676416326035 1.4823232477824795 1.7119214745337288 -0.8967974402224104
Ni 3.0156998485866735 4.945092713957734 4.126880220213561 -1.2667197926484248 1.2878203220724658 -0.44671271921319194
Ni 4.552295643265355 0.02803308828853158 8.202219979036903 -0.37517743017736677 1.160556372015769 1.2391966475274918
Ni 5.565844717257049 7.016238991012449 9.114992491609247 0.019754814029424042 0.6981696937107461 -0.38341215938233325
Ni 7.190951807755006 4.023700049293062 7.9453874466950865 0.8452367945362991 -0.3745871048915355 -0.6300727409325084
Ni 2.8223374040705744 7.053267569813908 12.041024352417006 -0.34695005990055733 1.0196681463074182 0.15449373230692745
Ni 7.942918874774989 6.247354627390922 8.332095192866728 0.5051186699559106 0.8610495931988397 -0.7427695918083079
Ni 1.442806302319721 0.9806889170728558 12.807942700609479 -2.343718397246196 -0.944578050040799 2.235841850577175
Ni 1.6276424293486422 6.224067404709009 6.020974131187702 0.9955784523480661 0.6347580622233197 -0.7505908876249396
Ni 0.9228362739746696 6.8392434670484565 10.060711777659028 1.0190446537908062 -0.923729488726564 -0.4426277505105409
Ni 2.535050128822704 9.067941655173124 6.561050028197757 -0.046231263053397795 0.29869842398302104 0.981456154014071
Ni 3.6445721542547305 4.964400988478961 12.749693064951042 0.12092335255064979 -0.9726228719931572 -0.7033628078759112
Ni 1.671401836557969 4.063453440667143 0.6070268877845054 -0.06981342124871202 -0.26828818712227986 1.236932019863031
Ni 5.1514386197056306 8.893391244477941 3.6256554587588385 0.16741378280270522 -0.14533546284642715 -0.16336352399273157
Ni 0.9934919271409042 0.4445621937814659 2.311767979101069 2.0410319351497046 -1.3912619728985847 1.26442688284919
Ni 5.335273242775741 5.318680758268946 1.138298572515207 0.44279384377476005 0.0732072774216094 0.7662069968956418
Ni 5.670407144091871 0.5427808599546639 1.2133608431002119 -0.2004547724180741 0.41789296676802223 1.0480901490935368
Ni -0.04214256478212852 3.3011104317315465 12.156954300312247 -0.012206569368520914 0.6965257303494198 -0.11739682745463006
P 6.282506514089383 7.421757868749189 2.0392614586759445 -0.10236307304995919 1.067669356777045 -0.42505888838884215
Ni 5.460596575999977 2.7531434053307136 8.80816415983891 -0.4186097903293888 -1.4659615185950043 1.0403611558803951
P 0.09261114625967286 4.823694193545055 6.654015760994199 -0.6826160622468631 0.17414981597495816 0.04919754477057334
Ni 3.7980007562329985 0.5929643285934836 12.776513521419178 -0.5350337123477883 -0.4745066014970086 -0.2642433276289449
P 1.5659100862298352 8.075424164316468 0.7212154819495608 -0.08826057221030606 -0.8676773829280023 -0.9653083406096149
P 7.580022561915952 8.450356569797616 8.128401919225954 -0.7868118176301868 -0.2535071721583634 -0.849925201150904
P 6.376178713191905 2.3208275297771275 4.4279909568604845 -0.7932012660962985 -0.20558026657009756 0.08469573767718316
Ni 0.7984197078482757 6.051348573325888 12.869942111450635 -0.42267830397180756 0.6296904178924252 0.48357333968496713
