# total energy = -340891.9033628436 ev
CRYSTAL
PRIMVEC
9.07101203415128 0.00000000000000 0.00000000000000
0.00000000000000 9.07101203415128 0.00000000000000
0.00000000000000 0.00000000000000 13.27634302393171
PRIMCOORD
 96 1
Ni 6.305069789659817 1.9003860367001755 11.390717117451526 0.7966066922334217 0.6317352162365959 0.7388111213811921
Ni 4.646716488990659 0.2565753820997122 6.083246360749836 -0.631399430163732 -0.38408321730742884 -0.4480260387079768
Ni 2.7989967466235943 1.6652109855668216 4.7599408578962565 -0.0737567221671762 -0.14219691721744546 0.7517530262538408
Ni 2.9409308677793295 4.381643383065376 4.821543005923399 0.6912292578371707 0.3553007458580978 -0.49843200196435455
Ni 5.191403532707564 4.92320092772184 2.3888917690233287 1.105700600518154 -0.4035433829145695 -0.3443347337648973
Ni 7.48599759888214 6.1802889517600095 2.631982185026657 0.25742347649363406 -0.46293226639584784 0.0545292413961319
Ni 5.187539281693801 4.477324415208963 11.635705189117013 0.7698901021741836 0.25202441696524985 -0.24555603563208672
Ni 5.712687366059428 7.984349914480972 12.388473986014441 0.10071165348946526 -0.15025501163523156 -0.08918025581109802
Ni 2.2180619398761836 6.480630151444702 0.28082401076166086 -0.061441909355565164 -0.40221360835955244 -0.8560490546604548
Ni 2.6606275330932316 1.3657315320002217 0.4372155104754588 0.7431979375949781 0.3536644958062554 0.6445493372821287
Ni 0.7078146767706568 -0.24527743694092982 4.664019443940781 -0.48617066809849824 0.8726429544633938 0.829794748949616
Ni 8.824761012891948 2.503154768776522 1.526859006958821 -0.9361371183622974 -1.1746377898094997 -0.5404831654981337
Ni 6.707768286150372 0.592658182358178 4.820918920313665 0.14978964196303882 0.33299102661730395 -0.8599077662849125
Ni 0.7686757231362406 6.8878913668552615 1.9679523749656964 -0.8299356454028545 2.2105051715845994 1.1260683655412282
Ni 7.694240816072156 3.855107433899031 3.7161014353424577 -1.0335865561607231 -0.2850054998769607 -0.3167737934274931
Ni 7.806140817259423 4.038840777288142 12.653376556918458 0.02287124817121868 -0.31415126820298156 -0.5672514347309134
Ni 7.648885757225178 8.90816896611154 6.848176663126493 1.224611036403833 -0.002794532026001639 0.6169729703257567
Ni 6.9779755847371305 0.6693626578801882 0.41450351120724577 0.0438787036608212 0.49610155405896494 0.12774654612007033
Ni 1.9003951077119448 6.542576090817905 9.400539856549633 -0.7307512271911931 -0.7210944208277194 -1.3643150119960956
Ni 0.2864298960351474 4.737000269131454 1.490309179236395 0.3676065598086443 0.09861877551617854 -0.635086649207332
Ni 6.220328397710122 1.971339490760389 7.066293676627499 0.45333510962571605 -0.49585781347927504 0.5727895909403232
Ni 3.6672104961077685 4.188929738024564 0.4786718484639512 -0.4279760620356371 0.22328154050460253 -0.3069673488600326
Ni 5.966240287037579 5.415239819129173 4.802119248421592 0.2556291035973726 0.09320711758230399 -0.7084111689330961
Ni 5.1063537263577095 2.7363251263088393 9.566773404033226 0.19659863189677754 0.30504313525412624 -1.034176367225922
P 0.30740842495422893 5.630594709546398 12.579321723934287 0.817504104507721 -0.051042311288795966 0.2303101652166098
P 4.33699586313641 6.166591723988222 12.743097934329551 -0.934756693075003 -0.10909524956747019 -0.21043065268386338
P 2.30113426566031 8.504898995879515 1.5656257899576875 0.015722295831263243 0.10283538470068741 -0.7328021961829508
P 6.234814803505847 7.672379677707914 5.765782719249232 -0.2545268716721294 -0.5455554378147186 -0.10823701533223296
P 4.813976875006547 0.9312935653285517 12.77700628342473 -0.24527012896055175 0.9958180791626978 -0.05855816004986689
P 4.0716869109051235 6.038808381192744 8.178559369362556 -0.33445192743354657 2.6534113725675077 -1.3599446508425417
P 4.787571159745836 1.2013738697505403 3.8935394965636076 -0.3058473763229765 0.18618746386578258 0.1801165750813543
P 0.43103361595461565 5.721604170628745 3.854214846340923 -0.6508454547034855 -1.1981096476791948 -3.2770890086069504
Ni 1.270068641880174 1.136135153105046 2.9138121709935443 1.591991339134284 -0.6957801104326469 -2.3889716126570404
Ni 1.694328933346582 6.644951529647305 5.1664355728123015 1.3623643160276278 -0.8513475354197274 0.36608446673716305
Ni 6.007513390588328 5.55640290428451 9.139566847944119 0.0611860845910172 0.5542478233823939 1.0905058950555866
Ni 8.685920106749576 2.1792470805149393 10.212441672070575 0.15237540041234401 1.0492602581422381 -0.35655235887701175
Ni 2.3002453065069086 4.917250344001117 7.063943377478049 -0.5389369040569363 1.539233330705962 0.4613826625205409
Ni 0.6797507805585004 9.153648686614927 9.174736067675243 -1.2020622045690394 -1.0675459438253032 0.7202163890981402
Ni 1.6623264038241539 1.1161335721535286 11.431514899985562 -0.4359912190306298 -0.44356620316441026 -0.18194102988460278
Ni 4.153797709441694 7.038442949191923 1.5512745422373269 0.4570693798571676 0.47016040871317094 0.3297707199077934
Ni 5.681029534984237 7.909695487618844 8.037484273021384 -1.44848135953237 -0.5108396316000879 -0.41176319972120057
Ni 4.991033953733382 3.038063261806019 5.089246705261806 0.24561259990163506 -0.2787518056577651 -0.4320240068527657
Ni 0.7182998592749014 7.756975933469298 7.091903864156033 -0.5564088355894546 -1.2776719207845544 0.2639034277910229
Ni 5.019779990030596 4.4858511662721945 7.012896258745775 -0.26828253069532504 -0.6649099032163516 0.5184061310934363
Ni 7.96546406797709 7.298254868290956 8.978140029597128 0.7430287590069654 0.12565701058089326 0.029211074346317433
Ni 4.5352972514271706 0.3439283183378162 10.339761486164637 -0.05872065376966016 -0.45300395153854245 0.05900116112455646
Ni 8.210499308903778 7.145644166282642 4.786692178705381 -1.1676395041147956 0.3334389127879999 0.8967200500172557
Ni 7.0988286745407905 5.962847728635825 6.836294544809762 0.21196637260209947 0.6833814796579779 1.4197040302893615
Ni 2.475161626456167 5.31531355347751 2.502324771199622 0.1816093575767969 -0.7385537539547474 0.541297690979629
Ni 2.527882346859895 5.085435973217483 11.541124470701055 -0.5193985769136925 0.5952013829766202 0.4082114778142002
Ni 0.8970722663273294 3.325759471084174 3.6733515710756492 0.8368722246216876 0.8005337952019697 0.6894289714036386
Ni 3.9295169434433848 3.0911014676216757 2.798931435338855 -0.1907185189669167 -1.2128790926788853 0.24380125772450914
Ni 0.9420971403459021 3.2982924474464435 8.2553491123952 0.0012333581864688438 -0.031041442686836864 0.1196822810546971
Ni 3.236718419555786 2.7163144743455523 7.239098265036842 0.6219195156977547 0.28069504542706497 -0.6737552694221236
Ni 4.1347032296671165 6.604249899838027 5.957705372063754 -0.24059303519985664 1.0919796513876356 0.10296496830001622
Ni 0.8517680051462593 7.478777073513701 11.59399123439427 0.17128123617791147 0.6198873157590743 -0.6547121367477434
P 0.14045826754085436 5.726194102584059 7.933504172209977 0.3278043402100419 -0.3397216604729182 0.36848716264138476
P 8.437991213068452 1.6138690589520417 7.988720327951466 -0.31495036706550916 -0.1386418528763354 0.3089833508487969
P 1.9601367912251852 3.403234982606583 10.314749078311706 -0.7706267232298922 -1.33613983511346 0.11043582275576466
P 4.076367552978132 6.136330828725518 3.727545423790727 -0.6682520802157073 -0.06323396825898141 0.726048165288569
P 7.063732930004999 3.960721223930106 10.431885774593443 -0.9225611794500755 -0.013100799048016146 0.11131334026471151
P 6.1784747494061305 7.77150769432387 10.230245346870367 0.5440058339394115 -0.016391296873829838 -0.23965432543567114
P 2.5501335387302224 8.528202425115092 5.764826634608738 -0.6151698556787469 0.7743489092764857 0.6871473744583134
P 7.207889449044235 4.216532826838836 1.5288500940422036 -0.8350184592424007 -0.680894451570066 0.6607588571624556
Ni 5.7323714615990164 2.8691065965892544 0.34567993071048647 -0.31147115026765715 0.30775153532422483 0.4859832346780404
Ni 1.3460202234253247 1.0117715817466306 7.0718161085927065 -0.26290069755812145 1.2883106314453232 -1.4864930628894528
Ni 6.785044235413853 0.6659764491866729 9.185675707869134 0.10655345698222295 0.3172880140597504 0.19015107649922092
Ni 2.5539342926615993 1.4669549523349086 9.177086366824692 0.6943703745693137 0.8771251586044635 0.7945204991283543
Ni 6.405857801429573 1.9097201078108836 2.5954985756901476 0.8149034336600804 0.8321071991328766 0.08020710577821025
Ni 4.0659993865257125 6.740333218402502 10.49982130303798 1.188394734384276 0.7946927630401603 0.1765111171182831
Ni 8.108250864239148 7.429131426099797 -0.026763113124425173 0.8921632838845087 0.9027989092214839 1.6085960375705008
Ni 7.614216350242548 3.9634153144256166 8.2566235895488 0.40885785314894746 -0.5653112802854071 -0.15712499928218746
Ni 3.2676868537365027 8.411531071737125 12.370072531539046 -0.3146156094339098 -0.2482940033885401 0.4495432466834516
Ni 0.05891803564457916 4.958650441716639 10.272675911522894 0.3425961538072358 -0.5803434920281811 -0.13855597803074846
Ni 8.485296539445851 2.277830836424732 5.704738438445907 0.35273658467534735 -0.6897125640823283 0.03454174253061148
Ni 3.683039411645364 2.614401657116391 11.679769442989206 -0.04609293770332062 -0.2469611435097295 -0.10533783940756697
Ni 1.2488515453515574 3.244700909912854 12.6244472861835 0.46976188772317157 1.0661058689446672 0.4444357502535572
Ni 2.9363227938004766 8.40740376138205 7.893648867798784 1.4700770834252748 -0.6796852617533132 0.6641110614641402
Ni 5.661408936527034 7.676670266274837 3.527630302506191 -0.4024342090107908 0.1836127611600709 1.2798339614328798
Ni 3.0762612923669446 8.493805148485544 3.637492047348874 0.8766579891600579 -0.5998640785596121 -0.1686520260851805
Ni 3.5766092305550434 4.569894090315646 9.42046796230582 -0.21455238816172081 -2.0448736774932974 0.6919535375977051
Ni 7.4859250307879845 6.369891239763919 11.345683172421184 -0.91163270546303 -0.9343998239562165 -0.8000234312244545
Ni 0.4638108098821502 0.3114423038880792 0.2910688114540164 0.38854613817478895 -1.1245796968108437 0.6409400226643155
Ni 4.6737571750752265 0.3946189463075534 1.910943787298575 -0.5673743334620228 -0.1614976744285864 -1.504236760026119
Ni 6.353527134531928 6.010615676613463 0.47662361400642167 -1.1392853784521346 -0.857500956615633 -0.7490055454156906
Ni 7.9358200015147045 9.176870476744583 11.345710385456494 0.4536017330235414 -1.1242397969729219 -0.059609227022200555
Ni -0.26520100719123063 4.851041029096296 5.671003345675524 1.1895756420662544 -0.7892443383310794 1.1589103517719137
Ni 8.230827446278992 8.526070737349285 2.6592913730596 -0.10809560465836221 0.1189464313299371 -0.6436427663074593
P 8.362411543005846 1.342201327470409 3.542659154805726 -0.3940066470687279 1.9458044447032619 0.9138379406444649
P 2.0735697934014787 3.122323890131936 1.736571728055481 -1.0030459643697047 0.13613631284566233 -0.6343528563651011
P 4.488164274273391 1.1588943216344603 8.10646841042646 0.3795344215944818 -0.765931631747068 0.916261462484293
P 8.701077767416237 1.8932108663905836 12.430161634803053 -1.2635401093688627 -0.9149548278577275 0.2664997277632894
P 6.413423025245248 7.988286733588889 1.571773214633807 0.4446370676310859 -0.7901290549288779 -1.1896538036023576
P 1.4561876613646358 3.1336898678789886 5.876918941245515 0.5844798827940579 -0.2750928687489391 0.6700742210261105
P 6.894177578011454 3.7077397766934284 6.11096737271711 -0.500880463504847 1.959618467768219 -1.5926222878500638
P 2.492723105241717 8.373360254211507 10.258563231412069 -0.44947948332505167 1.2375071756402105 0.5568770334751247
