# total energy = -340863.0960509066 ev
CRYSTAL
PRIMVEC
9.26034623500472 0.00000000000000 0.00000000000000

0.00000000000000 9.26034623500472 0.00000000000000

0.00000000000000 0.00000000000000 13.55345276507143

PRIMCOORD
 96 1
Ni 8.560569510335673 7.704737585711918 4.448094264637582 1.0519095228396271 0.19961170769148848 0.36680566117390373
Ni 3.630435338636232 1.4186201974581747 1.068741171585821 0.09452455084214688 0.05625522294830312 -0.06764392440121898
Ni 1.3600762895228866 7.176971941762544 10.364840524549344 -0.47197715020693554 -1.6077290615845152 1.5893204771703402
Ni 7.041113404382188 4.587436544214278 0.3711518928936989 1.4652809475882118 2.787291799499458 -0.731323040534263
Ni 0.41503111677230825 4.347751006553876 8.991984031397623 -1.1464685264641352 -1.7074256435459045 1.7590518523626284
Ni 4.7874600196021655 1.7238319440002752 6.489460697712303 0.54073976159363 -0.3489231244665281 1.0491306745429092
Ni 4.457282380020909 6.571734242484696 10.940970177985214 0.1403333816461454 -1.0963024471327054 -0.403782238398253
Ni 4.013211743967635 5.280999424429611 4.767359512394899 -0.8098234480340119 -1.4717940661163813 -1.8172462013151733
Ni 0.8162346847738206 6.040996027442754 2.2459700756351473 0.5469844569517612 0.5729289447316649 0.5814426386296309
Ni 6.87672374072081 0.2556994541413404 5.16482745678662 -0.506940553655998 -0.712791814499295 1.6308749035733592
Ni 9.160380646809017 8.77722456728822 8.884369549569723 -0.04968528304026927 -0.5729346011586197 -0.18003609955240607
Ni 5.118860024866346 5.534816250212324 8.290375762505578 0.222920557620758 -0.11349466418674647 1.005267911721688
Ni 7.188677019211169 0.5240578013778309 9.55527884516277 0.22479334916343865 0.2901083683211649 0.29664411255715367
Ni 3.3805634202847803 6.892790441174421 8.860095404382951 -1.1141713569933263 1.290913616285809 -0.5130258406181294
Ni 7.21045735319785 1.9958175687973874 7.65214345013481 -2.293508094940392 0.4649945482415153 -1.1758307816763365
Ni 9.091798523720003 5.06974314924332 11.222963458793979 0.36588494913184727 -0.2509494387335162 0.28643888988937766
Ni 0.6547166544327101 3.308962424372783 2.2552674631022507 -1.4905361226105749 -0.7209792354060939 -1.2186342499951077
Ni 6.770489050459243 1.4299548610634882 3.2103249220375227 0.10572684731586954 0.0029238585150143195 -1.5947496186057117
Ni 7.447105497343103 2.7053082442750886 5.283284877842839 -1.0593945183627627 -0.7036862526536011 0.43810080917446487
Ni 0.44876285341341554 3.6686064851894202 13.312458688564693 1.0049881756977403 -1.1024952062069788 -1.176716012494767
Ni 7.688763488719135 6.924831238620813 1.1133927083277335 -0.19534341933343777 0.44790879640382214 2.2555665826996125
Ni 4.410008313268356 8.65765497866746 5.346023722553623 -0.3292737256667168 0.20853369277146666 2.3122738055836694
Ni 2.2970936682543095 7.853792116260225 1.4078105954757545 1.0272361884626633 -0.5082618435705827 -0.5087315841181497
Ni 6.133395760656657 7.745631274013441 9.042823331392045 -2.792068652062811 1.0282674579406548 3.6041101907940636
P 2.9373262153789548 8.887126354598564 7.593660660483669 0.5051202126178076 -3.780352884742308 -1.0774475192097315
P 3.4358384260528494 1.4205185684051431 11.426807752975616 -1.1949518187765034 0.8355661042157545 -1.5673930809696295
P 0.1746630916056061 8.214047359918325 12.93433097696684 0.0585105946413831 -0.8451933428928734 0.49789129896953604
P 8.807561461055382 7.779727868290209 7.018018101251753 0.67332049587755 0.03721774670087784 -1.0874365121016432
P 8.732848988859574 1.1828240051525374 4.207629005837012 0.024972867895253766 0.23499754338995013 0.5439438703532244
P 3.994894779415911 7.721943308733708 12.669943466130643 -1.4252568417867906 1.0387675861410304 1.6259651249765674
P 0.13703274926365158 1.3668363421633107 10.512668059241683 -0.6541837750480991 -1.466821038381822 1.514549969026669
P 1.5601182856029394 8.244939874450454 3.5059938819413263 -0.6288704930942911 -1.428668438571501 0.046717201550880834
Ni 6.540434272724926 5.394522007058319 10.615619956816907 1.401944135202779 -0.3022781709144794 -1.2299905555481914
Ni 8.315948208213154 5.7645839572180755 6.142126414943496 1.2271512863271834 -0.4542910457810821 -0.03329861415212975
Ni 8.954365727505575 0.8275610140676597 6.561050581209002 -0.27925857009085453 -1.1704229803972037 -1.630066805849767
Ni 1.2998562589466167 2.3045389865048587 4.744968921601363 -0.21130405642775224 -2.016729610958914 1.7628403728707833
Ni 6.735605326765439 4.904399669935416 4.260188878133612 0.09231340212344101 0.32481748966757606 -0.5064013933230763
Ni 2.198535804895361 0.012446831169854579 12.977186932603304 1.6817261818972717 -0.7359746803736615 -0.6163937007835191
Ni 7.947016020275496 3.0039451450984207 10.200653662467179 -1.142691575920206 0.3447831341562256 0.049607635724798434
Ni 1.9150951319938592 9.2269903161824 9.767078702664119 0.2009121716704669 1.225093118246574 1.3723422531759462
Ni 2.107997401244094 4.002654949433275 3.5678918872277943 3.2455341166188036 2.1737373679369467 0.9497513667116224
Ni 5.858196795768824 4.362336051634243 6.363766316192399 0.3176541391499174 -1.1241318106401477 0.2438413669338252
Ni 4.115112592262464 4.172063720671515 10.191301638958185 0.04931992928105054 -0.5045039191900472 0.06523325807719733
Ni 9.010344519575936 4.08931326807586 4.589104332543785 1.4745700861996218 0.8731615459710252 0.04048510459823996
Ni 3.569428178642926 7.271677501151059 3.325786621135964 -1.2228673142398487 -0.43127144495745723 0.6112322111872377
Ni 4.9836404513657016 0.7249674918858392 12.731286776686755 0.09085404396909515 -1.0576757358994429 -1.1574859606205614
Ni 4.1390228058481835 8.780437907378943 10.683387169450636 -0.2358917730694454 -0.15401962088398635 0.7597221605022465
Ni 0.03449293708911118 5.8096262805646814 0.06736253550991234 0.7139791499391769 1.8221647216627135 -1.0985591043773661
Ni 8.19633231786198 2.451908134066101 0.8399022772921706 -1.7858759145340082 -1.6002304392146247 0.20616493542897396
Ni 4.773634322900585 0.003015168684550741 3.0998915908620273 -0.19591574689714 2.165949753571728 1.3313969211118362
Ni 6.759710007618897 7.064273529935202 7.229357719552789 0.29887145922577557 -0.060304967537644534 -3.231839649850847
Ni 1.4957681406737529 6.089131306381006 4.64170495036315 -0.9816394736694707 0.7793656457647868 -0.9012606182000866
Ni 1.8447720638412846 4.934884729239903 6.641950816657319 -0.08757691587972015 -1.370915805142065 0.11568910073490399
Ni 7.482748569415694 4.604503362044828 8.291229566414408 -0.07597866951915946 -0.05628196242118049 -1.100078883456002
Ni 7.196168639192131 1.335591934480036 11.902723793172939 0.8417385515750535 0.8825051919694542 -0.1345396577825038
Ni 5.317809300108631 8.318587406846744 1.2695638148406512 -0.2173191522735806 -1.0794768909349346 -1.7266906624231035
P 5.725014498406389 1.1649144958284552 1.0526929918243761 2.52382237392206 2.2651102605239894 1.857386520979485
P 7.517947144876312 3.7126023894286724 12.159710435419782 0.9722019824056547 -0.928346161562969 -0.5969283929700558
P 3.0175022917635994 3.2210539590090232 5.788720123248214 0.1779095401277065 0.9324493850980651 -0.5961997423341474
P 5.808672464918156 3.4073443411561586 8.559113783931462 -2.2774014191865164 -0.716050944866541 0.81375517898825
P 3.690673889904667 1.1762954611641827 4.655678812602053 -1.6579486198616995 0.21236566492304715 -1.6848721837254208
P 3.890623282523892 4.461662523718061 2.3481626248315837 1.1616871431861024 0.526557556555977 0.07995848010251391
P 1.554673202106269 1.7952569933366997 0.9600997173773417 -1.441187396974118 0.5991418556816068 -1.6728887861112995
P 1.9269113335954768 5.254422231172053 12.196412891084245 -0.9594215428115347 -0.28459335204020664 -0.6155565495942044
Ni 3.8609994354051027 0.7992104645352515 8.935397760624232 1.9471637869446337 2.342607423570204 -1.6158925712319139
Ni 1.6992920268809277 8.91954682623435 5.821953653270068 -1.0615856124768104 1.016396417534682 -1.676778865194325
Ni 2.4431015449413844 4.782626118946958 0.665868889220193 -0.839540001261838 -0.5426997135334783 1.250680736907691
Ni 0.8972117810946251 6.305536333989317 8.26546450550831 0.11351908966677869 3.453846180297768 -1.6706490981475035
Ni 0.22894075810056083 1.149977557596943 12.81054700484381 -0.9456921090405842 0.7788025741724652 -0.31886358607698634
Ni 2.9277047157989546 7.071089144652124 6.157793994480939 0.2967086472465019 -0.9559718937000374 1.5645203874075249
Ni 5.828304398613634 7.304292440054584 4.301039042808546 1.2783080117066568 -1.16280634439221 1.1006599527704528
Ni 0.3349420876408416 9.037199523215977 1.50844462842646 -1.112555161546142 0.33752285304938645 0.16337277996411217
Ni 1.7597713471475154 1.223745474492309 7.750405908453718 0.633997015687579 1.589376012998624 -1.1166393589178447
Ni 8.108016397270578 6.518089057627195 9.402396087543844 1.026580042935903 -0.2361522258196836 -3.4247204665764053
Ni 9.210367994963823 2.017866452820469 8.514848403621201 0.1457707506116328 0.6264531419020501 0.8463544530805102
Ni 5.447676393573434 6.22177650367064 2.3541809237507776 1.7427641709461983 -2.2454001836895716 0.703982186627465
Ni 4.986122224115884 3.666050629670575 0.4329748893768966 -1.9291766063385936 -0.2713863664316294 -0.41278881277223745
Ni 4.8843232396279666 2.9145920657457483 4.519033145804662 1.07345356755899 1.3992228796168742 -1.4213791039989392
Ni 3.3563198342400815 3.2156459168966838 7.879841469791064 0.5538863262779171 0.28751181123858227 1.1271060627771234
Ni 2.104663676654296 1.0503362337463105 2.8773710307006524 0.3750843562429282 -0.6701986624191166 0.9315731531406989
Ni 6.068295527694766 7.000451224732734 12.992447982947713 0.4310626713807608 -0.744883038606885 -2.119370106039976
Ni 6.536563448062326 3.568946640646622 2.1803577455348786 -0.7940353319618196 -0.405447799026134 2.7558317812179633
Ni 4.121196639638846 6.2629202213163975 0.6804520822313432 -1.041436648332761 -0.14234861230396129 -1.2759881053242281
Ni 8.23156793470693 7.369031519519247 11.250652819616075 -0.3662934974241756 1.8947785884746982 3.565848061989072
Ni 5.393753398333449 1.9335417413907423 10.278748939087023 0.013316771713564164 0.8016211147288775 0.3455210407635146
Ni 1.7784957669268815 2.7062250185372836 10.24242523157735 1.1783864582186545 0.012546726316759037 -0.07439924084718154
Ni 2.99432364551842 3.213979054601785 12.438247755070458 -0.15452767086865643 0.45691537077780664 0.20743788860412662
Ni 7.321498163076376 9.003482603128601 0.09626685373807028 0.7452548201240068 0.6268799450268236 -0.4067066111338995
P 9.172298712217545 3.669726987065436 7.086761354362607 -0.8790077203391572 0.2790330843436098 -2.488271987621276
P 5.217575314108702 4.848957977937857 11.998762842397372 -1.5760648977120146 -1.5300488359932165 3.2634135680023864
P 6.198570076387211 8.560319480991438 11.214994004955145 1.6213235124394982 0.11833887965292524 0.2856382483649532
P 8.4092924967275 4.825871935153505 2.6437769486934983 -1.9220986164458898 0.1604715471569172 -0.43270792029366767
P 2.359869554349425 4.904631178587486 9.10446389905741 2.29168389724746 0.1548624285002559 -0.3293212910752006
P 4.898056332868717 6.295081403261866 6.268322707221087 1.2507599268850589 1.245713879820719 0.9386058916177641
P 7.108426860057862 8.378742615000434 2.9260415576424887 -0.4074938829218853 -0.3009651085300107 -0.8303395657094925
P 5.943716091843228 0.12026133647314223 7.411732827376128 0.7197785302297733 -0.5117798840261703 0.5538156209409817
