# total energy = -340876.9866080685 ev
CRYSTAL
PRIMVEC
9.14272988137107 0.00000000000000 0.00000000000000
0.00000000000000 9.14272988137107 0.00000000000000
0.00000000000000 0.00000000000000 13.38130934268350
PRIMCOORD
 96 1
Ni 6.966897475695649 3.0667093858817593 13.494649510773847 -1.0280049483078877 -0.5088945920585752 -0.017521810933847245
Ni 7.772554851939294 5.944694537078756 2.2592070067043206 -0.904596624551855 0.5757615290844537 0.5844677986091998
Ni 5.670577203277838 5.3417589153000495 1.2505865079211491 -0.27772644971704424 -0.5694934366875547 -0.3870695536292624
Ni 1.2662864040455881 8.053657231535153 13.421988577592291 1.3752126327452057 1.7848621285575133 -1.0645169271909924
Ni -0.025426846675796633 2.3188157783978447 10.750423415184908 0.07899148820355428 -0.7303298233830584 0.34177185813372757
Ni 2.8184202646079437 7.1881698295296115 10.878482892849817 -1.154193663022535 0.16342548757891853 0.43611925996806183
Ni 0.8984981432977037 6.65406982265942 1.7890942249716286 -0.5049682604209755 -0.8714767020694347 0.16099270976770982
Ni 2.9926624148173326 2.1881478798359497 5.9991486375429774 2.9375054163737926 -1.1957324056962697 -1.3088694294332814
Ni 4.886350386384115 0.5455723045972735 7.542629818340501 -2.103280142456649 -0.6263896356539664 -1.1517799113747196
Ni 4.4100964328445365 4.473912688929201 5.2613833464617255 0.6109977265789284 -0.7961840028737062 0.7759257668453025
Ni 1.2578933778155421 2.5118828098792 2.426419311741289 1.275202119087823 0.8123778390247494 0.962791230614716
Ni 1.6369326822221355 3.940425244975582 7.011190345928854 0.26333367133048197 -0.8956278453943414 1.0652998281036041
Ni 6.157573864682671 6.183740358223403 5.809174591653806 -0.44339805301766216 0.6291157763358779 -0.021057334890931475
Ni 3.5156082909678545 4.536375820959348 0.0959630093825569 2.5142244458209797 -3.6076344018972386 0.03159268720461656
Ni 1.9053815233622386 0.45802426399699814 10.272751424207115 0.2933070777641207 -0.16967686780526908 0.30689741485404565
Ni 4.882464726092427 0.6591771259771038 4.676165421340107 -0.29571543009529716 1.6570711023527525 0.6757964682218685
Ni 4.69816557277514 7.2958346191647125 12.924471376663586 1.5306188495640736 -1.118415991202293 -1.6747047562741157
Ni 2.167805305367701 5.290587054941043 5.047697630063159 1.7876216935805214 1.017872744969892 1.2973665710000044
Ni 0.11394950230452833 6.9593730088249215 11.69119662818317 2.300936526193979 1.460074720796924 -0.01635812964304925
Ni 6.981297275600141 0.4602395474997652 3.248821598159584 0.39285839239689757 -0.027735004021423204 0.6051669788297642
Ni 4.268310974483365 6.354160847251791 3.6280748424504727 0.9066370520206515 0.7562668549637943 -0.2552501229913991
Ni 6.004789702013499 8.922975437451795 10.90995582693948 -0.1910602185770516 -0.8241516917312257 -0.577851578844263
Ni 1.291511196386217 3.078082942123783 4.7597455170778105 0.08653459065813483 0.6081530580412817 -0.6783732278101091
Ni 8.121313434261015 7.204434746374113 4.583032086922908 0.06388600002068351 0.6774681994973365 -0.46775411326452343
P 8.91356756818086 8.404454642668748 2.62802199604222 0.6460228365038615 0.4748380166944984 1.5433946611725031
P 8.094168668599787 4.028606876771655 11.871055157491814 -0.4157491809521421 -1.2813876790732448 -1.4116816742055172
P 3.0735572907252284 1.6365395448279174 3.5959463746127764 -0.446918664576411 0.3367813468976716 -0.019129264630283183
P 2.155773472558615 6.77997435884021 3.4416728612106247 0.3152923237859602 -0.003972097273870578 0.6536245601105194
P 4.595364715552221 2.5483348747802825 13.062446145119871 0.44089688386236325 -0.04190538198453428 -0.47974368152623187
P 3.676986619929232 5.6086077786729875 7.163376574049612 -0.8505152693264192 0.3577402085375258 0.04177554127488935
P 8.627006978716441 9.016039287120247 6.224142082526861 0.4055892097000047 -0.1411414793697376 0.007388322044271147
P 0.13269392755163137 5.358261543127101 6.059017062771287 -1.1111328272773187 -0.5252542643635212 -1.0403860955810598
Ni 1.8639558132877951 5.734046035618775 13.00259143398671 -2.7989162711122635 0.6814117575261168 -1.6732785653505506
Ni 0.9963381551693984 1.543283697827405 6.700984827884756 -0.5746919501693586 -0.8668196629133975 -0.1710107561253442
Ni 8.169998472033342 0.24233354688792033 12.01109069731221 -0.2229167009660161 -0.1312411895368901 0.18682664011167827
Ni 0.31647285952633764 5.211237300419724 3.8244853703286994 -0.6184680668140445 -0.03892573053092005 -0.8127231381793101
Ni 4.978929671357369 4.151156031006447 9.603070215620317 1.3198665518747335 0.527797085390033 1.1717545547244337
Ni 4.063842958569692 3.5169888432126664 7.5843124391307 -0.3109214484117742 -0.13213001989974663 0.2730046187613427
Ni 7.284013069147883 0.25950267973912255 7.926364828925473 1.0372742894249554 0.14394475314648758 -0.46623356285493894
Ni 2.007633816779271 0.10979047438290744 2.2243082916469032 0.36673521294728456 -1.0413543730316002 0.5949229325042529
Ni 5.18867304253764 7.3243507943406545 7.823115063654738 1.3938117359036317 -0.6390209512647318 1.1273058374927554
Ni 7.1102006272531035 4.847640067148804 4.295841563354732 0.5071691247270362 -0.8029388050990365 -0.1369536665406351
Ni 8.067398754872581 6.920287837655589 7.195585497912171 0.11217003183805198 0.5398157071174637 -0.06487021831082376
Ni 3.09173303816023 4.458827184267353 2.8000122918284505 -1.742993256237869 -0.28329597338502177 0.045164255241464155
Ni 0.8167164225702933 -0.21283635677245424 8.32673412265091 -1.761868495875817 0.9221042944183151 -2.417558680266114
Ni 8.633617172577361 4.663359199291713 8.219657210561115 1.075950880059547 1.4873803505904126 -2.096951114914827
Ni 4.098823043924982 7.369918161149532 5.8164668331800415 -0.03945434934088044 -0.5029895394280499 1.410291992946842
Ni 8.09343725019194 7.777802779015598 0.7713657384647401 0.3734331937927505 0.9141595856499417 -0.8199289118991299
Ni 5.775773455786455 0.37058502188489006 13.060814167797364 0.548583683118081 0.6071829808185285 2.4642432288068465
Ni 1.2996207979832224 6.204805208369402 7.642480316560766 1.1068614535954744 0.16779790561500132 1.3690638395349906
Ni 3.322833826849638 6.461907921457776 1.2105459214565661 0.09437825507226971 1.8921581201327156 2.1722916366293554
Ni 3.026005951485065 8.523584415846853 4.363056172216856 -1.9432639376695955 1.375964680419882 -1.9271760309687973
Ni 7.8461629719590125 7.945197024381517 9.583439859826708 0.5233197663449697 -0.10955187748891455 0.4924436455914036
Ni 9.393880893883992 1.0346919079308836 1.1117925508480724 -2.727850465513689 -0.846220241495491 -1.9777079782800782
Ni 1.2870952577488397 7.678512730150345 5.825552878351522 -0.6749287209049344 0.5208718190251094 -0.5378773524441705
Ni 3.8671005495889044 1.8100045629789692 9.507126405970965 0.3113433664405412 -0.007542074013316044 0.01987925542243028
P 2.7834858929031436 -0.00511627176289087 6.663959513806524 -0.2522725284203139 1.0416276812976448 -0.9888344487560131
P 5.758548552281654 7.918527680685391 4.07107577235029 -0.23308181442447598 -1.3007766251228177 -0.5284892263610511
P 1.0534527900921633 0.9512736385159154 12.23011576808806 0.7395829665502103 0.4433314614457849 0.7182471811869114
P 3.5036221718092593 8.730914106281228 0.4767997745264347 -0.7414105066772521 -0.07739560447134412 0.8481657952576361
P 7.436230382550974 1.089685429470892 9.902864906901721 0.798239085630522 0.7232562043657286 0.4442655432242801
P 0.9141559828636917 7.3021248174721975 9.517563746650946 -0.012321240569514263 -1.6056081585867703 2.190721046979137
P 5.234249552076616 4.462292278974529 3.1832124527026844 1.0511551611721057 1.0010474458824372 0.05099603143189282
P 4.202885597901437 8.739727698095788 9.71857763913356 0.26485345040911806 0.7603693071679422 0.8288259572784435
Ni 8.386406893455119 3.1870917130833036 5.944552824762236 -0.29087250018069905 0.4975344298507495 -0.3600117781805219
Ni 0.7628739707496347 4.645402877379065 10.743465797580262 0.4821852010881889 0.10227565554247549 -0.17708627289546275
Ni 5.78661673368279 2.2876390687633594 11.05051341664848 0.08883932753191152 0.06561301001411925 0.767069087785621
Ni 2.914876067142788 7.870820915033559 8.350673447139746 -0.02073980365051267 -1.07200577936887 0.010249959862782348
Ni 3.764875684362166 0.5456911600885487 11.928902125095435 -0.4077998441980783 0.019019221414980147 -1.2842259198529884
Ni 6.019600924772403 2.720556481637994 4.141782904109885 1.2597719005756818 -0.7439880375964412 0.5716493066882928
Ni 6.003939428114376 7.624012916035634 1.8389934173009814 -0.8991127186191483 0.47008378983896465 0.4526856489671752
Ni 2.88017026369044 5.123759658841204 9.438600729612777 -0.861866175562864 0.09498760652149446 -0.9046693867713194
Ni 8.974467293364235 2.3740927245708936 8.356440681285621 -0.5977421471206028 -0.4933041938194859 1.3398591929465764
Ni 4.453496972620167 0.47828181107533496 2.185194778014267 0.7842671968314623 -0.5334599401027651 -0.008227015895482604
Ni 8.282618621381607 3.5798816835574234 2.0829077422228615 -0.09783947414799278 0.34063003121980046 -0.14491483036924077
Ni 7.4173415021683216 3.8348815687232367 9.745501150726414 -1.847723543968424 -2.3920070570492546 1.4171727792270754
Ni 2.5016978085499284 2.6962825332275666 11.390157611335415 0.1588725781009135 0.8252621511865852 -0.4901569064397558
Ni 7.775160530017249 5.8596214335160335 10.584709603611017 -2.0217478901091117 0.14408050739340347 -0.7560495967466656
Ni 8.509952605270602 5.242642578306661 0.0934569870626706 0.0036954465737162163 1.1334870266028025 0.9934583206812697
Ni 6.445524149121999 4.211479764193641 7.136988826440506 0.39093597856320417 -0.4617619002368305 -0.4262130565979434
Ni 0.7331162128263731 3.1620040616941463 13.0313078349518 -0.805951109562799 0.47834500140649233 0.6188560462810826
Ni 5.056076027925047 6.73006419523474 10.234400414264659 1.3627268415733693 -0.60149132975039 -0.09753248443053525
Ni 6.070114508564347 2.161688818932079 8.489209579224058 0.8123564988685107 1.7698288883734745 0.8465092334908194
Ni 4.673114492306373 2.8054284451385585 2.0392978339279844 -0.07382048552557609 -0.5615538701255038 -1.7139511033692478
Ni 5.973009572192539 5.007043566408994 12.021528037992189 -0.032142903281131736 -0.23753753620298448 0.6497596778384745
Ni 6.468518115318695 8.632337190363629 5.941127958067492 0.793610328609259 -0.1790472532765755 -0.014141581607704679
Ni 2.572535681349925 1.8151610627542916 0.3377041073601211 0.6537286897885516 -0.5090468013657232 0.6011563150084743
Ni 0.6923908358774433 0.8755005200089695 4.501178138627723 -0.24422934640086325 -2.313581982872132 -1.329634944115407
P 6.600923132599227 5.788079570498483 8.549305658431809 0.26828458757785406 0.547665799289502 1.424342043282005
P 3.8815460631438854 5.218094347993292 11.43865156604869 -0.802807935948127 0.3783056913937033 -0.3409195374357612
P 1.2307577548844126 4.469889887686041 1.5017043898873137 -0.30370513316899306 -0.12675898539582042 -0.9664049161079036
P 7.218761404437818 7.276525173197547 12.339307393649543 -1.9777612001155165 -0.24918540485455798 -1.6956286509109766
P 8.340345819220945 2.2392465983541716 3.762195035897406 -0.2681087241216221 0.9416747603510751 0.7216058132464992
P 6.986938340070662 1.1386813200665533 1.2595134695889234 0.554260164677568 0.4837258061024315 -0.7125604152147792
P 2.017763961727954 2.9209102690075266 9.088264112076123 -0.6562365438120699 0.3375724753403993 0.16848413304874854
P 5.583684696425595 2.420949216323602 6.259736559344742 -0.8711054347729449 -0.8961770330295922 0.13232568085032048
