# total energy = -340870.9021133839 ev
CRYSTAL
PRIMVEC
9.22137129640433 0.00000000000000 0.00000000000000
0.00000000000000 9.22137129640433 0.00000000000000
0.00000000000000 0.00000000000000 13.49640900278635
PRIMCOORD
 96 1
Ni 8.366771332825621 4.925014438981926 5.05482368028072 -1.1128562377263285 0.595619187240329 -0.27165427538103537
Ni 1.8878175390474923 2.042303169471495 10.73457138233469 -0.08222747864234871 -1.4758710643992323 0.18698013497040702
Ni 7.344370252302705 9.043324889379566 1.0325980727107558 1.1302152978300664 0.005045789954023569 -0.5027450275174116
Ni 4.23460116163008 6.800115707250771 4.3203350153721605 1.7633756765489632 1.9623368951406464 0.31501130221043167
Ni 6.856762590059501 6.213996137300313 3.2413654336950595 0.590720464387131 0.40358297790325337 0.8968570898157522
Ni 1.1711510181083993 8.276097590572938 0.3803022550330362 -1.5576457717748788 -0.6925886000785426 1.0612768229871399
Ni 8.798396050980953 7.537760847494741 10.96811274953348 1.0942805316066704 -0.8239686291861421 -1.032324401618848
Ni 0.3342673261126814 6.177820698384694 12.692900135674376 -0.5762253560947496 -0.48516433832117084 0.2249355311682578
Ni 1.0405671816352722 9.253000425974859 11.836863655856142 0.9613532126166087 1.1167332041832316 -0.8604410130805634
Ni 4.029831394472233 9.310449568071292 8.222700318947961 0.018456406932974668 -0.40043183386878134 1.559762046786933
Ni 6.461580730582353 0.7312888491288705 9.811295430698708 -0.6317323880231184 0.5559552929918038 1.2494332376538353
Ni 0.6592920719487569 4.962250335576693 6.9631753685449596 1.4419433013035359 0.20926388606927185 -1.9581526818559694
Ni 2.217158808706255 6.06853822920575 4.06386286460175 -2.143220173184696 -0.041420986148948014 0.5195960376364793
Ni 2.2524951028496782 7.196929749416691 11.348171560368868 0.174087595278455 -0.10273099791233921 -1.3833314051975985
Ni 3.050761536856401 7.179990090663699 1.6391522010698323 0.5180289502596755 0.887789323186529 2.61572671353254
Ni 7.100723184490193 7.263443499327056 6.063504282709691 -0.8957736269435862 -0.861330100553736 -0.47090757129184063
Ni 3.791892355384874 1.6018167136669372 6.678779061739811 -0.08255272319225136 1.0240593333965782 -2.924808280522098
Ni 4.556445456565825 7.246632939769785 7.149560488094835 -1.7744566169534732 -0.6799171752584614 -1.9917834825365375
Ni 5.022742530143723 1.291536018119463 4.153411599577425 -1.1416240538876403 1.1459417074263878 -0.15920553596030002
Ni 8.389465127159381 4.244357372278238 2.4727715276880002 0.8574616187372652 -0.3204550989338223 0.5158918493120147
Ni 4.218851059751957 7.260382004114212 9.638284987825665 1.216563226398692 3.764321542311059 0.8296615658058615
Ni 4.037577346215573 5.347473114240974 10.561453049419507 -1.1484181939913385 -2.3535343548953533 2.256264894318217
Ni 5.092612859142868 3.4059410884018737 1.4121967371271054 -0.9102679639050193 0.11519313493509195 -1.577723002140728
Ni 4.780478667999666 4.100559310985819 7.894440716121929 2.2754599791894297 -0.5780670372891786 1.505520768944865
P 2.7654984211656877 1.4516651276707557 12.917709786556777 0.23982478957526437 -0.329918044118935 -0.3742955417930457
P 4.969277020372437 7.410238506234458 11.81969622923641 -1.712009149151529 -0.21245153976863407 0.15489045352471387
P 2.536587104407768 3.4389443756511726 6.420565916101372 -0.44431105175023483 -0.6439099039259168 0.38013400285169374
P 3.85853520449096 3.4906670462802083 3.870095115330782 -0.13151964000925737 -1.5706280429671597 0.8724238964740523
P 0.8811158428615218 0.07096213934011035 5.452656683955735 -1.146012412763323 1.1064922431815138 -0.3366203958397751
P 5.885226592651177 5.300250472719974 1.4531045837030594 1.0902405572093419 2.4778405078753067 -0.5609290920573113
P 2.407469465943201 6.486183348738579 13.333372311298156 -0.3827022777995022 -1.7478868368847444 -0.4143240184698413
P 0.03133329693891948 0.12883177595975281 2.0499965593994327 0.08239897122320648 -0.814580760213339 0.22119868983364485
Ni 1.473150922387399 0.5758506510678597 7.618817621803225 0.08082031388217693 1.7609500978266062 0.02619285634528392
Ni 7.017398875022559 1.9112674858133396 2.3073456625636433 0.65516130847002 -1.090221016825316 0.9657456852573497
Ni 8.727566699385015 0.5836925050708783 9.697102581396756 1.272272347035538 -0.271625479025629 -0.479084193565362
Ni 2.828120752462137 8.557017440464707 5.811310848140363 0.7933203081726661 -0.61027704636282 0.18047755796519885
Ni 7.069582614207746 0.8939086510204914 5.226740468538573 0.0622158114071122 0.7395012054696812 0.23292034914594725
Ni 1.1513066274516541 3.4935717781839606 8.45367814497455 1.3493491347148825 -0.5028165041852953 0.5848737757983669
Ni 6.010194614110384 0.21670959848793633 12.516596741173304 -0.6925446342144846 0.22389397727762086 -0.014196088994723938
Ni 7.52174332585405 3.4646996651977755 7.38833867195439 -1.9721888482340613 0.004955801343378562 -0.8123469857868139
Ni 8.150050668692337 8.340859279969928 4.137486291647964 2.937109209376638 -0.45751726602786363 -0.9024500105224974
Ni -0.3077770932875736 2.6502681676123943 5.672202776201114 1.9284754665065114 -1.3067536686418593 1.142841214124193
Ni 1.9761859385194207 7.644323012192394 8.398450431181654 -0.7617713297217913 -0.9320961155237043 -0.10506170292804486
Ni 0.253583095197568 7.209000524216728 6.107894119021698 0.7054690555856366 0.15811564533023093 -0.07828726304767808
Ni 8.242909875901178 3.6876724189524692 9.740425505069828 0.7514869170766477 0.1257122892988609 0.050963121311428355
Ni 6.919246600789104 7.055529244616259 12.722821640694361 -0.06612414532258289 0.35632121670281214 0.20960250035561323
Ni 1.2756752597878636 5.37662186836085 1.7441135357405282 -0.23578815761204555 0.40153586556623755 -0.4466265872572889
Ni 3.931245715795996 5.217488666890843 2.7018193207385415 0.3077368800362055 -0.17314785707300503 -1.5403265637701407
Ni 3.3366240416701105 2.5282694276548012 8.670092659586551 -0.8028488164883915 -0.7358106439919715 1.5689802229510916
Ni 7.99850665565658 6.452783542530991 1.1341557992999436 0.5502721265640974 -0.24655953719593665 1.1195447054900978
Ni 5.63615735861833 7.660995251182819 1.8160494518712298 -1.4122203203178065 -0.8509402726789796 -1.6791360525725922
Ni 7.960440835660741 5.609267840423595 7.800627097001856 -0.9772901955618396 2.187861980263787 1.2907755480460479
Ni 8.85878681046563 2.267157082935285 11.566125121821301 -0.6948059194448356 -0.2612492779976275 -0.3991825348427125
Ni 4.243868639608718 0.5810081639369664 10.960770693845332 -1.0392301275997458 -0.5307034604035505 -0.5523917440102616
Ni 3.3118001106069332 5.68792613610298 8.424309922221948 -2.5340170550668746 -1.8677038437450932 -1.1747293210820413
Ni 1.47449724257136 8.30551376445538 3.5575450403499316 -0.07709195718799626 0.7218701226514793 -0.6006840033577462
P 8.093247022574516 -0.08770722716240763 12.145499258795267 0.14390438682685538 0.800940286611769 0.23604115416311605
P 3.8880620348268797 9.048996032620224 2.9350508498675976 -0.037319819496380885 -0.9784361362408247 0.3518639522624069
P 0.027493518003292753 6.192584113552654 3.4141056903941984 -0.37591585100528807 0.4942850696755165 0.06303779308777531
P 7.599322721112042 2.731646767773071 4.137202273417375 0.15802359983705688 0.5974870936870033 0.3209667484629182
P 2.1647998634697307 4.031279149738548 10.292186246215904 1.0879921274947972 2.0809341706612807 -0.5263770651140548
P 5.313455476168143 2.500448550976641 9.65955500245803 0.2558180796797272 1.035641638917539 0.06639462537515017
P 5.8618411954831915 6.280878742055598 8.359014315436935 0.9090626307430086 -0.9067748631500965 0.8854655601493588
P 6.333956954239717 1.903779732461445 0.4015353841809088 -0.2813424492030767 0.4536876078691283 -3.056738782816529
Ni 2.2638189465887506 3.1966805135071157 2.188023886643064 1.03051717320678 -0.6227813494774177 0.3372945390886643
Ni 1.4242038844663933 4.0532813412380815 12.321424577080299 -0.39385083821715394 -0.14695114407297918 -0.052100320239665106
Ni 6.05365493621319 3.961132179605713 3.320926501607389 -0.002208834725860712 0.06875695495973966 2.2986778120667894
Ni 8.364410661818127 0.10260619648587571 7.037877696012568 1.156113248642751 0.5237445125872141 0.33857803378677825
Ni 7.451900660968275 4.00489680695558 0.3004710009468025 0.18632296100238235 -0.5164214965632397 -0.4568600920598391
Ni 6.2557966126009745 4.916484670693131 9.881976318219566 0.6255928507842838 -0.66736196430127 0.7924008816821903
Ni 5.493871602190086 3.2087236241937833 5.93303479123849 0.9864415230438045 -0.08558893891541389 -2.0685723066618182
Ni 6.480069579684015 3.0961583468950424 11.65269166537579 0.3432379011562927 -0.6350655661614095 0.12670987732543984
Ni 0.39949008406582226 1.9298024417706154 3.1548532962301956 -1.0316615712238684 0.06459613871383069 -0.06469255508237891
Ni 0.7590156678215756 5.683121801747885 9.613127243127833 -0.03939341419595796 0.036586026654149895 0.06632186315568578
Ni 6.098166494624022 1.3867558963357973 7.575048383767796 -0.26758730440051337 1.3945622409164111 -0.5977426613412351
Ni 5.942546635551888 8.329682978168824 3.9158884443277135 -0.7331667786112211 1.0495392228352378 0.856193807768435
Ni 2.3214801802210125 0.7226143053134428 1.6310678250062784 -1.8404606917584239 -0.14972510727369054 0.1503365156054443
Ni 3.96795599423675 5.0645245627021405 5.92284517614755 -0.5364403628873278 -0.402596702730584 -0.761427059008495
Ni 3.13476822778714 4.379293695921432 0.3142707828324062 0.15294772797604628 0.8375371118991963 -0.32217953782409675
Ni 2.4772199171177465 1.7513043609422614 4.413029160037898 0.3905487704271145 -0.7487934294048846 0.3254718354221233
Ni 3.4742530056812275 8.514313270793988 13.185843283249364 1.0627012141384924 0.5996799875732639 -0.7778432955829894
Ni 4.421776552685198 1.3433324597174827 1.4072162745835608 0.9236634113753188 -1.6800914745073259 -0.5654118104190133
Ni 1.3558550817025476 3.9270960987906354 4.307877865122069 -0.20364448299996543 0.0074256030401097925 0.8502705003054646
Ni 0.0590140087760096 1.4761202038890122 13.653641596046091 -0.021429116408053415 -1.3663793507242918 0.8461953017948265
Ni 6.4629731576219305 8.398105551901654 8.050378712497809 0.4681413214006131 -1.2150683870207202 1.2023661089627036
Ni 6.616416773109031 7.689406295612852 10.471067013945863 -1.151235094614843 -0.23705596858087566 -1.5255267797531469
Ni 4.100457875903466 2.9420323499448386 11.508509072907541 -0.9005322246744943 0.680374574510854 0.3532749736773206
Ni 5.166024194653254 5.050858490697821 12.764822219748394 0.9712630155311531 0.6853486306866777 -0.21980000971390534
P 2.2943509063770793 6.360330075651563 6.464496528131455 0.37125829762861867 0.8265240486181443 -0.5133384867625418
P 6.055001256397151 5.5111432303035075 5.172782537549316 -0.0548071776478669 -0.35759134166448736 0.2368214839725663
P 0.5833457815166527 3.356099577481935 0.8007921675573185 -0.2504023079807946 1.7994703653889912 0.9767042411513824
P 2.3196543487386543 0.09526967362039869 9.64626147384708 0.3550716605664272 0.6653521329600929 1.474202418447558
P 8.908259466540649 2.1450569078953388 8.056141147312584 -0.8951750741276389 -2.66720379836591 0.7066340224280153
P 7.680184924489829 5.212361584546443 11.857108254019625 -0.19446101672848445 -1.2181292853342311 -0.9005003429952944
P 5.395728549327753 8.805828476106111 6.0467960803718865 -0.21571864055568007 2.1207693003803474 -0.5808906227809029
P 8.832496681393893 7.685035365700539 8.626661845871338 0.1395085717520049 -0.29984333622074166 -0.006955348271910603
