# total energy = -340897.43941603205 ev
CRYSTAL
PRIMVEC
9.01016637078474 0.00000000000000 0.00000000000000

0.00000000000000 9.01016637078474 0.00000000000000

0.00000000000000 0.00000000000000 13.18728924522329

PRIMCOORD
 96 1
Ni 6.565203719006334 1.762478658267726 11.26795827998993 -0.7128483787688432 0.23010164875022954 0.8292321915779268
Ni 4.485377988386236 0.34504882908691636 6.025879483069885 0.6632913937763222 0.20306315657519863 -0.8225753483830414
Ni 2.5863592678139793 1.5392067337655317 4.614364828160088 0.6826384308443663 -0.33095574135483 1.5187439525033586
Ni 3.1797147688699727 4.477575184245037 4.918238998627547 0.8093112842842836 -0.97915501668472 -1.056462175207316
Ni 4.867607269307627 4.542736707973845 2.600560191147632 1.0247794993920543 -0.09199021445606738 -0.37991751596551343
Ni 7.292396232433417 6.057354697511512 2.6412428946792024 -0.33413413908281164 0.2570925755167766 -0.4543823199433078
Ni 4.716966296516982 4.498920268552773 11.343337332467144 0.8185777971878742 0.31940197507895957 -0.025747027057116945
Ni 5.74745903280899 7.8529997784625545 12.269888788651917 -0.6904080474874561 -0.012777868490958638 0.30711570151243883
Ni 1.903163397136865 6.648529738287864 0.280116163585806 -0.20557203903998142 0.4595517799593892 0.7218660088864213
Ni 2.793070506390628 1.577283697161265 0.3641720063493642 -0.2174711044704126 -0.2261346936826815 0.9706107266591348
Ni 0.47373833336809035 0.03994837496631878 4.968047198734414 0.2846578867295549 -0.16220961289394642 -0.49976151940905544
Ni 8.603330399319889 2.33303843821837 1.376753432765751 0.8413567427556026 -0.22232586145955258 0.0820187050656523
Ni 6.937909253995571 0.6387991765369968 4.874720795715799 -1.1925200694065592 -0.4870983221190902 -0.2900489758381392
Ni 0.8387852268792448 7.464175055703567 2.612732024997915 -0.007821038706315562 0.21320898675994893 -0.5000888208414872
Ni 7.608869318640643 3.892716270146492 3.7524694253665705 0.3402986160223107 -0.309157414532816 -0.32604056344139976
Ni 7.445469950164158 3.576918946422625 12.534690372331493 0.7733924589004875 0.6587613671164526 0.40784123895897506
Ni 7.80837242406145 8.833477080819467 7.094102291349503 -0.2613217831067758 0.21920659910428053 -0.819079419414641
Ni 6.953064353955727 0.4735320005565044 0.4747357587935299 -0.35268259150896036 0.952252021646289 -0.5124748532106658
Ni 1.830703638587767 6.5774575453712645 9.067289999045435 0.7483339732699628 -0.4719396121007807 -0.06729605414349701
Ni 9.068642425028802 4.7619540575758785 1.4013737125761725 0.4443840710800153 -0.04722190910144126 -0.04993262316438497
Ni 6.254190793664658 2.103342265041032 6.789383868286165 0.354967273778079 0.05125674129244721 0.5036744813102165
Ni 3.4619942734191755 4.386707655649208 0.4116330580973589 -0.44057009665056385 0.029828653325658303 -0.4556488453605572
Ni 5.890459384454444 5.639535259133153 4.780115850078666 0.3505724871444931 0.057802255720448836 -0.17907553541134966
Ni 5.422831745969218 2.938197257317054 9.147402992972747 -0.5369553548505333 -0.19958471110829495 0.2400507895431414
P 0.22108155303946306 5.537089666655754 12.51229830668287 0.04811665300156874 -0.8786166555483256 -0.9741151402679674
P 3.8849945575032967 6.2683908159816655 12.604041623457134 0.9432027669598272 -0.11635141690925123 -1.019772018875134
P 2.4820395607160615 8.532979019718875 1.3518286093294951 0.19350045258742804 -0.05267650445810928 -0.7518149898400279
P 6.221573991134473 7.637503627602224 5.789193222764669 0.4464725781779278 0.7597044198904336 -0.45327186048794843
P 4.948698767310846 1.1934235761133638 12.723954324604426 0.2648570499535438 -1.348933901554335 -0.465285854229689
P 4.005730787863644 6.175838386260659 8.031230781923828 -0.23719917902695925 0.009087049902932737 1.0764098219738365
P 4.812104644007647 1.0251226770909068 3.805350993247758 -0.04390595735433084 0.19693107553553182 0.6890232513247876
P 0.2991762696831402 5.631840576989291 3.5438074857546225 -0.41240546129088973 -0.9626863296057357 0.4632256292665506
Ni 1.446393009217626 0.959798970366092 2.614314210225622 -0.577815840510321 1.247894689522122 0.13002042975591158
Ni 1.8082052529750965 6.6002712868095035 4.849085070147048 0.10182262716545691 0.3755808362633725 -0.456206260525924
Ni 5.972154563609464 5.509797872494447 9.175412897399704 -0.8439090768638111 1.480790870298353 -0.02757713828732025
Ni 8.656175025518653 2.4177249926330644 10.188869210977881 0.18142089571507464 -0.2591661702163537 0.4611137251298704
Ni 2.3276413485179335 5.310601112732764 6.848937464419728 -1.0238521024817786 -0.4227981173791235 1.8712807624630738
Ni 0.3237361813783816 0.09575193982555572 9.128532100370753 1.2271674842770997 0.13025337170232404 0.4009496540454643
Ni 1.3758343957883812 0.9139732638278288 11.38917565323843 0.011347820912651425 0.05184552391638167 -0.2601424180866939
Ni 4.249771146021107 6.792746462403365 1.6341423525111884 -0.3743603335927101 0.40754504787479495 -0.7548635468583644
Ni 5.743395447742385 7.787009319420824 7.925521707160121 -1.205800588565549 -0.027180931290166094 0.34032972637056225
Ni 5.274974914610017 3.1236535132504146 4.512057091229295 -0.10101812898629055 -0.9320909733173818 0.7380498177351354
Ni 0.6927556572750493 7.533850672821221 6.9828015072901515 0.8101281237586241 -0.5723566171679627 -0.027291745836417514
Ni 5.1681053304082205 4.525689473060281 7.036631845697977 0.08443811314042234 0.4810762842947263 -0.13015798377504037
Ni 8.263511971854179 7.03780496936909 9.123389097364061 -0.6965948930244583 -0.34521482237700546 0.025288599363459674
Ni 4.696540249186616 0.42382291228053154 10.381917433157632 -0.26672264240737287 -0.42237028581308544 -0.43904414692434063
Ni 8.160778054050548 7.087937535467969 4.851682701133084 -0.032165014768318796 0.14235066918649034 -0.710116581659977
Ni 7.310200321328346 6.053939844428932 6.833772453276482 0.144297508500216 -0.5955657082945743 1.071002020694704
Ni 2.266741633517517 5.410577919604287 2.3952599446362397 0.3160083760163783 -0.6274432737294614 1.125759576051558
Ni 2.2211141506410392 5.276038114250504 11.413757189333138 0.798341158426025 -0.5946629939746468 -0.1681720011249684
Ni 0.9783328827430497 3.3704239518406522 3.9133540563883114 0.9450017678417789 -0.48211475286156963 -1.4271424888452777
Ni 3.5718101820484227 2.514818546242251 2.658478442071464 0.58774724069142 -0.029752548672084246 0.3520138475767099
Ni 1.0079853405128933 3.3377530883118003 8.360556870564565 0.651310310155046 0.26601173238327736 -0.9994921855801754
Ni 3.691771538094517 2.7626251539736417 6.923999359038085 -0.29119980161313075 -0.7746402152646594 0.2703594678290118
Ni 4.0355634489623835 6.874378570393271 5.954377505213869 0.2862717681838941 0.4965183298814094 -0.28724698761296985
Ni 0.8516175059299319 7.251805432599584 11.19362170377038 -0.30711004508548395 0.38609407708987054 0.2976818097930486
P 0.22549563358077157 5.501319305869889 7.856406522395335 0.6879755267865635 0.020796367920060954 0.4966227166697576
P 8.29079475584904 1.731573787362055 8.065081977256948 0.9331078446176703 0.7875939472118502 -0.7465725104941658
P 2.024296074820784 3.2624641374990344 10.406894515559268 -1.784715832787636 0.179826040424129 -0.05415051790047448
P 4.02208423996096 6.099747530634305 3.77267292158575 -1.2434929609100003 0.8818004525929458 -0.24653254061274316
P 6.8882812572176 4.049961694941177 10.393258529661704 0.19400207481419493 -1.0358833226146997 1.0936827501216713
P 6.344238397114009 7.637323424273328 10.088764459742842 0.1212362558053783 0.076571565908152 0.5078288697982221
P 2.4266000065811943 8.566911306549999 5.829968731010622 -0.7313052999224502 -0.17068756845797056 -0.3537020339124102
P 7.00688207813053 3.8938785816178716 1.5791253751825827 -1.2136491380756904 0.5959400609148574 -0.006806995619504407
Ni 5.16697905960262 2.8893080941875584 0.800568605903617 0.6237174881384419 -0.1884286944914755 -0.8156855632417437
Ni 1.338063778051771 1.1492827707002788 7.10486313313453 0.3272914051293654 0.22151750662564432 -0.4140861914274223
Ni 6.822732296331665 0.7189887568790904 9.166709076614026 -0.969423391219253 -0.5042298395930541 -0.03582292323588024
Ni 2.656476383087429 1.5272142022275002 9.163873577233847 0.48827151649158484 0.19766358282618218 0.23844564983955066
Ni 6.501132425417347 1.9193006052395056 2.5896804151655335 0.14590419086570355 -0.23537369578244627 0.614228060590768
Ni 4.185979167591909 6.973211086126305 10.433058236881685 -0.13625689758392662 -0.8000470853735383 -0.6570922069441458
Ni 8.172500280595235 7.169524592625651 0.250029415793323 -0.3117575711598244 -0.06703174473851681 0.5233431633837374
Ni 7.61445562183642 3.9471016348073173 8.253107031643722 0.15122200353419116 -0.5374672614899453 -0.7044079613109739
Ni 3.2200442738769066 8.489018417634686 12.270575363335011 0.4536135600980833 -0.21808688367754056 0.7350843073489082
Ni 0.12582517236837146 4.79875157733645 10.239996499452268 -0.11245362451674182 0.46852364444069633 0.054686592909602594
Ni 8.5498370411371 2.2828157704550436 5.80625757699448 0.13513383972307697 0.47356532062966183 0.19336469834051212
Ni 3.5906594502509486 2.319991717206297 11.458435901682979 0.4338518040901238 0.4962967007889066 -0.4269149677609745
Ni 1.0723089187623351 3.206799329203047 12.499018222359876 0.08408612911764228 0.5311292350870596 0.30094016882934627
Ni 3.0864144953340475 8.477800760410906 7.947280358107674 0.6649376711304935 -0.7911410411331601 0.2555961934769082
Ni 5.505923500923183 7.833213452949769 3.621585945556087 0.5689900146885749 0.1351685496157543 0.4064687840914806
Ni 3.086162210673593 8.274792700243072 3.384966360482563 0.2870832083415959 -0.2379640822174418 1.3870484490378692
Ni 3.3907238568407916 4.348270285595683 9.148062537156509 0.3761724471007844 0.2634015484539399 -0.4091535300124953
Ni 7.252481195082944 6.005275935460556 11.49855186574517 0.1443890397727578 -0.3692361249922673 -1.10566897594927
Ni 0.48816360984621837 0.04855218290446025 0.5766128097682621 0.45978960700180815 -0.035731649073654594 -0.452823202986304
Ni 4.715227334393135 0.27853487937474325 1.7171304905510374 -0.2468053346581556 0.2668110883561211 -1.0788629115000195
Ni 5.968289202204644 5.474036521875028 0.2989257870559747 -0.3185285713350708 0.29493818560964047 0.631309441553087
Ni 8.00812781414271 8.672014898128616 11.204382545555408 -0.37105466625824485 0.1671476736255121 0.47847227101297596
Ni 0.10765617173242815 4.693089355438257 5.703634484238119 -0.11351086213666259 0.734468013921148 0.5638156695764871
Ni 7.829321061045615 8.68615184928051 2.6314443386704798 -0.03405734669502521 0.01662706703371975 0.25146725891019917
P 8.55160303376028 1.5400266589120086 3.6392701992373 -0.3294339053936649 0.6221164621999091 -0.41973181974897394
P 1.975497013355736 3.306235526087883 1.5931956511027856 -2.0182229076749887 -0.018334793753445842 -0.5636567754011196
P 4.766837567788962 1.094798294208561 8.096731988927605 -0.321336215987195 -0.11384947642300394 0.7185567420075302
P 8.554215982029273 1.4750363283456516 12.429059686015856 -0.6384280548757392 0.7633317322303758 -0.512041365217673
P 6.30050304919094 7.587902661323589 1.3495742656850058 0.12753391588863197 -0.2873701434543954 0.4707988136281182
P 1.7841120679016957 3.124590570560674 6.058926070539486 -0.6697145236938467 0.024632453836699514 -0.28825511716251
P 6.927925989574729 4.010974704734519 5.821713616513893 -0.09404915386762512 -0.37037229547923955 0.5596561388821588
P 2.48368842117546 8.427884438306704 10.160727758120832 -0.5617652148053616 0.6633304745443738 -0.2928661335719601
