# total energy = -381165.0021555557 ev
CRYSTAL
PRIMVEC
9.26971723296056 0.00000000000000 0.00000000000000

0.00000000000000 9.26971723296056 0.00000000000000

0.00000000000000 0.00000000000000 13.56716816781180

PRIMCOORD
 96 1
Ni 0.4062768769204488 6.315532541934387 11.616819894435366 -0.14632276646036088 1.5727957400424397 -1.0259709485969946
Ni 3.3821768566460486 7.895833944162122 0.10776417128964288 0.8529354487321376 -0.4261469792466983 1.2571141512378607
Ni 6.448617872951418 1.9465850109069167 6.617549200697772 -0.6630458534244194 -0.4543586657942239 -0.5620788893910384
Ni 1.4639201017527874 1.6463574075789493 1.5012075395194524 -0.48845380770572006 -0.9017324156301826 0.046398384758881375
Ni 2.9618507962130685 3.337978844645686 0.7539774833644939 0.5911945758100721 -0.008446073884824164 -0.12991527163661498
Ni 6.249263333085688 0.7687404351077358 1.8950759728862758 1.260927354336364 0.030920857948572557 0.0057502722202159035
Ni 2.91890419604577 2.8893708767854602 8.012878029422732 0.23108843814353106 1.038050762579664 -0.579327392058841
Ni 2.7550619430872105 0.8801077455048747 12.933689836085854 2.048331297024595 0.20960558567940676 0.5458799110336727
Ni 8.366717042650887 4.872163403395694 9.592734485220934 -1.4598713465368662 0.6465278011647382 -0.46744378111295626
Ni 8.789963064027683 4.722856067135241 2.9846821098785243 -1.0961288976693186 0.4412051591314014 -0.443579572900849
Ni 3.745966911376384 5.133143023751863 12.708977057623608 -0.707643437529136 -0.5887674544258182 -1.2777457114452833
Ni 4.966047100027337 5.651959830305619 10.75591529525179 2.303465977484052 -2.088613798693726 -0.9973026341280244
Ni 3.4987435514666365 7.2507635882281365 2.7365790537987196 1.0817916551110403 0.022208417776239175 -1.1190572243307177
Ni 0.793345972660958 1.6034664257153421 12.3853860588582 -2.3267989957830375 1.0160889135965918 -0.15494496091173315
Ni 4.79344496423733 7.1566296092298805 4.8422444638964555 0.6656740350758859 -1.0361805421401444 0.5449849100232291
Ni 7.022969555741368 3.1265180540097224 3.3826746404640895 -0.1770137677863145 -1.1002992269969243 -0.49663325819271886
Ni 5.478838590347822 6.538302387654336 7.180667840085448 0.5170043656499032 0.9784857585318374 0.5027504268340502
Ni 7.4965779511110275 8.223824350749547 5.350822867712291 -1.9111192346162507 -1.1292362217462488 0.9020003245795885
Ni 8.426015424103555 8.116258551409738 2.2655680332114643 1.0131902518925582 -0.401284925897696 -0.6329521193628326
Ni 0.8557747376397421 6.250004910468245 9.003946144736066 -0.4317044187298178 2.0543337944649327 0.9248682303166975
Ni 3.007865672800695 5.768035230110263 5.81750678427233 2.862483711451264 -1.0385323302017726 0.6572912103288293
Ni 6.594022658236169 7.454734447300281 3.201010429059243 -2.0506823137552748 0.5753982322077638 0.9862795435446433
Ni 0.6883460310647942 0.09477266251898257 10.382994568998729 -0.15951689655313173 -0.2462818580545178 -0.715237190715994
Ni 8.096365738122662 3.467921741504135 5.1972431187565835 -0.18128976945384906 -0.2543268398461814 2.054233778551959
P 6.334387146885884 6.169738428523794 9.193886359730243 0.9202181331391959 0.007844178634767135 -0.23889790688562082
Ni 4.153649077436777 0.5191672018670129 1.4439809398793015 -3.6421460625208635 0.2757256172369316 1.7957594921963071
P 3.4431901357958785 3.728845743556612 5.550138474765436 -0.03204700113321578 -1.0747157221008652 0.4017045299336178
Ni 0.8292105088248429 1.6219780511274067 8.020150122630426 1.852907659272525 -1.484578105254927 2.1083608994136656
P 8.835588612489467 6.702385653262227 4.105045168812301 0.040498988555310894 0.3199848441656231 0.03274916940656295
P 9.156209593837737 4.5988087104681155 7.4215127075334815 -0.22830110520638103 0.23790983194073867 -0.14661921465485717
P 5.903641924227987 1.6758907268392589 11.794115288085226 1.1403012213111587 2.0017683616633914 -0.8275046673638587
Ni 2.159621653480813 5.799023894983839 0.7884265336994243 0.8041004295073055 -0.11535460021362069 -0.7827083369847745
Ni 6.2469551734824815 4.4621730777320945 12.867726527907461 -1.5760875234198342 1.736724392510022 -1.1109150548395577
Ni 2.0173036840509537 7.270906683881825 4.803401567569878 -2.4859237991040737 0.8498961476851815 -1.3091342530588936
Ni 1.684344709000402 3.680161188391783 2.843909402319567 -1.5195271105262862 -0.019385089394831134 -0.09220618712161541
Ni 7.038561220209616 6.48906164945259 11.839606425646423 -0.6299277307142119 0.12250560943610514 -2.223326491718984
Ni 8.11214279693655 2.7584917384815335 7.985322867830391 0.16982676311957207 0.9764119067219442 -0.04107697254596797
Ni 0.651712108366507 3.774480561735678 0.4967799076593627 -0.9003795011467138 0.4882967133025655 0.0749761963965741
Ni 1.984275681375347 5.140864698247732 7.566464203643144 0.20236227385343214 -1.6905640919038758 -0.039615300398776934
Ni 8.007098360697432 6.156102674402038 6.222826099397552 -0.06355252794066475 -1.5731214988129747 0.19597179694605604
Ni 2.391587058744462 1.923568302895822 10.3315615426598 -1.1753458716201177 0.21380933934810917 0.960819708710642
Ni 4.8658785350785285 7.5252677260986784 11.666964430072102 -0.6670765718503673 1.7589461800226998 1.4263801567579566
Ni 5.216125532859928 8.859087345799225 6.7876003102917855 -0.6196032088597522 0.03128569748715902 -1.0883762503070933
Ni 6.901443562174935 3.139838637743892 10.297114346268325 -1.308900796891849 0.04671591599930019 2.4543182563836505
Ni 8.782445323312018 2.2040699478477888 10.204965940711865 2.5409191815033467 -0.9424458341891447 0.20223011915094202
Ni 0.4738846329446614 7.857587090656776 6.5493880425518265 -0.9705791020902511 -0.38692402919033364 -1.2464589855168597
Ni 4.365128407507305 0.4809463035700549 11.06322496258317 -0.024129288948035864 1.051187557071938 -1.0069010764497368
Ni 3.1514350540636182 2.032107422550236 3.3437640752013547 1.6043891985780045 0.02720484254956605 0.08682769641852144
Ni 3.270875361241612 7.2620726433121225 8.14357084640929 -0.9680864175753844 -0.6008768360948427 -1.356346134858006
Ni 5.105723200031839 8.086280285719894 9.294053070735597 1.4644664221067165 0.05174113712803347 0.036579856006562814
Ni 3.5520722349897254 4.91405325579285 3.5566199582882527 -0.9731715454077755 -0.7044951217081415 0.23308309997605667
Ni 0.16755755564516722 4.136008805449216 11.643981093043223 0.24183127848233188 -1.885256507916876 0.6314907043259576
Ni 1.0016207614671138 8.391207635709813 12.68399980440738 -0.5192718215278411 1.3913540183917588 -0.46939524841237223
Ni 1.2516806548651394 3.823239274638763 9.53235988959183 -0.09115357748738495 -0.3190972993543472 -0.5709846765211005
Ni 2.3259296512363727 9.102055905476554 3.4227661677085464 -0.07650008924026826 1.0849409993732992 -0.633339070388606
Ni 1.2846159603679266 8.424319065840958 1.3796991584158547 1.3124383777314623 0.3711045456595738 0.8955874790747091
P 2.4488275629605356 7.031201064687744 12.053900041883752 0.8490168304040218 -1.7152628802021366 -1.4239093266199605
Ni 6.824440020713731 0.9656913372822551 4.50082687182612 0.8590312772172304 0.28991116470869427 -0.5797922475104015
P 5.920911407524269 0.7783670365050464 8.401645337369295 -0.6630497100791614 1.1456239190756528 0.11758811752982974
Ni 8.776280961319516 0.7760857590819572 6.433157838468574 -1.324320988101661 0.5487842291646612 -0.21455213105140467
P 8.468878596815316 0.8824121972211688 0.2849195922085466 0.66754991194236 -0.4324610943901843 -0.595171043959317
P 2.5119079890642415 3.14400074080349 12.142642753310822 -0.196209623988475 0.4451962825686655 0.14038943169506143
P 4.792462374205442 3.3687357665872137 2.098881830990801 0.1765082889048057 0.10259832898921684 1.4283856172237592
Ni 7.874420897240806 8.471205295853087 12.267609665932317 0.6438944773069492 1.913992185288671 0.4967016495368092
Ni 7.708261214961758 2.750158262645056 12.799592251941633 0.849667319503827 -1.4959575507364622 -0.66827779124732
Ni 5.714039126942873 5.245186096538857 3.5439074680077787 1.8369287673457653 -0.3747079467401159 -0.09759701911988353
Ni 3.7244148186958377 1.494482359631394 6.116540448014381 0.9851240897839615 0.7705341635160858 0.015514807806147474
Ni 5.899118302194392 4.500160379153547 6.525997764934269 -0.04634310604091374 -1.1773626449398302 -1.8455324498543764
Ni 7.093697498602687 3.6624004100795573 1.3581275993290165 0.2210554793875612 -0.12251255141464062 -1.372062002931366
Ni 4.45404353567582 3.291407785021143 10.432066598345942 -0.683311802762307 -0.48641749400198164 1.0440923407880534
Ni 0.7234105906272463 4.813615869042865 5.067052720446706 0.7211412149052548 3.065503159272721 -0.8808100636552186
Ni 7.361091763317968 8.498958829395262 7.812328622999357 0.2902829462258162 -0.29971683794520637 -0.29891851041362716
Ni 8.324233928347686 7.785227677553833 9.789444374746122 -0.06473343562264336 -1.6161527668718358 0.6143023654721291
Ni 0.03852957988244711 6.633975139721397 0.5153193422232732 0.06617428183422797 0.4968137496346412 1.1518159068189775
Ni 5.2626595136153425 2.7806370930681252 4.622103509997669 -1.640400069454975 0.5151236036874225 0.4330946142091251
Ni 2.8356343257019656 5.455330587320783 10.320042991965241 -2.077754487381718 0.43916241766975983 0.6948362584621388
Ni 1.633342724515084 1.023163584430378 5.3924744883753 -0.18444091348832106 -1.3811439106279761 -0.9133854264880786
Ni 8.397714977241746 1.2123028958513933 2.4108995877296877 -0.1211912615000558 -0.15864117881639775 -0.7882066410951845
Ni 5.225914354309672 2.6084984431422154 0.08344043314179224 -0.5337885270867775 -0.9843123925159434 0.461369035673786
Ni 9.149220227007142 9.114097268225812 4.295514684663277 1.6420085515926754 0.24411544653081832 -1.18934218589921
Ni 4.888607881853884 -0.0044893240796509415 3.7951575931048076 -0.9964148322064325 0.42762407801285707 0.207868548383642
Ni 4.24103470225377 4.90053800799576 8.568793171510599 -0.4090753684763923 1.0879319636808231 -0.8847124840334182
Ni 0.9570612304927547 2.971241019819689 6.138289058701305 0.7540863023727078 -0.14833851133880904 1.6191771555204566
Ni 5.8215956565654 3.3816948313473874 8.457759570935611 -0.4054832802497597 -1.6476819478283689 -0.801936074866135
Ni 6.942165430194564 0.39664749460795357 10.246509105682675 0.08854519333026041 0.5327564862778372 0.4351152441835797
Ni 1.4812544730700437 6.01635241665928 2.841779221288174 -1.2273047811859121 1.024054705410888 0.8740079531317206
Ni 4.549150834988681 5.445838396824061 1.2424517243392246 0.6687092223577839 0.1372665697953636 0.7888152212134609
Ni 7.018075145016496 5.971144005475184 1.5227114296701323 0.08461860458234459 0.5857008996853527 -1.2636370399580432
P 0.21422872821635566 2.2691804420362427 3.7390164773583736 1.4251948782006036 1.2491020795666616 1.9160554955756033
Ni 5.239893087970861 0.14497374343113958 13.144904052242119 1.3921662298804087 -0.24303866852687178 -1.011466327222916
P 5.709608202082098 7.963651195796907 1.01753223118159 -0.143589683799914 -1.2707425406545727 1.536130266300606
Ni 3.5186456344709947 0.84322075952479 8.789096345461822 1.614985228926296 -1.4061977682728104 -1.8430582772822708
P 1.3156602435451947 8.368645143845534 8.27902551716359 0.5472893897866897 1.3462738382236685 3.0589293627099443
P 8.151891344641575 5.358730863525527 13.077515988517488 0.5438338271379215 -2.8756870975154154 0.5078211564887384
P 3.384827995788688 8.60903672211848 5.571072277303276 0.42805165246857896 1.552789472123842 0.15781405492941208
Ni 2.9511350030351284 8.269218156279281 10.204260515226707 -2.089496972629627 -1.2444794931929857 0.794147946280284
