# total energy = -340864.0621698658 ev
CRYSTAL
PRIMVEC
9.37245588608613 0.00000000000000 0.00000000000000
0.00000000000000 9.37245588608613 0.00000000000000
0.00000000000000 0.00000000000000 13.71753657164826
PRIMCOORD
 96 1
Ni 4.100102709767475 2.1839134573981305 9.204576547113971 -1.6235387749232622 0.052683960657277006 -1.1539195834255418
Ni 2.6023373821068696 6.946798764148474 1.357872986969579 -0.2913388982941563 -0.8672989165426611 0.31070419019464557
Ni 5.140557792864118 1.5376826176734737 11.306816548623361 1.9308377960911005 2.3960658004996604 -0.5328246205116113
Ni 8.717771183585347 2.247646158052629 3.4760649085545516 1.7808380949997846 0.17539165880185922 -0.24936126831078992
Ni 1.9801375195113502 1.728693270517397 7.317661223748195 2.108653233843104 -1.2592574228331086 0.8259023558737453
Ni 0.3861442490728335 8.66731925305253 4.876474786983018 1.5145132022514627 -0.15587647158706705 -0.10916904022819908
Ni 4.3558957783354995 8.959871093968633 11.800922118113721 -1.6831143204940495 -2.7727231576566638 0.4455464668192327
Ni 4.470764598809255 0.9169008076675174 6.5827575780099785 -1.3329907479615173 -1.3311565229662559 1.0809943560207256
Ni 5.980095537147455 0.9833299639070597 8.767604532023578 -0.26979408224384505 -0.6246117178179372 -0.16728548475495705
Ni 5.596780832534562 8.735550732576757 0.8522036812928209 0.05812004407118377 -0.3368602797647231 -0.11165324010263353
Ni 7.114340787221975 0.7640426113756923 2.191472343144873 0.7452388792844068 -0.11367849806277841 -0.15164109334948078
Ni 1.193235488003846 3.050172073676464 12.147564276973537 0.44591927677761917 0.9263759252104755 1.5291273526202118
Ni 6.2219423912193195 2.8474177334913513 3.1700682795371407 -2.0740101898479377 -1.2031569802951152 -0.020906411135363998
Ni 3.556987630719405 7.599252914642922 5.459566202516623 1.1920171616282116 1.4747760315628407 -1.697784778022031
Ni 7.710757023420358 5.723843218236478 9.847215861707628 0.26977762718361287 0.4484921797111179 -0.09146031009452635
Ni 5.896333898066683 3.6057806365440106 10.072498774328507 1.1608391933635105 -0.8853346909984494 1.4521474955300475
Ni 7.802888265690023 7.519062181289998 5.557495246054651 -0.9772400590501944 0.5237329426229884 -0.38382944942541
Ni 6.27800842288332 7.061067747439598 8.389124140204448 1.7204279693428437 -0.13511712755252858 -1.4254414469937708
Ni 1.313568450313126 9.162166183810793 12.620710223158946 1.2594427993710373 -2.126149076635022 -1.3638108186661675
Ni 2.3908197955817636 5.392320705361343 11.167501551220617 -0.9573867717696931 2.851104523080045 0.7062285594594805
Ni 5.39858150595505 5.784361166490316 1.9682748019792329 -2.19112265329293 -0.2016894161561236 -0.05591300911753597
Ni 3.3585821101083644 3.572395948348228 11.014976077116033 1.5191072493800484 -2.589905381594062 0.2777387910122185
Ni 2.322925724472766 5.844401119489245 3.724174437711318 -0.49147253992738577 -0.13083855478183273 -0.0020746231408415882
Ni 5.75467859840608 6.055993685662179 4.8848556371190845 0.16248214982904277 0.42859955455224896 -0.18679244443963314
P 9.01972359784799 7.002977265284218 8.503335951514103 -1.889667492500378 1.7197563971971157 0.8042464681668666
P 1.857780106710692 3.5486555173544274 8.592582351833553 -0.8078740376171247 -1.0764661291330686 0.4714999534602009
P 0.19932027231455224 5.335289310731546 11.169326368399652 0.15376842410512873 0.21646528891371752 -1.0322781217619448
P 5.657945480250923 3.815376869593503 5.088026114349647 -0.9106713699910253 0.03342305554513599 -0.21393660895459285
P 2.6873174404648603 7.3524105415344625 12.822262077242003 0.6101266368278847 -0.24828423319652723 0.06565131945122243
P 7.67908749466866 2.0388278388493606 7.750243180458212 0.20537509253782696 0.3131958462682477 0.7331940323047308
P 6.780568884911976 6.825397341857633 0.5726167587319172 0.28655253264910646 0.4699202676779068 -0.5586554655317862
P 5.62717570727317 4.901578910321706 8.511045733802101 1.6835100132705716 1.5608951319501119 -0.7191051583118325
Ni 1.7178493389501537 2.2642354051347553 2.226698718940452 0.8198507503630267 -0.5026347271917925 0.6252254401425361
Ni 3.709796152994543 4.631408494282504 8.85132305780685 -2.4551235258937654 -0.7763759670088435 -0.008260183126263193
Ni 0.6511429439030421 6.402455893367207 13.017599055765649 1.5254126227727858 -0.9918768351267627 0.11503449787004058
Ni 6.897490273245045 7.15301154058969 2.960134638072419 1.792439683794455 1.6514884660586526 -0.6155812321845527
Ni 8.65725323533151 5.778512753959668 1.099792101897177 -0.012406601194468956 0.5027833369545147 0.6636130387817991
Ni 3.9135533459693663 3.7395162109026927 3.5891389037084034 -0.29903575271778177 0.5647497513549822 0.2706512880378178
Ni 3.1967479127258316 9.148398045978228 0.5256288879287904 -0.1670862242599574 -0.33703871432411636 0.7578884497276174
Ni 1.208287652305482 7.521658351596071 10.687648675536922 -0.11641055228196082 0.059960182603716085 -0.1374105515723956
Ni 9.370056629872181 6.130551572971964 6.622497728604852 -1.3474650303182922 -0.7309018938364444 0.11571172644272332
Ni 1.3275052923533082 5.8406708820097615 8.86767424450712 -1.3321258288580609 -1.2612410289220408 2.0182568462367176
Ni 6.739873681052883 4.469967940051073 0.530440706828205 0.6318630000637118 -0.7640848083463163 0.26133309596068544
Ni 7.973495081868528 9.087233398261866 8.758756933579777 0.8911880644554329 -2.9046508317376167 -1.301446654606649
Ni 5.481527741365684 8.952288777081943 3.3284365426987863 -1.920882998871234 -0.2701452949356767 0.8306113313136404
Ni 8.819321744113507 1.1567485168791456 12.540092105813397 -0.4726556643311989 0.31415435352677507 -0.41884427493769805
Ni 0.3453487599347695 3.5552068640834706 0.7272585333964704 -0.40301784942840263 0.006224383643157022 -0.2550416065250188
Ni 4.551723873552424 6.258785515671206 6.876176371104104 0.0631717475624783 -1.666113157950363 2.284638560364904
Ni 5.637635368145291 2.9199136804858434 7.020442837000344 1.672356310646597 -0.699959438621317 1.3559992930415485
Ni 3.589116409814055 3.4822797841139628 6.438312098204547 -1.0543096476406875 -0.18421311374823116 -0.8959777725345924
Ni 0.22451905745862347 4.6050906378945875 3.061713315968515 -0.008903473137216926 0.44415550000897697 -0.2502110179055949
Ni 6.682954755894828 8.189286508319876 10.87294494197069 -0.38407781799079016 -1.3654612097853966 -2.038035571525542
Ni 5.017019450610156 5.92170513640076 10.547537019375994 0.3845899817405183 0.17321496286551458 0.3781395981294842
Ni 8.489242589459078 7.892114046606321 12.331009483351531 -0.7047746006217733 0.16660645641006144 -3.900260651544251
Ni 3.469917514678186 1.7724720123934503 13.192895848915848 -0.35768904358461623 1.3583526237650736 0.358378356342157
Ni 6.553699215493919 0.1432682993345188 12.560311305096036 1.0490368292775223 -0.3506408784885832 0.9263401868765337
P 5.0090060007484505 8.15055952021629 9.516335362067027 -1.699310213527622 1.9888441974025555 1.3812241290466083
P 1.6327568111204198 6.939160212525912 5.657166629159101 -0.9465660270051053 -0.5564512587916159 -1.4988528700063863
P 2.5276389079574058 0.2399020694563041 5.536342550156542 -1.2913519893748084 -0.3832342390435723 0.9672644358947211
P 9.291121805620389 9.30621145974594 10.639074985182216 0.40393676169824627 -0.9819307796576445 0.710544413226015
P 7.944356116231052 5.329731444336235 5.132388760233167 0.49847802471094144 0.1135298883000561 0.1661048341832946
P 2.4793895045795593 4.32328900398594 1.864267720739081 -1.0471761219196998 1.0209698958379771 0.42307836762370354
P 7.7509648595685645 2.8231149551388346 1.7109746424898487 0.38011163425419053 1.158936319913843 -2.168027719146679
P 3.0476696279301767 1.3459221683512628 11.152041685083914 -0.5578113723639361 -0.6225553495095407 -0.8590765286328689
Ni 4.395250720989652 3.6702443887648397 1.0686717990658245 2.221386337273478 -2.2137781859089163 2.187745509290581
Ni 8.676663591663196 8.288915715372424 0.6192672211198142 -0.781401445247893 0.542685315355775 3.0175857667661514
Ni 8.63410326906436 3.7053254914927503 9.234014494097165 1.125963207421932 -0.10687201666390626 -0.5501610549075299
Ni 8.148460090077084 1.536051810333197 9.908506100334103 -1.1815617706228425 1.9692248805097312 1.7371396256705693
Ni 6.01943173488965 1.275919294647079 5.021866884842289 0.6676327014641533 -0.5109743574057394 -0.657736525396364
Ni 2.9845648818262447 9.283576978557614 9.270668294938284 0.7458616004700703 0.39555522250277037 0.7176902802421768
Ni 3.0191117545633746 4.608155430999591 13.493762932776168 -2.465128716735593 1.6370908025760837 -1.747167956440849
Ni 2.147267154521794 5.293806820570251 6.9351750442438105 2.7912955213422124 0.8165147440112583 -1.3878804580208615
Ni 2.633191507188429 8.922906127589025 3.2164609993856264 1.3313262157749008 -0.7304725196085097 0.5752948738606801
Ni 0.7240091029086888 3.62570647795452 6.7203442945302685 -1.8804660285067678 -0.7376726369013746 -0.8170665027496702
Ni 7.136619115083113 4.899695046670007 3.2310698465194747 1.2684843407480155 -0.6378428717962306 -0.5005763020008669
Ni 1.8619039873412773 8.157748193951878 7.441997162005936 -0.4860359422928468 0.2982680213138218 -0.2620406635506713
Ni 4.821622488368246 6.565302315995429 13.236969823155226 -0.6555917111392193 0.26614594396829644 -0.29253908924984456
Ni 3.551326667308329 1.5230709588028324 4.290310143134031 0.6674046446137474 0.7642886968270063 -1.4033443579844154
Ni 7.840921692051193 2.70992380428525 5.6160834056224935 -0.8920249585344315 1.8819852933647716 0.24304381073319437
Ni 9.341676833168972 1.2522632157570859 6.545844160138252 -0.37682087931806074 -1.2630793676823602 -0.004734172250875717
Ni 8.337202608574184 3.9701161178002335 12.26188668326374 0.06952931434938993 0.19206911945754018 0.574806621370352
Ni 1.1828226894116185 1.8601044757933856 10.283104420886895 0.02468439012055749 -0.46954565794730746 -2.1340233371767763
Ni 7.233558427269801 4.661334746222183 7.258881866078388 1.985226141033994 0.44912287131658135 -0.9641215193903653
Ni 5.136190228378089 4.088143455938777 12.570860004299954 0.19598259557933345 -0.27592487773193125 -1.210946908653179
Ni 6.124899982016866 1.997673384647316 0.04676949257882535 -0.7152194501041811 0.9464665253127635 2.2933980517250894
Ni 6.902045286850646 5.890363643608313 12.07462876179365 0.269859902484774 0.6802424198083639 1.2021635060335942
Ni 0.6135734541128132 0.07372467597328672 2.3368232021978375 -1.0391362823343588 0.3062685230207951 -0.2848913428965997
Ni 3.3203143723477293 6.869841528108167 9.096770809465692 0.34162016304721166 1.4811837348613974 -0.193516393427028
P 7.141333460440351 2.271892701669274 11.967069519737606 -1.4815753138728613 0.364990719452352 -1.8964760307817787
P 8.13366098208687 0.6296987646239991 4.744676499275114 -1.1919359147683148 -0.47728699245562317 -0.20198457879903925
P 4.616140763493361 1.2546906818555439 1.928699606609583 -0.07653685601547464 -0.36861828890261034 0.16011056427307263
P 0.28193284829234794 7.256549061785314 2.4151094524959102 0.6961927724900333 -0.010474931389394863 0.08652867712086387
P 4.1524666213199275 6.925860697492276 3.4076141135604243 0.4525077286284142 1.0721492469252698 -0.9107227920542509
P 5.77440761824104 8.064595353980547 6.137349415293245 -0.3884978014353567 0.4319016223422884 0.4935787876371113
P 1.3099694272173428 3.3635401393210453 4.421711038708444 0.7377423137970456 -0.3898663996481092 0.6565139658431726
P 1.0917130448436214 1.3539262457569894 0.15864100163062292 1.1776521511557911 1.9893206228183415 2.736179297094359
