# total energy = -381166.71664403495 ev
CRYSTAL
PRIMVEC
9.29962756059616 0.00000000000000 0.00000000000000
0.00000000000000 9.29962756059616 0.00000000000000
0.00000000000000 0.00000000000000 13.61094495568793
PRIMCOORD
 96 1
Ni 5.168035456941032 8.8986553999624 4.641685843683746 0.5030659011919401 0.46399773154588475 -0.7086343406874958
Ni 2.4753376324382312 4.410450607484476 0.5494573275105719 0.4466612971499662 1.3526900261626575 -0.6634831980721542
Ni 5.9389373728861194 6.227672205522953 11.220454323504708 -0.268492332713286 -0.7927976028999766 -0.19325825466963492
Ni 1.882188795307253 7.030676435377549 6.718089918292538 -1.384678406143796 -0.9895276181682958 -0.8535244884663881
Ni 5.964176561747765 8.515361955555038 0.7243200821175332 -0.313510292184873 0.1779337084974226 -0.08551720513721402
Ni 8.712179270613206 3.6163368214588187 3.965290461595543 1.1584822630955598 0.23480111110842786 1.171043387590022
Ni 1.6936109501574932 6.0022957346084445 2.355033932073533 -0.1733129218959596 0.5992225883208712 -0.29374673640470056
Ni 5.0376267814042395 6.713270851355137 5.28507498807565 0.1995569431941531 -0.9949058517610737 -0.450403794911534
Ni 3.4478182726887825 5.211018334950806 6.082254861266998 -2.1418549174060533 1.0077608533468707 0.24370792667975447
Ni 3.249968698985205 7.318732395211546 0.4002541049253689 0.7537623433743857 0.5323849618710315 0.869743778538728
Ni 1.6033766651447643 3.8343665866987893 9.995074964942432 -0.08349220428738524 -0.3170298753023572 0.7706087255077632
Ni 7.195800620133399 1.6268396251661097 9.63672591120699 0.2138751595890381 0.9571530584923322 0.8491523275406214
Ni 7.613223697231343 8.693189431388637 9.737501323918568 -0.7069266139677696 -1.6182597859125096 -0.8659295469989604
Ni 2.282407561648365 0.26203002249125606 13.30164956616859 -1.488798828204494 -0.6170426472214277 0.6220282733614771
Ni 5.184858482972983 7.707168533591086 9.631200072584445 -0.43692324392659593 -0.7942865287406773 0.3893753189443036
Ni 5.511452098902287 6.40183562814672 13.564558403452562 -0.41594664167492884 -0.47315394412385614 -0.14429622294863537
Ni 5.586425695292333 0.31550938998818495 8.646556449610182 0.6552309853656909 0.6099389462971108 -0.062246407534731506
Ni 5.951008289298211 0.9650874364388311 2.8344250765921015 -0.05065278915986115 -0.7510644848272484 -1.5585495145360708
Ni 3.4155020673482452 6.611607324223409 8.2229295910496 1.8910646299582208 -1.9430273961787567 0.07446686086032336
Ni 7.265752417707937 6.219079349771974 9.206742757293814 0.8467177499572 -0.6493902103141977 0.5949450439914399
Ni 2.8457324935916875 8.734870361557352 8.469872827951228 -1.274181648243109 1.4296472575450025 0.4743469359906927
Ni 5.985472708576493 1.6462014494881239 13.390011836178429 -0.2072782230978108 1.0566241547064772 3.626695532293748
Ni 4.691271457173168 3.3054130777593875 1.2223225710240206 0.06101124957604975 0.03308058460405271 0.6141457852896068
Ni 0.5374580182297386 8.525814736793244 8.858601904595007 0.2920819471077679 -0.34771804841483345 0.5298269713358682
P 0.1968805525247329 2.1878024517406565 5.432672165002634 0.8620757204705088 -0.9243545239050726 0.12972835243678946
Ni 4.322299439017439 8.501207922597255 6.854893947617154 -0.6329238372280583 0.22371400005633083 -0.8342728393256277
P 0.1973297245298978 5.869924837682629 8.336866766471525 0.08975335470574866 -1.06668745247975 0.20403169113605504
Ni 3.2617327276919044 5.797676032131367 12.085116943186303 0.14604817264273556 0.4598325444246016 0.5976562722750158
P 6.862092789215459 7.862537409166441 5.686734266706617 1.234561205638009 0.9015015305662991 -0.40952016932329466
P 2.984668927487407 3.6242322051520897 11.896387514109334 -0.8587952499470242 -0.48494450900088093 0.270041936588593
P 3.1255582831447137 0.1452378614464389 5.305940562154085 -0.6761944749912354 1.052727133644916 1.243106266994543
Ni 2.0444951929499573 7.967651098076971 11.424019448230526 1.0206683054371584 0.8758989995068465 0.09369742695516121
Ni 3.1410979605904803 3.6235533323492524 8.140787841831788 0.8615453018883357 0.9359016053127237 -0.6115042339017017
Ni 6.32043598919831 6.067895306542876 2.141246656869923 -0.1343015736297687 -2.104116008094383 -0.34113422454972864
Ni 6.488210567773455 3.790928026944645 10.5111336104789 -0.19195830491128876 0.5614317427253428 0.9905748284858876
Ni 5.140768949298311 4.236417379644817 12.606456847143749 0.25872754001703824 -1.0976049679942128 -0.06728756950306476
Ni 4.095900009084956 4.514755228808064 10.172874541893721 0.4497124252714642 1.3513083153237824 -0.28880893278345104
Ni 2.200980023817647 6.169428638890499 10.040358570779905 -1.6997064205247758 -0.3458560555054302 -1.0566650352467415
Ni 0.9551647339644849 5.500441340017914 4.611755922743318 0.8531002564447758 0.7663910878819898 -0.2501449405543498
Ni 5.438961503037685 2.1918849881851155 4.705793755377423 0.10060829514238157 0.9566262394545848 -0.09453586369605654
Ni 4.18192156286912 1.5836800542350498 7.404680481938964 -1.0659150930900998 0.4178826823553771 -0.5971304816785329
Ni 3.683842817017656 1.1316902619570255 3.5350478480768994 -1.7677774051610844 0.5391906719389552 -1.3292024845636787
Ni 7.535339317453789 2.6599631359276374 6.1296485525697255 -0.7828114382215422 1.6637904233544571 -0.5413367717476807
Ni 5.960763598478707 7.074998459738124 7.51468391495541 0.2737666937383479 1.0066938455349372 0.19462968109586481
Ni 7.621370170865389 0.7167101969865515 4.684206530209944 1.497104519856712 -0.5922561843053671 -1.2810665482884
Ni 2.8072227363786904 7.664464644404397 4.234868061713959 -0.035774072275815805 -0.7823095588844592 -0.690819681103578
Ni 8.739827062980808 0.7793441177316025 11.125015037015979 -1.6709159786556451 -0.6713050081094181 2.768287747593129
Ni 0.00895089140727112 6.676016543846017 11.357707524834488 -0.16137091904273498 -0.0026896310170211745 -1.9450917349069532
Ni 8.619164396997075 4.474906325244264 10.323683810137144 1.0469249251408421 0.46677863672513153 0.02358858595321744
Ni 1.2126435187885012 9.147783119348777 6.408086837709283 -0.09679920580893651 0.7677982526421616 -0.49710582695376315
Ni 0.46256718852387363 8.029372725370537 4.203426951315161 -0.34581491785484963 -0.25954849325643686 0.5705221350623851
Ni 4.669240639776986 2.303852502516071 10.022759025857034 -0.48131925354346783 -0.7102813893726154 0.33112877659758455
Ni 7.6937770700830646 5.433539820242424 12.466264033581409 0.1901284507914016 -1.0264329758350774 -1.6932449811701484
Ni 4.951558729482895 7.631060382653832 2.696586928696588 -3.2749899599860757 0.6089709259568867 -0.10616444907392039
Ni 0.06599480610046701 8.18422082180947 1.893459013797094 1.506679565139657 0.900317794670843 0.141504262025795
Ni 7.137956937480697 4.406349471785145 0.6999290192780624 -0.20211519083963253 -1.0996924466508609 0.2602115807617325
P 2.3449661554111834 8.75950507463565 1.971885561854174 0.11419271869503558 0.13840016917917455 0.319008853405599
Ni 5.282076788190244 4.007228061481496 6.18773960531223 1.4513807925673519 -0.030240801162412435 0.37769891104763986
P 9.249772133440768 5.282002391170754 0.9819095325080391 0.48493808124297777 -1.8548578410203604 0.6509169313713693
Ni 0.2904171352400302 1.5640020425802075 9.21142418974516 -0.33660085545574936 0.6193437845507785 -1.3985996442105784
P 7.9450623030346215 0.9389554833433176 2.056368957260403 1.102209813756076 0.9743802210038961 1.3900340140287546
P 0.29594762367629424 8.530873734118495 12.589389240910227 0.31527818271857316 0.1546744808591659 0.12273392339682734
P 2.3730324310134105 1.7760893458884932 9.261635668161034 1.5655727399314394 -0.2095145686274972 0.005453052694771254
Ni 1.1773514326684034 6.391457243928003 13.2941503466041 -0.11485503486938282 0.536690788335237 0.22647896439597767
Ni 8.613482324633601 7.50602689177512 7.188905876352255 -0.5369797803305655 0.412393891326664 -0.8832089029046982
Ni 2.3996665639904755 3.6108593408989407 3.0366017669417085 0.05568649492902668 0.7050533082044567 0.5151917379211965
Ni 3.8727089506179357 1.6792895239058594 12.413576064379294 -0.24776204214447006 1.225287236535251 -0.20876663471787918
Ni 9.270863688465901 3.192924784292009 1.7983191753118086 0.215928442573641 0.9182512392208122 -0.7509881230633582
Ni 7.155635529236771 8.045814466677609 2.89921279105136 0.6283151348114534 2.707810001923046 0.8233212254101303
Ni 7.434001277282325 5.431503201833913 6.792664560665575 0.1544381964786437 -1.3529589635533281 -0.820117116650536
Ni 0.629268590092891 3.9035651144510015 12.633202575650046 -0.09107824416475926 0.31434204405754895 -0.5513666451798569
Ni 5.087305391168023 4.872939679137887 3.774069662328436 -0.981840019716051 -1.1335919276117832 0.06947223585920939
Ni 0.1816180039765632 1.7457818600741593 0.041537715906199674 0.8765965397945032 0.07959286923297905 -0.9696740737774785
Ni 8.249262416097734 6.240700983560967 3.4014298711118998 1.6730569362580476 -1.9160922623508094 0.3547039928143633
Ni 8.489081208420547 3.5599903788233322 8.064566235439813 0.36211056969107963 -0.09816986090421803 1.043381687874274
Ni 1.7484322538934551 2.118073845224585 7.0865653363431775 -0.955486983643819 -0.5473631804474185 -0.32220370619381283
Ni 8.355027078928792 0.7038367227267224 7.160676857269895 0.6463233984634159 -0.10270014467440378 1.016828619976094
Ni 4.180945101988327 0.6766594915073882 1.0468153522357357 -0.5638290393129258 -0.2096176698642648 1.0120250279398635
Ni 1.4264698524273425 1.562263012249652 11.36074292322964 2.5466730532679884 0.9314818789784731 0.4684218287555094
Ni 3.156674836545991 3.014957814046869 5.30373562048898 0.09885043191101041 -0.48780306149559854 -0.057445129491346225
Ni 7.430830104326607 7.895634783211612 12.23383007540562 -0.2979026675546031 -1.0122163180150632 -1.743806496167784
Ni 7.948493865558552 6.879892276128204 0.6440866164496138 -0.5007753053855505 0.6784040810480445 0.4913151884139152
Ni 2.3740925885411293 2.3129010400114214 1.1362470794007271 -0.27520548306740344 -2.066678689183531 -0.07276864722229404
Ni 3.8191151977035425 0.21688870095355764 10.357752065286647 -0.8729419737610515 -0.3360015313088536 1.2577463855052209
Ni 7.9786711565887805 0.10803191199998664 0.15931842734747703 -0.17590690787538094 0.054798178786802404 -0.17342682176600455
Ni 0.9022600834431086 4.31478534004905 6.530123058665331 0.27867441545261035 0.2882304345721617 0.7684068327604379
Ni 5.734773352153412 0.08764619869725519 11.939084893556819 -0.4880331752285337 -0.8492891102288018 -1.7863184013880655
Ni 0.9284896826267015 1.4894562290522226 3.164912446528911 -0.4615973496345082 -0.643734297580001 0.4657573945494688
P 3.914715367746916 5.396043722419964 1.9113710262018158 0.20650714925974112 0.3207515471283186 -0.12289487445472386
Ni 6.059153656752918 3.0564992498040433 8.341780689608775 -0.4773636113298295 1.0729041228134233 -2.1276495724399487
P 4.381017286649138 7.6787488721462855 11.735560687191718 -0.6320190660256019 0.3654373200714674 0.4600662577019625
Ni 6.880134066441543 3.119587922330721 2.600915151521957 -0.5884542940607737 -0.1652450572861606 0.43634037483993243
P 7.2145579686720644 2.4503867320271056 12.100252086838598 2.181039815135631 1.0241246394168748 -2.456618108161421
P 7.077555857283059 4.791372646895627 4.648967451966231 -0.6048975272184615 -0.10255204913231371 0.3593738874862069
P 5.144516699155069 5.233551332228538 8.196823676910908 0.08210535124218762 -1.534340521390035 0.11491339891114404
Ni 6.135512897630947 0.7644693636475193 6.395170585163248 -0.22373122644751145 -0.3250920834852014 1.5620917233613743
