# total energy = -340888.42974547396 ev
CRYSTAL
PRIMVEC
9.10447816984137 0.00000000000000 0.00000000000000

0.00000000000000 9.10447816984137 0.00000000000000

0.00000000000000 0.00000000000000 13.32532409631908

PRIMCOORD
 96 1
Ni 6.177415632638743 1.8460967939698023 11.54042296240864 2.1902258525102734 0.3615400418995902 -0.8548192960184117
Ni 4.737105422879636 0.2214363824365548 6.330514713697084 -0.26569394403254243 0.27125189773629416 -0.4667891782480929
Ni 2.610317572342283 1.4820997637534332 4.752703214579653 0.8760663783226461 -0.5699199827020119 -0.7417619764793999
Ni 3.6002747781080773 4.8773781153394555 4.935540252111122 -0.17455707871570583 -1.4655192888512631 -1.6649543617555713
Ni 5.52036366473842 4.2513451039660755 3.285198839499053 -1.6409878236376447 0.521451088567347 -1.1458144378199042
Ni 7.171105674382244 6.294918025634553 2.694046904217842 0.5383434934473115 -1.2578867677378271 -0.2696264463177292
Ni 5.250015295172516 4.396288393637025 11.620854652354625 1.0104571692321114 1.490502441159162 -0.009875864352815249
Ni 5.586243667505945 7.708124204404313 12.488599718658103 0.6937918763580245 0.9136955015293297 0.7799094340833987
Ni 1.7693278355209674 6.179509662577457 0.3797687174460792 0.2457162153590349 1.0449873417984972 0.7667068193501957
Ni 2.489373686664589 1.7158663407378127 0.2738672503107425 1.0785721197324778 -1.320145516567733 0.37472028803529017
Ni 0.8050179442654163 9.154279489035831 4.690261062702815 -0.33534615711304183 -1.3359703994151313 0.27444443653166284
Ni 8.440734235180214 2.536252643857787 1.4501812848006435 0.19679223596482237 -0.9043744812387199 -0.3666416247922137
Ni 6.8149202862850755 0.9442436217558793 4.974356283592475 -1.1046315358236911 -0.04182027846989572 -0.385349228504046
Ni 0.8842769774457214 7.645266888330931 2.724415801015984 -0.6763420563126933 0.4872795848919608 -1.8609899220600274
Ni 7.72948330977919 4.032518975370516 3.778835442325574 1.0905814854885283 -0.8706472641896037 0.3439385267677431
Ni 7.586879870952802 3.8868200140260307 12.516410257139817 0.3865213944352763 -0.6170123082041244 0.010924874442619895
Ni 8.229328256150097 8.980092616046846 6.572036485037098 -0.33078681987713354 -0.36795417295605015 1.0852757570048988
Ni 6.963059247732063 0.6631146397967982 0.3780006278195655 -1.2510754012429486 0.22177410272114065 -1.4427002340742185
Ni 1.9407469471996515 6.448565196268157 9.232876626665943 -0.6629615212407292 0.31411578697935577 0.3282051751928864
Ni -0.06979219696172134 4.810605873728479 1.4813094950635188 0.367955972728263 0.631399687274048 0.07868886936147092
Ni 6.257088919567795 2.2543506917169807 7.3163357551100185 0.3750712436168057 -0.5663443495356117 -0.16751662692915667
Ni 3.5635382094006474 4.215254953196248 0.4084851514882365 -1.2950353517636666 0.5201603947803816 -0.17237755456588377
Ni 6.157768169126815 5.777774571074273 4.943361909156117 -0.09117028965793329 0.9590574746038968 -0.25076097687179394
Ni 5.082529317987416 2.776874892771955 9.676797316956208 1.2211248776274453 -0.6859973200142702 -1.0478173550481245
P 0.11412007942088737 5.554323367657556 12.387340624852115 1.0146940901315942 -0.3081410574531596 0.35172614113296197
P 4.0031388248825674 6.224449365957847 12.608088708752293 -0.6356476639171247 -1.4510640326578816 0.6996128539151758
P 2.1772448675823526 8.650446781303373 1.1560665858781405 -0.22739941932771804 0.438199025315226 0.770782532081466
P 6.366816088356381 7.81576644773218 5.898347904497596 0.5173342381854962 0.08419848632579048 -0.3908043380813463
P 4.931212893720381 0.8194385269607566 12.897701243306562 -1.91951182955532 -1.2661546641735741 -0.37945086074174006
P 3.937868822140668 6.360998326917955 8.302010214427243 0.7531064549579416 0.1285638998150431 -0.4700259400178357
P 4.538600489167592 1.1885804976917647 3.8701142073540944 1.8074389854167645 -0.18032817687152813 0.8953169990221419
P 0.173385678925476 5.695460985526845 3.6294582718713477 -0.44830577473192473 -0.3760991706606878 0.10264152352232646
Ni 1.2251167678833175 1.2934822931433154 2.4619601034234306 0.5836273049857754 -0.5675280854310677 -0.06561121024190636
Ni 1.7873273885159087 6.746117746081347 4.643955687623265 -0.11067519246008035 -1.2984541476372282 2.097362234310317
Ni 6.115614436012712 5.574990532704859 9.464804099095451 0.02922650096528515 -0.4148477521837952 0.1335580105955248
Ni 8.568042150976 2.1023241181663823 10.089775528334684 0.1877596934489089 -0.012133807149056522 0.07224877016308202
Ni 2.5402859276093093 5.291622759606954 6.946131291797063 -1.4362596206551972 -0.26755722249352626 0.5744191561239462
Ni 0.7041503430131868 8.89788828423535 8.913962240134474 -0.6358034727686984 0.7494305487682513 1.559117471224399
Ni 1.162314078677902 1.1047828822312478 11.40255931482614 1.066323641382428 -0.21129660022858449 0.3112958010320574
Ni 3.8902159843179445 7.422762550625632 1.4768592262198532 0.8233608203988142 -2.0415888360944385 -0.5188020809802741
Ni 6.005969207526077 7.638729873130947 8.083887861980653 -1.908156552443501 0.010438678834820731 -0.48972547532929217
Ni 4.9567600589726855 2.8929934051126143 5.3814320618871765 -0.10139145316530926 -0.7580694553901719 -1.7049584129523347
Ni 0.9410388455018482 7.471344045203785 7.155765539409469 0.10958813004348868 -0.8366986751583009 -1.2847159721155295
Ni 5.15762305248528 4.722711243170479 7.237090378646705 -0.5246621393054771 -0.04489017564447108 -0.02106401975915082
Ni 8.141888849491819 7.188249406445712 9.22734747717994 1.1005493953345176 -0.685645078881174 -0.4901239963192914
Ni 4.786324230917398 0.08113000340815567 10.488295828658043 -0.3338878273999604 1.6813906529347238 0.0772927603448927
Ni 8.15918735768119 7.562661959487682 4.525399906523503 -0.4151328875243818 -0.2953253937457301 0.31129811502490257
Ni 7.2644265738249105 5.840996066267432 7.118814105021371 1.3207119305941641 0.6358952611515565 0.03364057087258078
Ni 2.3196389034148694 5.512843365915041 2.6328575285130356 0.17964477765125833 -0.8289293156255273 -0.37273539639477743
Ni 2.2391371089883276 5.485675603579732 11.555627440659299 -0.1643318014432718 -1.1800921280558516 -1.559627835201914
Ni 1.1880615424460834 3.4585635781251414 3.6370140781589053 -0.4018325708710499 0.2157754619355445 0.9664673939147227
Ni 3.789866427863597 2.7186062336077534 2.446209356493107 -1.0927910915453374 2.0030978791080924 0.39259793964665934
Ni 1.4632170763930343 3.3599347680117364 8.104408444932245 -0.11038954289886148 0.3967412723910716 0.08035854375441
Ni 3.808812846569957 2.7145365319442534 7.356950831443066 -0.8204048230942839 -0.24901699759749374 1.0002375483866324
Ni 4.151305099763538 6.7581356570339635 5.968652683570403 0.5626154786207989 2.6933485750820774 0.8387380741858329
Ni 0.4709354973952685 7.686282561695732 11.509615229771168 1.8905236698530863 -1.787278965529122 0.10472257442107126
P 0.3240338345077214 5.449394258772022 7.836436344122881 0.3620812591150409 0.4620506351218429 0.9122628828478612
P 8.811240967162584 1.5363624526000959 7.966864364527349 -0.25868408837361256 -0.8062434439922372 0.44464709493341487
P 2.119850238305615 3.29308058609881 10.442203498363561 -2.1705718257247715 1.3299840999247095 0.009183723381797087
P 4.316105255940288 6.195579066237585 3.326853647219061 0.48406956259509537 0.3711438835379415 0.3522125938510773
P 7.141634479114351 3.6659362734037364 10.079088692064849 -1.7381405561312582 1.033810242135755 0.7318771132655202
P 6.442965942301596 7.7062122640254875 10.3708462416346 -0.629226076661497 -0.09204215073992536 -0.13293786051302267
P 2.5309720466210317 8.446907071260423 5.783923735511697 0.7380315629026902 0.2044626080258866 1.613233536342512
P 6.826728794243821 4.012498228260817 1.4542191207911626 0.19944587153758556 -0.47984112633604464 0.831034020673356
Ni 5.349682015777283 2.736696831382639 0.20256917268874633 0.39172479301308666 1.3402677412389046 1.9529996769001203
Ni 1.7393741029193701 1.0874388516519036 7.089405730651639 0.30666010203225896 -0.01236572065420451 -0.6257699997920965
Ni 6.899500886853112 0.5191728427052327 8.98404031770522 0.4112299529255498 0.3737512392538015 0.5553204876212823
Ni 2.616991154712183 1.5556639459482373 9.376377767022577 0.7612031159231472 -0.9373434799655728 0.22143703109669605
Ni 6.233735933512142 1.9914953075404729 2.6351764390582106 0.19141708769583807 -0.053654809210978566 -0.08961991445167791
Ni 4.180466742779622 7.020226265058941 10.497956590257907 -0.5652308047564588 -1.7422993154946382 -0.5235329107970402
Ni 8.42093199554238 7.075645222610893 0.5743650987551239 0.4335345299600212 -1.253435673945009 -0.5132343570845096
Ni 8.112554221393841 3.5992277631387206 8.031785665762063 -0.40791580095065233 0.657558605057603 0.12418299713852807
Ni 3.18456431288348 8.29270452746916 12.491065211298988 -0.6466638125219701 0.8000699681916738 0.2961923697317157
Ni 0.12519112466208557 4.691537510517631 10.132936216714965 0.17103595293632481 0.0917349039121517 0.4109389040476923
Ni -0.030664792332960288 2.1479193439623696 5.9008133971384815 -0.3017680640472803 0.8665908347320431 -0.11119918328435043
Ni 3.723048663862648 2.7764651912622065 11.629490249732319 -0.7145129109554598 -1.4099821750159072 0.8538427910377553
Ni 0.9652112345769973 3.1516971473236723 12.625624843817318 0.13896889719845099 2.5024315669511097 -0.3844238884762992
Ni 3.080290726413543 8.538343343758246 8.139520774765474 1.1613086768007612 -1.1893547843047 0.33496254852137797
Ni 5.704956956075011 8.28105079563632 3.363351678603037 0.2103784592896893 -0.3784985241307997 0.1112248943159633
Ni 3.2574092413167257 8.312497662629001 3.693620259641328 0.09249363645504716 0.26159329160060757 -0.04377020310741494
Ni 3.692785379009241 4.511378099964317 9.429798291654759 -0.7664592221157639 0.7026539547343448 -0.08417226107354536
Ni 7.335678218609135 6.160026079669428 11.681538729530743 -0.41248850792299924 0.15884172486297804 -0.5953397083266972
Ni 0.24115941311583744 -0.018167985837838022 0.4074381365188797 1.0353850428220426 1.4544725441187984 -0.7499226579133215
Ni 4.122043307489515 0.5949111742451009 1.8803232580941744 0.31631947949889394 -0.6976048223462115 -2.1469953239564123
Ni 5.604662026488629 5.572778144552219 0.6492885795144926 0.5124424573108336 0.7076748049877039 -0.07388630576650503
Ni 7.90066570503002 9.040236797677895 11.291159653429983 -0.9663771481937614 0.8054613144105741 -0.15777703104388957
Ni 0.010623104923873418 4.516294518081296 5.819715259403306 0.5709378824435651 1.0812442672480025 -0.2149784199555459
Ni 7.929317497278417 0.14893196148029977 2.274206647774982 0.7910130001957281 -0.8254817233965589 3.0190129861309813
P 8.635105735882798 1.5321470792886853 3.948560210649499 -0.8493662433236405 1.0432981270215322 -2.666711432110523
P 1.747340521164476 3.373245514839559 1.5130768396816017 0.10519925694717365 0.16387285952898228 -0.14189944058168466
P 4.70006840639839 0.9775204888254349 8.482022132437049 0.3463679621448422 0.041739802940947465 -0.9121939772831388
P 8.526562149233484 1.690646936693307 12.52745672029043 -1.3388196959384686 0.16627581254352009 0.2867906168018416
P 6.568188932636661 7.7198507720611085 1.2574667990930424 -1.5065252989499798 0.5968723429211398 0.07032764188096921
P 2.3326309935128875 3.2143359559251885 5.777460466583467 -1.051285258992067 1.8518419370121721 1.3128487257960035
P 6.836971331987528 3.9032535968059343 5.916536830634821 0.9233710769458807 0.12821808643985014 0.12776402962156705
P 2.27085711032084 8.635988870248255 10.49827615743551 0.5668624268226109 -1.029331637539111 -1.2247395915618973
