# total energy = -381165.72344376217 ev
CRYSTAL
PRIMVEC
9.33502525778702 0.00000000000000 0.00000000000000

0.00000000000000 9.33502525778702 0.00000000000000

0.00000000000000 0.00000000000000 13.66275306359024

PRIMCOORD
 96 1
Ni 8.16547719600847 4.028268726207616 11.596876549149659 0.7501787397881855 1.0864975452271417 -1.129616745014119
Ni 2.223042891113504 8.510257015192087 2.5689531818437468 -0.9788711668957141 -1.165543026597083 0.30351152910094825
Ni 8.619159418684697 2.5297731477533274 6.094749242884611 -0.32501057951498863 1.3846832912398024 0.8916534341276255
Ni 3.775905656087675 8.84277061131816 9.190278124852927 0.8295733769674294 -0.3573769116608362 -1.3886569311755697
Ni 0.4130813977567663 0.47163160904992585 8.765393521286452 -0.47398415333463534 -0.31882861907399285 0.5656812620303161
Ni 7.871984005042617 1.6222126668725596 11.819852026569865 0.304336853215721 -0.0027230553581178906 -0.16554407658381812
Ni 8.879485265264366 5.617640774574517 4.396236747883571 0.4182668051676732 -0.48261560375738827 0.34143864316402484
Ni 4.405366402488043 5.2699297574913055 0.6660755155773833 1.0945792937940115 -0.31202856543302393 0.34704390516594424
Ni 3.533008301477894 4.624898189127483 4.47475644499461 0.5141697244145854 0.8460058114918397 -2.0296913133259045
Ni 4.672721523011645 6.84706358787614 10.609715375244562 0.319394775990108 -0.7163566490324178 -0.13159754443504432
Ni 1.0027684024666692 6.811655837452047 8.221602167765596 1.1961697503440045 0.007676799818967425 0.12290567308800122
Ni 5.154035420155394 9.067193951140364 4.622724061768197 -1.219457003006719 0.2170982945120261 0.28359833511678906
Ni 8.670875458059724 6.386734827287457 2.1941155151540577 -0.036452329289763025 1.2710482448204499 -2.258594056672026
Ni 4.543767485479766 7.232077365490507 12.991078426031816 1.1352140365962384 0.3990907464598546 0.7094252120199073
Ni 1.34761356682639 3.7950424576614665 10.221392331211703 1.101594291659264 0.9230394046380748 -1.7297374196692274
Ni 7.480771770723374 7.13994066718157 11.80849876897277 -0.751561479068325 -1.257816319511208 -0.5131785641459098
Ni 3.7020002619122088 2.841712348431285 5.704212864386801 -0.8851871096769917 -1.6806044095880026 1.6357330029966088
Ni 2.9981300299778453 -0.05471444945575908 0.28542212821429336 1.274074176130967 0.16302002461038376 -1.2859642427003335
Ni 7.202139939808971 0.4593653859923834 9.68428205519639 -0.19851281820035488 0.31949222079992073 0.5709931611615329
Ni 9.093864118016619 8.80534649545995 11.144707534051538 0.46080005054419354 1.7630686868315055 1.9443705404702127
Ni 2.494057341499022 4.368072976982044 1.1844531966082446 -1.9006219346293525 -1.3028718170889497 -0.4973675652555822
Ni 6.423561501535557 0.816425430771278 2.4225837213772006 -0.20688330165223726 -0.21669128888159456 -0.6053089037242672
Ni 7.229594248798493 3.155238503386094 1.827229422893908 -1.900973147321184 0.7168811540773202 0.9979387250501265
Ni 6.334281320924952 2.4396621499036644 6.135941908399083 -1.736128410797236 -0.10482953231258076 0.2530968240938221
P 1.4405064021731209 2.8409375413431754 2.9292534138549646 2.286728867235029 -1.7500920720661794 1.9897512825978572
Ni 2.424604754323896 4.541601759643122 7.758120969181075 -0.487279842002277 -1.1107101379176032 0.30122941793499086
P 7.748089551146345 5.811118505998127 13.624182632751332 2.911687169759108 -1.8241565552817616 -1.6982501476942238
Ni 8.623164144477457 2.6565707944737214 8.889465340660728 -0.1279064687367023 -0.45401516641187617 -0.13470446549514217
P 5.594443237057019 8.742381750769598 11.13753450072017 2.5798675377420857 -0.7665620662422152 -1.5663031903395606
P 2.8000314611010517 6.034281617424009 9.788037125816908 -1.2393467999521108 0.40444404035196796 -1.0640600421592321
P 5.668890062691647 6.765540813171788 6.729520685097334 0.7399313510285643 -0.054115808007797125 1.9267962790318753
Ni 4.999830139571268 4.583870753558306 6.428748975015829 -0.2448510391452622 0.34187135982606925 1.2201810256569374
Ni 5.881999352022419 5.114781639366226 12.316097296453751 0.1060261237238432 0.7254262154338539 -0.7070849939225049
Ni 8.8621407885209 1.5942169264238768 2.9363032248542464 0.4357253669637528 -0.009260856476635665 0.18192431771405443
Ni 3.835024370412954 3.3596755543451335 10.620098723727747 -0.6350593955138224 0.1429096270137539 1.2550819512991804
Ni 0.23856963694655728 4.046406680089506 2.043414603014224 -1.8443260882511012 2.3794027380216827 0.08245913503718057
Ni 7.390968828703922 0.10539616804328507 7.3674753708889185 0.5904867511097701 0.24389587432084445 -1.1189199274219053
Ni 0.8553095445641906 6.342057396881522 11.172156242025965 -0.11674762390640538 -0.2433914238806002 -0.8168847257561674
Ni 3.0377945518739624 5.462203270669542 11.93543924157808 0.6399961706938074 1.3938112216829996 0.06826664558688243
Ni 8.575247460341714 3.669859770293397 13.811266805444262 0.08344438176858532 0.7286007565070937 -1.6493950738647336
Ni 0.39348531294520395 8.872315965943063 0.7249104451378602 0.12045206934118612 0.38331111502809473 1.3016862814212806
Ni 0.8040854610149879 1.8618520977022177 13.105845092328648 -0.4119699164153679 -0.8803079272078195 -0.6391343369141445
Ni 4.329659348457093 0.7443067604110426 6.802302142243784 0.7419856624544319 -0.9544960804854595 -0.8106554570170038
Ni 3.972249240234775 0.5125432903071444 2.352794139793873 1.6612355181430871 -1.5580952006074715 -0.35788804696929977
Ni 1.4710225994144497 2.127853639577918 6.9657089571260995 0.7876967913383014 1.875765794817621 0.7878793396627528
Ni 2.6134616482943223 7.018790710681734 0.6134381092192674 0.18704132722564562 -0.7690213264159852 0.21939608940726732
Ni 7.30381703382933 4.9110540503191915 6.0344421798567245 0.44309260596210137 -0.3031641730638585 -0.32648305029545704
Ni 1.9976580437000309 1.4810857565347166 1.4878601842918386 -1.217489337757387 0.7771611819143003 0.5086655067669046
Ni 7.992247134152448 1.4070683420573546 0.5688801671353547 0.3424336600874425 0.7933203081726661 0.9743064303431673
Ni 2.4959430165809273 1.5026589996747322 9.6635554988382 -1.6217258900842393 -0.10084895039827793 -2.0782144577372725
Ni 2.1758543389400815 0.02895911504498325 7.0861186461309105 -0.057140196656417716 -1.4675432612598274 0.6167780807061314
Ni 0.25307066502691217 7.881048314470984 3.8545765806062735 0.0682861859709082 0.5872985831897757 0.577681628925302
Ni 3.604673289615453 8.826957078700598 11.617671251191503 -1.3688380966774296 -1.0246812832512935 0.01819106908672996
Ni 7.361936900462708 3.1970780861440122 4.192770539540957 -0.09661665748448522 0.35396608620707426 -0.8263386720802156
Ni 7.219671117055595 0.754999098226955 4.667975596221345 1.0535550288628501 -0.2862026055088555 0.5438708510234439
Ni 4.895529903481525 1.2915754108032342 10.35437163159169 0.3650873929312164 -0.21775778247289596 -0.6098736402768142
P 5.313916396035553 3.956771768522899 2.799156769243752 -0.03891467478732653 0.35222904891130946 0.2123669504746278
Ni 6.296530479186215 6.578084172975055 0.9748268051639021 -1.8082262572047505 1.8940982745782218 1.7415467535993299
P 5.196911190705844 8.72086451778053 0.911323429521936 0.13178112120076013 -0.6398861274785045 0.9103921481877096
Ni 0.6879148069344004 6.0037747552078375 -0.18690494020989948 -1.2907696345087771 0.5732462188617675 1.2419161033411836
P 1.5093242076375064 8.33522529348058 12.734027306277556 0.06356126969141311 -1.1621062330013923 -2.4804414358332636
P 7.056793598099735 5.446548433479664 10.190774382196151 -0.4448990630432209 1.1932597757860612 1.8535838594039429
P 0.36121693148172845 4.1050959832575185 7.327265683523576 -0.6067507783771163 -0.5944004843418795 -0.6164721194299383
Ni 4.081786425438126 2.4819591488943225 8.230155851317823 0.5449059771561776 1.092204365803932 0.00024194080747700264
Ni 2.835168495795564 8.191624601475882 5.143821969130085 0.34713260822500863 0.011176585442109784 -0.5599222480593519
Ni 6.966281194168282 5.537714289172175 3.259263356233676 -2.67454172678822 -2.653477192808437 0.6212196614172527
Ni 9.02897635814373 5.071336432281142 9.16688735231466 -0.088856296812776 0.6432704705697051 0.24122501235690072
Ni 4.162235672249313 2.629629911867886 1.3831622761303681 1.1067953762442293 0.7015722916343917 -0.9334402882564246
Ni 1.6146699665449387 6.056442967148975 2.469897362887739 0.006618790868098278 0.5152197629456545 1.5548481544250836
Ni 7.180893422549484 7.505462912266144 5.251852481272943 0.29297129169125674 0.160343249109169 0.15918368158342908
Ni 6.171963903478569 7.652722934132758 8.905505714389626 -0.8168664709237222 -0.044242257647827035 -0.4048657012704189
Ni 4.802179651902056 6.466950698469695 4.897168200396745 0.5732665305767417 0.7270881765173091 0.8627629763455206
Ni 2.499677026644106 1.0979296489267811 4.019008381250932 -0.6798734665047195 0.8159267327182721 0.8529223361060149
Ni 6.223810633205807 2.916924646128864 13.010493411355315 -0.4260973569556855 0.024627568740693072 0.6841461257381443
Ni 1.2716918072168069 4.1000644046973855 12.4017629553232 -0.048644243370264614 -1.4335720465207054 1.3470035173008414
Ni 7.734889825573007 8.905847376310408 13.187289452821672 -0.34027804719702043 -1.6979572990441532 -0.3559494351856902
Ni 8.418204332109571 7.452057233337529 9.608549796597512 -0.004445180255547183 -0.7636407788303622 -0.824225996612587
Ni 7.8039130015908675 6.807987172564974 7.414201839317022 1.0618473507786292 -0.1740408012009196 -0.08215754463636173
Ni 2.869586733552915 1.4751860206348941 11.745404267432724 -0.7338576340306587 2.411776783477014 3.2329719636830774
Ni 4.491519349670736 4.844952737175769 9.117332371263698 0.8564953981692539 0.9096295589900721 -0.8991392009817095
Ni 5.687560113007541 0.6108112331398211 12.89692816279631 -0.7755686406161997 0.5676041900846418 0.024482558522396548
Ni 0.5008007621609629 0.9012425358538689 5.2618400246894295 0.08148777226284676 -2.287766050250292 -0.4684794214663222
Ni 6.251619673151332 3.155910625197466 10.525334215836848 0.2087319248252018 0.41127469012055623 -0.652525927729702
Ni 1.6381382197920173 6.137937736777853 5.016470755417823 1.2897908155352755 0.60967335134055 0.4808968212940686
Ni 6.2817904744618165 7.62097451357058 3.173556623253533 0.21033989274227 2.1755615656298795 -1.6505541271698414
Ni 3.3485762094323346 6.496449377968808 7.219945566795239 1.0841136183759974 1.5879768186582521 -0.47466986654775034
Ni 6.880660343419591 4.418967534143172 8.451751612019686 -1.048444189998846 -0.59527311675482 -2.5427662620144145
Ni 4.009225274885403 6.711612372834329 2.929963809269484 -1.0555597179977045 0.1595068692508027 -2.2776112212044772
P 9.50996352940695 8.403763048190228 7.051647198730159 -1.1714365092633825 0.5861464718632035 -0.5832375257465245
Ni 1.427848108058945 3.8012595844166595 4.799124298167859 -1.0070082914515626 -0.9062737551439617 0.9931837268636444
P 6.342104072007311 2.2349263781395705 8.237778832861803 0.07584882880951453 -1.0397134949940674 1.4479306292352223
Ni 1.7945372312882617 8.298930715666483 10.185036142231564 -0.035220513765190954 -0.40609674546404256 -0.30973385586157626
P 3.741571433556746 3.7127822159696375 12.898540321641088 0.4681158674793164 -1.5602083902957322 0.452725243955859
P 0.4186264027005869 2.0649355700133554 10.768817810026547 -0.07248736853644934 -1.802125800733967 0.6557400637916255
P 8.250183214291683 8.826835723373545 2.4073498938219466 -0.5041305950110285 -0.31093507525852904 0.19034442345694963
Ni 4.648861198707933 2.033224489551809 3.7766851306883638 1.8089034857774333 1.4122244340828647 0.9524695369737338
