# total energy = -381172.3740556415 ev
CRYSTAL
PRIMVEC
9.20251828677511 0.00000000000000 0.00000000000000
0.00000000000000 9.20251828677511 0.00000000000000
0.00000000000000 0.00000000000000 13.46881571749603
PRIMCOORD
 96 1
Ni 5.604204703858343 4.104488729799192 9.032429824590173 -0.6500481556131708 -0.9815083474082452 0.8335899543259901
Ni 1.6540698105969638 2.007538531840472 11.2810080732176 0.40621244510630045 1.146679871143993 0.8165139726803099
Ni 5.824835075944079 7.415711194565537 3.752317563611537 -0.7869210895145414 0.33510678740872607 0.6671387925468704
Ni 2.0923029263047765 0.5965320717665074 9.279475104706561 -1.4050374294161223 0.12461751357278537 -0.5452391921258802
Ni 8.60733606426355 8.444451493422358 9.185085796533622 1.2608299095265512 -0.9886007354786522 -1.2223610640273914
Ni 0.25656344461475217 8.6984778037896 2.9161335147915692 0.21486220609265574 1.630976976368862 -2.00145365863645
Ni 3.1139296786497206 1.355107604217431 6.889245255311495 -0.08580722557380707 1.3385335321566174 -0.003398998379219952
Ni 5.138980602485152 0.2023845393960844 2.703837863373114 -0.04917517617307014 0.3394372964632799 0.5720010336007568
Ni 2.328126655817563 7.4690489896274315 6.55496286411018 0.238652366533718 0.3641060028545536 1.0398099113626156
Ni 5.5283115368681015 3.8146462188831407 0.5646720337603333 0.6133664839214211 -1.0078282162496965 0.14207273293475534
Ni 5.662254188201068 1.096645680113157 0.5786589410609844 -0.9516457555208578 0.9413819117010046 -1.825354946465237
Ni 7.2018722808572475 8.936390504917131 12.461254029252043 -1.9775128315501362 -0.6870039069019136 -0.2545196725832778
Ni 7.956598399975806 2.627420152849654 0.8208471321101419 -0.4015669759144891 1.7384619440264188 -0.7452784742730907
Ni 1.4196172562850435 3.829250615150088 9.808745971485596 -1.208777926026318 0.3099925088396016 -0.127258036519426
Ni 6.985475067109757 5.743181132606572 10.258240208624954 0.45187935101579596 0.27579169458817665 0.10268677493796509
Ni 3.2411544917502537 3.894257203196538 8.299833921062511 1.581418191604128 -0.8229769546968344 0.3695749963889248
Ni 4.298468609390233 0.07918030646507138 5.022629484803033 -0.45672305226134247 0.40710641767547956 0.17614782024159342
Ni 7.871640752630842 1.7499232394038466 3.5307154056116308 -0.3918152958443639 -0.42822288793912056 0.6218225851085742
Ni 7.550233604540481 4.932945424148237 7.658839882967235 -0.5451512603977644 -0.7740144087552024 0.5881992406271741
Ni 5.419178874404504 5.705018289935475 1.9768849439606977 1.3313087322734038 -0.7396421019229198 1.4726515290206703
Ni 3.2294028761025593 7.3133791929975125 12.730023693909947 -0.2607641108310928 0.3199681319950748 0.359266158263749
Ni 0.8594793032056963 9.138063689662028 7.192320987293628 -0.2063533972906962 0.6764844954278285 0.9721009380514162
Ni 5.940271463324412 2.4526919411795034 2.4233902032125303 -0.3734378217784407 1.605705603396583 -0.1664845861202165
Ni 2.7088256281977423 5.186649646381047 3.504478106180822 0.40297516911592535 0.9452349668985075 0.8382719331826919
P 0.04933193892137656 1.9143078206996755 8.557668233430551 0.1925910533992812 -0.3502462141533258 0.694500729499591
Ni 3.2207249015091555 4.703407014515932 1.2108608933380869 0.8350433989430651 0.6291854532315486 0.5962164545046957
P 1.9524430558163923 0.36802342391257165 5.303615492274025 1.2949276225412085 -1.3098569901575312 -0.4866116122906588
Ni 0.2577395264313343 6.231696807358242 7.0998973369925364 1.5308710747841958 -0.22635092345854566 -0.7159321599004896
P 7.4386806798095835 8.72764978625099 3.3592973397116257 -0.9717594955515974 0.019636029063372633 0.6742774604741807
P 3.6285160872541065 5.496194748606195 6.994005801413135 1.580478453398678 0.9235855069495319 -0.3860123160093417
P 5.346138488033514 1.6343948268422483 6.640180022466314 -0.282682508170739 -0.17141673331451124 1.3545077960976866
Ni 1.1279250392255413 4.285272198396659 2.085389994688059 -1.2864236988352555 -0.6656508951474344 -0.749921886582373
Ni 6.320188221663828 8.64790996668382 9.865745448510072 -1.0284728890832415 -1.457506960069748 1.1653918457311991
Ni 7.016579578377736 1.231195697642481 8.80674634980111 0.7750785883536587 1.7173704134634424 -1.8412330511480741
Ni 6.215656818263541 1.7415121378361151 10.937190032733477 0.1300818791214663 -0.16888136848716723 0.6818925538172773
Ni 5.542915933135049 5.317877554866662 4.557995264841757 -2.2754226981935908 0.03957441985851248 -0.2929548366310245
Ni 7.796060471256904 6.588496840163587 2.7145587969906275 0.09535424583229385 0.3341616498866374 0.07921311729605714
Ni 4.876285520042631 5.8757065961480395 13.246552754090862 -0.8764052497193034 0.45756200322287005 -0.31336502485626033
Ni 1.4092368158382151 5.830393396892559 -0.04090519307282982 -0.3913825791823195 -0.4332938747041248 0.7651047649703985
Ni 9.149815305309723 0.9401016442612092 5.294699172461141 -0.11301103968210859 0.08876913641560841 -0.8553867384861075
Ni 1.1831309454671401 6.727924192300019 2.3320717753384455 0.9939139201614496 0.04379539991839554 -0.9693331454982919
Ni 7.033475401658212 3.7669495674328646 4.833728474966074 2.2998386651441103 -0.618974831247134 -0.018950572960573814
Ni 0.303696901955679 5.472139366223208 3.9839679511539017 -0.9187842289061467 -0.8620649218372315 0.9121590102801452
Ni 0.509894964863435 7.6884738318385795 4.820488812137304 0.494705959263019 -0.6605768230586365 1.6489824118073473
Ni 8.787199281048354 0.7618019353061171 10.770149604706306 -0.43002060326949165 1.6811762229310723 -1.7800456810054766
Ni 7.596430245536118 0.591641853634021 1.4728280565967908 2.015231172036516 -1.645732537411482 -0.012780953814752182
Ni 0.5580011283703458 3.1321598670585566 4.088000578071726 -0.863447404007055 0.2062117295065094 1.5625092705147672
Ni 0.13650003112035486 5.987894494629675 9.275515261156675 -0.4795313084051096 -0.34870252381528977 1.761559963496463
Ni 3.8550084633864996 8.22519229653749 10.20661408193461 0.2608998650780087 -1.1532415835219105 -0.9143017676547608
Ni 3.0040148021453605 7.396533146789659 4.418647054361213 0.30601089848403423 -0.415649165039168 -1.5370273241935788
Ni 5.579164652035809 3.883701914905304 6.677326907136232 -0.3830259796875081 -0.35386529896315183 0.46984107770053923
Ni 4.872678132936997 7.255670201825474 6.069021133678526 -0.889280820130391 -2.8613981916965687 -0.8619744190059543
Ni 8.06933844954504 2.513336535633935 6.787178286265518 -0.5515815894041404 -0.25353725406535044 0.18534362780824856
Ni 2.2659820509084927 9.068115349381582 11.587114194418827 -1.7836218283925087 -0.29996314962805765 0.009545220486273884
Ni 1.7250856429800971 6.003189079756118 11.149862987395126 0.9591109535496514 -0.14816213366194483 -0.18292653372632364
Ni 2.61956120236952 2.1001158641942776 4.061884751880188 0.31127651775834775 -0.10328481353328017 -0.05871268334986017
P 5.595094210912989 7.355223042919258 11.582117227076072 -0.2466454120415236 -0.4532039833644904 0.07536623274614117
Ni 7.722237870845152 3.504981483922348 9.724471150985625 1.4122748277048258 -0.8829641338837438 0.5064312181197471
P 1.5644188790074232 7.669350999171463 9.81906291455735 -1.4906988734406845 2.3149225560604263 0.7856869599971242
Ni 7.610362857979823 6.155398729570427 5.4508695860771486 -0.7644025966970514 -1.9320338732817306 -1.8181579144961653
P 7.258357337118447 3.1950866860083895 12.22255911408375 0.7684603117061927 0.9795000587289646 0.1831085678301427
P 3.745388067462192 0.14380775076470448 1.000568630115797 0.5704244331422563 -0.4289559094504032 -0.6907790576736297
P 3.8725944755264723 3.5751138745653255 2.9567285830035317 1.7091320847140503 -1.4156031207471105 0.04175651511149583
Ni 8.99148598094121 4.807653139854294 11.681638779608226 -0.7490353702123616 -1.1298851681841573 0.1597881479366474
Ni 6.989524175085471 5.88828643842713 12.572829040026447 0.78275513106231 0.20721086019498508 0.6498321829476228
Ni 3.0520979593569546 4.389472311144387 12.526510005539725 -0.9774043525422004 -0.6069523528649612 -1.471696878416885
Ni 5.184993193118256 2.270859385515602 4.576231895013282 -0.3314023419739454 -0.030552161755244157 -0.18423959611079238
Ni 2.6441135207313446 0.061374354141872645 2.9023950754803365 -0.5214204924397278 -0.41743993839100363 -0.23789851908682902
Ni 6.302123678581271 7.962257948623678 1.1279848555933645 -0.6742715469369097 -1.8898220158003711 -0.24238303722074386
Ni 3.8000602276524464 2.1102018240610545 12.910196115303807 -0.32201987231778095 -0.06568757200579654 -0.8374044429760739
Ni 3.8877142128085103 8.579461636858014 7.804895808910273 -0.8918596366011609 0.06345971111654232 1.2652100408721179
Ni 2.7524363615997984 6.289415001048408 8.926996574413478 0.48896340035228697 -1.1232324387543302 -1.4601433692513306
Ni 5.22632170202491 6.456891628434781 8.919440386779709 -0.6214325487590072 0.9597046212695923 -1.7960276582560295
Ni 9.161548515921163 7.532012618649772 0.44485432749991666 -1.2231539922423322 1.2340068757964362 1.1111819353476993
Ni 0.8654894677941926 3.258390808201415 13.328187372140304 0.24622477956433722 0.11874100018735033 -0.22701221119162837
Ni 1.9563725310564597 5.407905789699393 5.725822422664327 -1.2525005637252493 -0.7835884255968827 -0.6996591337720789
Ni 4.198050731592547 5.5331520614027045 10.784399704025379 -0.26418573491813213 1.2068123176595151 -0.049895342168546325
Ni 4.215296250561834 1.5481672319958104 9.16085556630623 1.1014785920170063 0.4760662326746446 0.3331411790419231
Ni 8.057559226342963 7.840453418699724 6.588095610373266 -0.08340838632432732 3.88978546304454 0.6109563318180317
Ni 8.36988348904235 5.123060246126098 0.9357552949500063 -0.00617373291087969 -0.4243091547070112 0.0031169483624268897
Ni 6.010155385977971 8.612627512186355 7.268581334757123 1.4760934648226838 1.4955556873123532 1.9246072418003561
Ni 3.624043663444569 7.0518804379114535 1.8343986747989758 -0.4180312921180994 1.5370682047338433 -0.030452145842270135
Ni 1.6901620866895708 0.154359358048688 0.420139124567251 -0.7705387915017762 0.02673613044326363 0.632501147868343
Ni 5.187045354660492 3.736185549335571 11.794790181737719 0.9896782848135472 -0.10662416231915832 -0.9887660574119229
Ni 2.604073364362417 2.3791454163115495 1.3050900776956214 0.9583100549149107 -0.20033701589328723 1.2741294548489348
Ni 8.886135553427655 7.251418638450974 11.69506709405859 0.2344126174207576 0.4533453940383612 -1.5327672633656442
Ni 6.8053541798174075 0.5632548459688336 5.405210372140107 0.20973516927873556 -0.580133175789588 -0.779204180486258
Ni 3.5917428248201295 3.776262515777005 5.449685221994253 -0.41535863038194276 0.12960365393346712 0.2060615770818903
P 3.4387233534106776 3.3209035138355505 10.50831587796044 0.14967471365172932 -0.7974659549099233 -0.4727045152912633
Ni 1.2686315413815747 3.439662010259593 7.2949667947297705 -0.8602294112903893 -0.7068178563040471 -0.14703804735983061
P 7.264799099807082 6.925695509359229 8.366477637083687 0.1787711167970534 0.8023261112157021 0.27482213158605573
Ni 0.6092646758464999 1.8091598485849052 2.1432922387407576 -0.02957180011984584 -0.6292379037360388 -0.2715853698163129
P 9.057606073680981 0.5085891275412675 12.714723587272625 2.4336856677349634 -0.020136622848874998 2.9920552265952147
P 8.976439863804185 4.34466525038587 6.037208028514797 0.17265291971445748 0.6605451984897528 -1.2374812074982815
P 7.807545213878928 3.8410574459065425 2.839859363550884 0.7784189655808014 0.9389277937335571 -1.5183315475562884
Ni 4.629529198995419 0.13811231229613882 12.067210485336451 0.9512716600108907 -0.5717925171343765 0.3998001138220534
