# total energy = -340896.77469022444 ev
CRYSTAL
PRIMVEC
9.03026372104964 0.00000000000000 0.00000000000000

0.00000000000000 9.03026372104964 0.00000000000000

0.00000000000000 0.00000000000000 13.21670374880781

PRIMCOORD
 96 1
Ni 6.493138754042762 2.275852167867283 11.61621314848989 -0.07886087616296096 -1.5410225613959008 -0.830744257347079
Ni 4.536723128526981 0.30477952160488797 6.039412259608843 0.3335831516753481 -0.07355489056901526 -0.4272178437133739
Ni 2.550643087292743 1.4721767736172984 4.833612908879748 0.6812793457133106 0.023048654289347402 -0.08517679107865976
Ni 3.497095978323403 4.447495094519653 4.784869352360697 -0.195601815201147 -0.8445395113589584 0.3148470087184255
Ni 4.909203438893768 4.620749730737099 2.562031152639028 0.7074536901158333 0.06217030288115745 -0.0925460869595374
Ni 7.28856951768363 6.0435670838621345 2.43085573845046 0.20199460610136824 -0.332493261045279 1.42587982008277
Ni 4.997727112345224 4.6722673842146625 11.351733886997126 0.1848818576804816 0.023185179867211685 0.3312717299333521
Ni 5.667944241784533 8.033358563410006 12.396263567274843 -0.2977877392432936 0.2479934414289858 0.10932819151388269
Ni 1.8163652683232263 6.513122727249747 0.5567771528370579 -0.38447196810541523 -0.2684550517174473 -1.9629511316858774
Ni 2.643817346465661 1.4487522700027848 0.3175907564845758 0.6194684830541008 -0.18021556255306384 0.5539734866750846
Ni 0.7175266801087138 -0.27522166299616585 4.509803912923718 -0.38113801863617586 0.637499886634515 0.98942374560058
Ni 8.55048563510959 2.304649678286205 1.5900488035634213 0.14083371832133165 0.3658119298020668 -0.1175328388118621
Ni 6.705169341887316 0.6782233610910545 4.752211404279785 -0.07475353886280674 0.21316013579988452 0.24427434070618578
Ni 0.8779456997349222 7.391668036483514 2.5026093094876853 -1.0845422212729838 -0.3019500981510993 0.8754287447386471
Ni 7.5785493403780215 3.6990397617973287 3.9579265810817392 0.12323888805770387 0.09458651442833388 -0.833281679056952
Ni 7.539159330830409 4.030910977039032 12.680805365267362 1.5267691368006804 0.5083356342313117 0.27632648404572413
Ni 8.157885897582766 8.912012235806214 6.711865282299869 -0.41668969048854043 0.49648670531252553 0.13445121183375555
Ni 6.986082779990741 0.6984592786507166 0.4557447583343985 -0.6818748132054644 0.03373518746891609 0.10428985775902684
Ni 1.7852379499118047 6.626524776745144 9.156122834865325 0.4146484916887956 -1.070488057172763 -0.8056960561291994
Ni 0.07049475230019224 4.733880872326392 1.3597084533716088 0.2902235537427905 0.19634229291159735 -0.1261732880956795
Ni 6.5520973446746655 1.724527488153758 6.969775930095949 -0.6686140915408162 0.999131459806647 0.028890714892421215
Ni 3.3433557416090274 4.343764457272192 0.4292707347235007 -0.48308817251843245 0.7198451218016507 0.15318169836372328
Ni 6.085467506672983 5.561983129443477 4.7218254705047356 -1.0366865352422856 -0.4066443904373964 0.46430652103555514
Ni 5.245842633282915 2.8053145795581655 9.477473793086634 0.09987501652078282 0.020028122295468735 -0.4535647091380189
P 0.3302484768841376 5.607920080055284 12.398113868273539 -0.04397820535316297 -0.863737681553964 -0.1429286531771474
P 3.924046838344294 6.247912917436854 12.462849118489945 0.7279214710518819 -0.7272403858244572 0.8934619480912741
P 2.390690029265034 8.463099774863776 1.4636973561562237 0.6954880331135248 0.47613051025367675 -0.9763535426801829
P 6.503035922879118 7.750449437064945 5.862969037336546 -1.306263616379318 -0.33967538061601504 -0.23221792376228392
P 4.744256645130198 1.2525156130841302 12.695317901797386 0.6396938089620402 -1.0605962519803478 0.4463111128993991
P 3.973017957504474 6.248256067451253 8.106755642410933 0.16484447941363223 -0.7605636825669353 0.6031759165416645
P 4.746116879418784 1.038218429091834 3.7858982546525937 -0.6014396505768481 -0.12592594797156378 0.25307445549631896
P 0.14730888302345171 5.484629891987069 3.5481557974396494 1.0166033913391652 -0.6463097716166611 0.07434087680542037
Ni 1.4556243005543057 1.0989379211134176 2.512680762410301 -0.27488975159919754 0.21651593964599486 0.448058434607809
Ni 1.8753057984280561 6.399558133010687 4.769855636204379 -0.06552842072011296 0.4836759267011025 -0.08207989732089091
Ni 5.91544570480172 5.642803988098024 9.160853789932267 -0.13618156426130096 1.0902315583482771 0.7074590894324719
Ni 8.601136383287619 2.4632301362563167 10.154948545330486 -0.05226435662135516 -0.2107384137322693 0.8597517003230225
Ni 2.4288790137622502 5.1384366787759665 6.973092745893024 -0.7911857783281664 -0.34561462891858535 0.21078623625106924
Ni 0.637279243188755 9.04417014266759 9.170568547445178 -0.09818065953749543 -0.29607127077281914 0.2749116059760685
Ni 1.5016064024837974 1.0482149308270947 11.334499629037103 -0.23164071110257528 -0.0038985637234578026 0.014657859122490886
Ni 3.9370865388914638 6.6946942361846045 1.465269525037984 0.8552728386160625 0.9339565657712109 0.8917902168158062
Ni 5.689960024287302 7.942297385904704 7.878767675870462 -0.47978661894902536 -0.4703820378056738 0.4736589087847326
Ni 5.2923936418152255 2.960057175525128 4.975771832608151 0.2444841427241467 -0.6564365756380178 -0.3270651480511722
Ni 0.6845499637249514 7.32293870070477 6.769886531576651 1.0428625821460105 -0.6062676680931107 0.1004835966390592
Ni 5.01739502632842 4.4564982672658635 7.200129825683067 0.46525422966080515 0.5762513242366786 -0.3946931316127912
Ni 8.0867725722303 7.202195046953938 8.899546860019987 0.15288010796290447 0.37493060427388336 0.5942829849274088
Ni 4.707422200163506 0.5884607354823477 10.539567335943469 -0.08609004692154851 -0.9277890035079183 -0.03206088509028672
Ni 8.089310076284148 6.872707821285954 4.7605373072607335 0.7989926759670949 1.2418901351992546 -0.0850358946254213
Ni 7.127686342511629 5.918236056234598 7.0828709506310945 0.3479710449659039 0.3615143308679774 -0.8544973939026186
Ni 2.2385933005143603 5.129559929719272 2.6458518648405063 0.1103484052482809 -0.07267814439101676 -0.1870456981010198
Ni 2.3275684871426563 5.16444383776201 11.343183130454111 -0.3576862153711388 0.2767897968353878 0.12878270069406852
Ni 0.9773725133807347 3.234848094950588 3.8054189753401393 0.4039976968431687 0.3432139898968928 -0.14435818653482232
Ni 3.6129632897643513 2.6362138645676576 2.7575986670296038 -0.36121968244569397 0.07757558169263415 -0.27682707783122645
Ni 1.004689060579618 3.2976716383762508 8.303975695028747 -0.00879317281159776 0.6498488951181711 -1.1248640608204818
Ni 3.79419164868481 2.5659764747782647 6.942522594741824 -0.8341275719970151 -0.46234965441950054 0.1924362729889718
Ni 4.112996072588734 6.788238736162532 5.955578905038412 0.7520458749039113 0.5894230857319461 0.10466163927614879
Ni 0.8075231895430245 7.391722218064735 11.160990339387919 -0.014174491728169137 -0.06919070006304859 0.9385585833195965
P 0.30778027817817355 5.535091004630824 7.90094510009054 -0.5488258810358742 -0.41290502663512757 0.8184476993679131
P 8.533129468591822 1.601770085634215 8.08337538708775 0.007282906814658425 0.19453249339636822 -0.37893638299916677
P 1.8048155612596326 3.072366563132569 10.372402709455255 -0.7065579177744411 1.132015841373915 0.1376938871407693
P 3.9574136621128475 6.26289412464444 3.7890173076782117 0.14244811399630308 0.027895183748371317 -0.9764664141089635
P 6.916919991562229 4.123778207251699 10.420973787940753 0.19965927309997225 0.12771877820592842 0.8319832719605026
P 6.4145664310088835 7.858830660033869 10.305261797032637 -0.351452318646285 -0.08792427191680986 -0.6510557709420788
P 2.5147026384161957 8.423763946897383 5.854392093029274 -1.5806707719151423 0.12279511565206595 -0.8902562966697828
P 6.936253785794563 3.9967856111333866 1.7316261783200526 -0.7054582569523592 0.08895502717416938 -1.087739388054043
Ni 5.302868747517938 3.2488630639597336 0.27466810784135876 0.7089341313161017 -0.5409585624726554 1.0251075721554344
Ni 1.4640314759070858 1.0179545177152078 7.1315485862263275 -0.013599335950989484 0.6896817108443929 -1.0779653393864146
Ni 6.850701069046722 0.6931314231639922 9.162082808799628 0.20644518567355413 -0.09704834570526513 0.907707916487327
Ni 2.7975214621258893 1.6517887153646658 9.164805433255978 0.7074624318665816 -1.3552482738081368 -0.29571722986751003
Ni 6.206400795958089 2.054294651991383 2.5224605378206784 0.27504016113413277 0.12905652318074548 0.16558367157250192
Ni 4.020020479213627 6.8421494094773525 10.272510837237297 0.9499639969430609 0.20694937900348231 0.0619540731052933
Ni 8.228791526873884 7.113671373502483 0.31590300022954393 0.3136750998975114 0.3914517418573581 0.339113594575274
Ni 7.2756833316165865 3.795826126384975 8.325003566700587 1.4059614838922883 -0.8013146392320523 -0.223304423322738
Ni 3.127983956255849 8.245795513113716 12.258809410849125 0.056242367432496686 0.5211903787067927 1.3312552533276492
Ni 0.037540611575271776 5.022316519955988 10.128382413031511 0.022951209479534666 -0.5217665629252368 -0.21969665136682162
Ni 8.722638579175543 2.3508214157499703 5.825565685767034 0.366456248254285 -0.6067597772381809 0.42743870147492835
Ni 3.625045782376618 2.683469233655841 11.56940026231501 0.019506702574359953 0.5675008317375582 -0.42460971666656544
Ni 1.3388629930232117 3.2688921884844024 12.544712972582996 -1.7243674136065656 0.34477387818484495 0.30693623851178103
Ni 2.961167897940157 8.3311134430096 7.9453532270855645 1.4851051814029905 0.03263758352936315 0.6703400730929875
Ni 5.659302279579796 7.772654855101987 3.5761622567727454 -1.0150203631227617 -0.10695120664127387 0.289264789373947
Ni 3.122656100769125 8.496611082848917 3.634342438687775 0.7742306385310666 -0.9014771050862667 -0.34358294320053734
Ni 3.330505676596131 4.2210431758067966 9.269667562524603 0.25694268020247363 0.6977446903581854 -0.5749668010973001
Ni 7.382610682156082 6.255091976948627 11.43404744821431 -0.5934944275878424 -0.383009781737592 -0.58643957762359
Ni 0.4859031294683192 9.109729855944908 0.30843948741636146 0.558698917175212 -0.43605266839618445 0.4944591333595355
Ni 4.596855653418671 0.2580596471444378 1.499091474088793 0.06826047493929534 -0.4087184993576058 0.04615181596571406
Ni 6.010850439068232 5.9049254477813236 0.3776474271625568 -0.5748778409279196 -0.7218688370998987 -0.35280729001228267
Ni 8.10924889817345 8.930298519468277 11.378933943796383 -0.6956132458374794 0.2753849460680612 -0.2198791996912729
Ni -0.028338773031251298 4.768873143531572 5.844386561030476 1.0721129943706955 0.25648502383976474 -0.22921127572547623
Ni 7.81107862645116 8.646314791762334 2.7993636358874006 1.7444330740081893 1.091840811816926 0.4712886087803432
P 8.42962458793278 1.5390910264251412 3.7569535509380216 0.8190673352297829 -0.10997379551768158 -0.589302500993682
P 1.765868034625324 3.212841342711355 1.5491823459275385 0.16247443651955892 -0.679190838615398 0.46034753638780723
P 4.7923337682002325 1.000354534081944 8.202986645791064 -0.030124844409838446 0.34121804251278653 0.16269323739858432
P 8.575156315092185 1.741007719108456 12.522588826917785 -0.2060878023341354 0.7147245127456336 -0.5842765085340003
P 6.474193261142513 7.8366433025239 1.504695655639744 -2.0665244229938535 -0.507426492153481 -1.9696185164037239
P 1.9398089708715678 3.194555059049293 5.926263960518832 -0.9652286364116152 0.30241058272728566 0.5770067143454644
P 6.990950092037087 3.870759253213514 6.129853961035519 -1.3324618720412407 0.030036655571406334 -0.6784922698864766
P 2.594954590467923 8.43106943009867 10.223834104668416 -1.4283591348611981 1.7231150292567035 -0.7920545540863649
