# total energy = -381173.0285185397 ev
CRYSTAL
PRIMVEC
9.19441510616117 0.00000000000000 0.00000000000000

0.00000000000000 9.19441510616117 0.00000000000000

0.00000000000000 0.00000000000000 13.45695589358696

PRIMCOORD
 96 1
Ni 5.632066391054294 -0.09114515371104266 5.59624954806054 -1.0665745810509697 2.1378187996634668 0.2040178071789841
Ni 4.159617632723536 2.6074165201050583 9.847530899491872 -0.8196926275186077 -1.2929679277116766 -0.7545982090121197
Ni 3.43472996705098 2.5716778296374123 1.458384061956084 -0.8638335837018801 -0.4818229326527637 0.16149458910479284
Ni -0.02905435088185278 0.702875317113617 8.771929635430844 0.7463053728757082 1.03617951369888 -0.8527629277100153
Ni 6.919882105062746 5.3027408404573935 1.816649033249386 -0.1993365996532309 -0.27098218901467525 0.1610904116878387
Ni 7.764775273175156 8.429623409968439 9.754516521244664 -1.0084370534782892 -0.851864841375778 1.7512534393641321
Ni 8.498875742513412 4.3190303971506125 3.633674118065566 0.5844834823384837 1.0374295840558971 -1.6091897052904414
Ni 2.8399800489675853 6.66490259282998 1.4979338373732642 -0.2676531246414423 0.12614937683627953 -0.38541813406876846
Ni 6.3268331537240154 1.1829166351441935 9.16951544121191 -0.4391739876339856 -0.06432668710252792 1.167734120711131
Ni 1.8070151253841944 3.86369539122593 7.401581176088258 -1.5676892720538098 0.8220503291175069 0.25183029867657275
Ni 2.2137024824114455 -0.06600118745895317 7.870986395036517 -0.11163601371145289 2.8270531385577953 -0.765021975448605
Ni 5.728423858535881 8.840420670427395 0.8115864003688937 0.06494812273661073 -1.0877411878262557 -0.334708780639359
Ni 2.1061370232447376 4.301744897258877 0.27883442152484444 -1.1038334654024278 0.11497999048302134 0.49941724869575915
Ni 7.131280090972733 8.817094439988388 3.0508806170349434 -3.758585154047914 0.648597024988941 1.943376809098376
Ni 6.34111207996437 1.9848810803871824 6.875925446614657 0.5533687632115502 1.2657849395389813 -0.4713534005800075
Ni 0.12013974089646125 0.6479138635482842 5.474060372097129 0.029225729634336766 0.4110566605724792 -0.39689476724980033
Ni 1.267275391264763 1.5175841407608264 1.26667499597597 -0.6246572263438919 1.181522689854791 0.0646385619159919
Ni 4.136980983397231 8.960269867815038 9.41717711867668 0.6025850770352008 -0.7706868870438662 -0.04477036223715515
Ni 8.498986075491445 3.725843529589342 11.255437623998155 0.12464271038376598 2.5489194261000034 -0.3800514704402164
Ni 4.180369427008453 3.640896330919267 7.003201892306844 -0.3436335939328146 -1.586108655101262 1.6121870973558685
Ni 1.476880466281724 5.799625407026093 9.582267434265006 1.374859363170845 -2.2254522798127354 0.5575540049374914
Ni 9.083686498159059 2.4865191594261087 7.15309843737863 1.066066016845667 -1.1054365482234898 0.34740823048389846
Ni 5.286163310508033 1.2019490738547745 2.3840611977008153 -0.7286794322638289 1.1164550108211806 2.0099460123781774
Ni 2.9380108999493304 5.659382997532136 6.547051341786206 -0.3258107068187809 0.44107377575985973 -0.9014485658411765
P 3.372934304938027 7.611366461636006 4.9914538123273005 0.20641613220783162 -0.3687054492997779 1.2193569870937453
Ni 2.746491238914839 1.4578296387414715 5.870852699877845 -1.3823541288859933 -0.5071855797872685 1.2313470695760858
P 2.048561597541522 4.569201230424135 11.386683298575056 0.25875865036528983 0.06698495066098141 0.9391764194092536
Ni 8.539248418058417 7.57544388287164 7.756212514638362 0.04000405119676336 -0.07630519962064279 -0.27150309451515175
P 2.617594737328543 2.1218043061253318 8.038364281036046 -0.4249074504126424 -0.8858514827338679 1.497306351454873
P 5.237855854959535 6.721503410560576 1.9984253728821373 -0.024864881562479756 0.4167989623728951 -0.2347607447887957
P 0.022815020974123256 3.5085427293546245 1.476927357797388 0.1580667943701665 -0.3126458873020487 -0.24442963533712742
Ni 1.180231866012073 3.099244158513941 4.77732692409398 0.38169183425711684 -0.23958053477494223 1.4760649255775935
Ni 2.3125976083877773 1.0855477820306427 10.1446741592797 -0.7791224194057291 -0.42340541194581915 0.76464376617358
Ni 1.4127586172152555 7.908364449669426 6.089245796595083 -0.16093100329183896 -0.6551744210961427 -0.6056590879748344
Ni 5.59069152429216 7.047077639904376 4.7799372184659275 0.6526567968806115 -1.4875058204246832 -0.4307124871301937
Ni 7.61770141345803 8.008169822714526 5.583088662664249 0.73537175668234 -0.10196609472185665 0.41132534085283357
Ni 3.751744196182437 7.6688959152650416 7.266729452012667 2.0642639090944517 0.07711612555771236 -0.4580949929082046
Ni 7.815556026314547 2.8910734122114 9.337094684896348 2.188364373821502 -0.3374230942467286 -1.1636190701014928
Ni -0.05963773295093725 8.938341188431108 2.6525004138120445 2.8937326421632164 0.35602733961147714 1.7358293914995784
Ni 1.0724549353041368 8.333265942486852 0.7851202772633832 0.524281873147923 -0.3521868828194645 -0.2708088966616046
Ni 2.6321127183546333 1.5132627657878925 3.6085365879038616 -0.3106409410568779 0.14692774703421146 -1.5466105970066395
Ni 6.157619143081732 6.144186103006293 7.043397115645513 0.6353059643069898 0.6501031772208223 0.8206097400162384
Ni 5.576421792466643 7.969727974285087 11.494312199204131 1.5352987715382462 -0.23867164980742767 -1.3037711889747674
Ni 7.82680079565901 5.535230814001232 9.040153702234912 1.154161781343335 -0.6541200116896992 0.05971824179623909
Ni 1.3330522350017169 8.099792166555558 9.504338332439271 -0.8567208839164987 -1.0521823168850395 1.8087625893241948
Ni 5.8170672119700395 6.445339966545599 9.423609531295968 -0.34337776916826673 1.3430789854354548 1.0231671605996122
Ni 4.316685821367425 4.5846478473486645 1.6741530726791194 1.06487173942725 0.5369093321039463 -1.2564376939961264
Ni 5.879515677536351 3.80286514267076 8.88604519572674 -0.4508092578800688 0.5245909197479094 -1.2580484901266722
Ni 5.160871019537461 4.845769228691898 5.515507874736466 -0.7339859320784069 -0.2760500904558859 -1.1596307748777062
Ni 8.651916777459121 8.496871360079158 12.454762611858726 -0.44623449402519283 -0.7117590023594065 -0.30606566298136967
Ni 1.138268556700435 2.5993070462196806 12.19585064840059 0.12149156634929398 0.3896468274381354 0.24103037984759132
Ni 6.2875913912038435 2.7128764582743154 11.233234031610627 -0.36743223901430916 -0.7974960368169104 0.3469307766268477
Ni 3.8389808041466837 5.84747314183279 3.519963112022456 0.9815389435358645 0.3419240674408756 1.1146264422528738
Ni 8.700242621837292 1.1957704270849625 10.974012216372516 -0.46333618670248594 0.5907554313901245 0.6855620322490645
Ni 4.461415105301363 1.2057187839375463 7.595993400030165 -0.8476484893015853 -1.1279043903087025 0.0843820630915063
Ni 4.560475730744743 0.7753806336275773 11.45076561165773 0.6253442251085876 1.448649252568802 0.5082389607524472
P 3.005571460164474 4.114261584337402 4.739620628851424 1.4071413631330023 -0.05481463384703463 0.729431479938505
Ni 2.7915162883668745 1.1718833373409585 12.821989379292706 -0.4731827404792625 -1.161018399253852 0.33534255756861603
P 4.245686550003606 5.430993733005167 8.461383677136535 -0.33396624604637964 -0.23343662666073348 -0.5539837710877298
Ni 3.515401762822302 7.01307669384074 10.585335798567565 -0.3416458740788245 -0.7808332314492488 -0.2853320299784441
P 7.097049284538196 5.992110481618367 11.311957530878194 -1.2354220109764078 -0.3787420076001735 0.5678625859523511
P 6.655698983579114 0.7173068706402487 12.552352130928341 0.7223249508007108 -0.2189201782121133 -1.150237249477948
P 7.698649041674433 0.44060003670846143 7.172005832047442 0.99027580918823 -0.4408002103834989 -0.38622494624078
Ni 6.148277617608326 4.069328479033727 13.320394702075284 -0.4885625653694425 1.6140688877596137 -0.8098620145814309
Ni 3.544456113704155 7.97467456946687 12.787579281768867 0.6095116289517051 1.0720996246342567 0.6386350286802226
Ni 0.183564653318359 4.990176708106576 5.918570793435354 -0.2510581963972386 0.8610807035470912 0.5048420192557563
Ni 8.597623757852368 6.726385644838508 3.9420134167992287 -0.4178212329898224 0.4447921051517114 -0.2392303505243751
Ni 7.844711515759595 7.413199238675065 1.3653963475119009 0.48222813851098234 -0.20758855524937797 -0.9120319977839777
Ni 5.965722511038964 6.709513893614394 13.304205176432003 0.7216945163055636 -1.5609475824546022 0.5430239296421164
Ni 3.695106600792496 3.275574646239312 12.228389682505298 0.27312083262423287 -1.09046912828038 -0.08213440470791017
Ni 9.016319020655473 2.1065507719123593 3.349691743674028 -0.6771717513028402 -1.8136515419853798 -1.720600747475282
Ni 5.349282968357374 1.9864349364944713 0.299740681979008 -0.4091884970154888 -0.16026534468338205 -2.1179212894085913
Ni 5.847316836780577 4.001602419351535 3.540188985778754 0.45236451818233064 -0.5056292910437421 -0.17355177737964303
Ni 4.770145166665556 4.626151435918501 10.670975336674793 -0.06492601124942367 1.707082658384189 0.6285660744799949
Ni 1.6829916636609945 6.141795555148925 4.3424789133069375 -0.5230721691105379 -0.3069370098427294 0.44638978865613443
Ni 1.7239343929258333 6.618296104026147 12.739538464250613 -1.137832448055692 -1.2658337904990458 -1.395453385272113
Ni 8.20915053661529 0.7287097839198923 0.8885335386901398 -1.0734427689257127 -0.5176276010561989 -0.2823179257424686
Ni 4.664510534614416 2.1740745544681586 4.876518110228031 -0.020374449891293944 0.8893389270618361 0.14617852757301278
Ni 6.901861051984128 2.8019243659612596 1.8318823397497195 1.5399398698546831 0.27724231099177415 0.4860187159016662
Ni 1.988816289937003 8.371845707138831 3.534119752545491 0.1358900011628111 0.408613084127993 -0.253684321166176
Ni 9.008145185866242 6.573491720530176 10.822823856016267 0.5340826612884286 0.8605572269434535 1.45168906783639
Ni 1.9970636800449215 4.442051667656686 2.7633593123730185 -0.8391836463636839 -0.8937887353030736 -1.1292259373336035
Ni 1.2571707293599665 3.172781088372504 9.86949267876921 -0.14137853508120815 0.1923673674242493 -1.1395149779644376
Ni 4.456008789377778 8.470060446417296 3.31758392762513 0.07466535002437465 -0.3190242800245667 -0.7832199865138705
Ni 6.08069866856351 8.396100573476277 8.013549474835086 -0.25747001346085335 -0.357830454258487 -0.8468324211581932
Ni 8.06748299282175 2.6372340074183014 13.138900630977997 -0.06440227753546973 0.041685552664244334 0.4591985103850285
Ni 8.4224425719815 5.305195749218614 13.258371018474396 0.2248846233256643 0.1357136234859469 0.07840656223436175
Ni 3.261902551378136 0.22243496147915673 1.469378743217008 -0.09356630069393562 -0.8972553536954354 0.2780570935835856
P 0.5138013704255091 6.4847564229476555 2.1034301875170107 1.1401490120040105 0.5182834894726429 -0.4077697622910913
Ni 4.015476791339103 5.507224626410687 12.735514988318364 -0.5338340356127322 0.9024590093835618 0.36820639817617234
P 7.250798289426279 5.291532848772274 5.133034928621382 -0.25459397746463897 0.568014281038867 0.4161057929606124
Ni 7.782676798860905 2.8835891585348725 5.277481944019854 0.23677880366008902 -0.11615215641425157 -0.6968535460024837
P 1.5908452381743083 8.66740936645783 11.646726175058022 0.07806563395517523 -0.08772064054643602 0.42420039704328877
P 6.565768412067911 1.7438219122161647 4.041312177586862 0.36323337044161313 -0.9276115973897896 -1.095115625913456
P 1.066579704223914 6.356981639971356 7.6628478291859015 0.06650261170792417 -0.34317336646694446 -1.5921227225058259
Ni 7.532165772238449 4.048328435548236 7.186270047224058 -0.9672724063145212 1.8855982075270106 0.2574101067571954
