# total energy = -340895.3793997135 ev
CRYSTAL
PRIMVEC
9.01613618177172 0.00000000000000 0.00000000000000
0.00000000000000 9.01613618177172 0.00000000000000
0.00000000000000 0.00000000000000 13.19602666704142
PRIMCOORD
 96 1
Ni 6.196673126873726 1.9835048597552192 11.284608556450992 2.0034177243413565 -0.014967677053425837 -0.3366209100604074
Ni 4.548099690697165 0.5412665996780429 6.20246238785897 -0.26317452004479835 -0.7404599698385248 -0.938853488852196
Ni 2.572988853644426 1.6042591272800095 4.705254549250665 0.5180549184016046 0.08186495309660739 0.7452887586857359
Ni 3.3325442226538065 4.25711291443525 4.823569696743218 -0.010512212385233508 0.24103012273727523 -0.3153334614365408
Ni 4.857362174819367 4.565491817220348 2.607362872498567 0.49698087134012475 0.374286028711349 0.42369234705861863
Ni 7.022199563674779 5.995685421091034 2.77586363671136 0.627838452285351 0.287761208245227 -0.7834228465532959
Ni 5.307357527215481 4.437588910606618 11.701286581143052 -0.5971927023750361 0.08721876120935303 -0.8212571437922502
Ni 5.562369920466766 7.699221222889849 12.334893741843642 -0.2908778994973378 0.6416655879764305 -0.06469898284028212
Ni 1.768010190999068 6.5728894376217255 0.32193466340075794 0.19680791969410621 -0.10961924039174024 -0.10890653059543179
Ni 2.645253184428935 1.7834007353096304 0.38480418037647623 0.6769485795484406 -0.5587284848615668 0.03419721470699917
Ni 0.6982817081221038 8.876322870497035 4.74534389677409 -0.5971682768950037 0.7420139445892059 -0.19281062560925502
Ni 8.510862810107852 2.2957697171963534 1.345057837199967 0.06691707353752346 0.8076909750720412 -0.18193177391322213
Ni 6.775418902676301 0.6302576661420806 4.700503947143322 -0.009518995234028767 0.7893422973615245 0.29335130073849475
Ni 0.6695373646443629 7.247467723955623 2.4919373966237863 -0.10608243088307535 0.5562350290157517 0.22815069567144577
Ni 7.584139261800209 3.6981305089482888 3.8044145244384886 -0.03878611962926223 0.04272942054772641 0.03256662108211166
Ni 7.471076915195375 3.944920186082859 12.599552499100708 0.6151307749106955 -2.05031670288574 0.6351853795687253
Ni 7.895700860626097 8.919762614192576 6.9551636902105365 0.39787127223045676 -0.07453113843935551 -0.642372641345784
Ni 6.794983917997871 0.7589188298012226 0.3028529129737666 -0.5886214157662573 -0.8585993318861342 0.23441236031044146
Ni 1.9953250141729975 6.614228421607623 8.88272072066855 -0.4870363585329031 0.06069268989436645 1.288537659854465
Ni -0.10811789757149338 4.824137713317069 1.1889263100930094 0.09446618680038571 0.37989077649263603 0.9162149255170737
Ni 6.288809021606963 2.0675172158687634 6.947034741909188 0.8828067823702731 0.29472966914326015 0.09138266277905552
Ni 3.5481470850430727 4.308306535170677 0.5188678127824776 -0.4762526376538378 0.39261336626562704 -0.08103834343025398
Ni 5.941218942953889 5.6000754016072305 4.835525994815998 -0.570627807402314 0.4537346590569798 -0.5539621738211751
Ni 5.519570322433819 3.0411787686759904 9.063294992723328 -0.40916612841798566 -0.6602325523453403 0.11710860679024994
P 0.13675404741611963 5.618098657656916 12.248934801947643 0.8134109082749541 -0.3689160226486872 1.9452521717442177
P 4.025235926398319 6.018838858577574 12.515468013898422 0.04266874251312007 1.1931170795606096 0.9758552628875259
P 2.267594291906074 8.516975750378831 1.496574905854584 0.48928813068155735 -0.15680026895291704 -0.3070532237056196
P 6.235938399558259 7.860177284420112 5.803612870676991 0.6780508114736838 -0.8609734885452657 0.14983052250330325
P 4.715349015220264 1.0044336252922588 12.54080425793305 -0.8033270416763907 -1.4890469396595583 -0.6918684340830665
P 4.141769485398915 6.3128550565667005 8.21246837643202 -0.42770172532832784 -1.0676626719088258 -0.7216286960646345
P 4.62219429710853 0.9951740535248612 3.8189827971373793 -0.19458674367307133 0.7418128843219934 0.29510222199133046
P 0.03607897018930651 5.437271032177925 3.5612908082392867 0.05171182655199481 0.7422715691259668 -0.5536765242599562
Ni 1.388953797381809 1.2226511671484626 2.591171695302956 -0.11271921947330266 -0.6574735015429645 -0.3874927572096101
Ni 1.7417732349687596 6.459394316484433 4.5990525805989115 0.4334293718407245 -0.3301810679723346 1.2331381000382375
Ni 6.0084703020707515 5.571241798382169 9.13207278368072 0.09501023222931379 0.622842027512024 0.5047407177912017
Ni 8.681105491813792 2.279432478596038 10.044631080572824 0.3890390186508074 1.278074812649928 1.4111867368469697
Ni 2.384452431806014 5.256299148521447 6.978204425995916 -0.1309668528295809 -0.5776147802431084 -0.61598386693961
Ni 0.6063306441787706 -0.1161512748302579 9.019417966427284 0.8369125909413199 0.775908797564438 0.4081914232095422
Ni 1.370912509059937 1.173359951128636 11.467531531957972 0.4402343105776999 -0.037214918487400425 -0.453472920755161
Ni 4.089854573776058 6.843075987917344 1.7290361395103349 -0.06990495252125381 0.7314634227668693 -0.8212676853152114
Ni 5.971495127953812 7.964466930606564 8.029201886139901 -1.5078661292485902 -0.14275638926534123 0.06645941717481459
Ni 5.335442791144831 2.944552838168494 4.816391049186059 -0.3174317387264662 -0.4828436606077942 -0.3304376640678309
Ni 0.660161484721367 7.331885806193347 6.804755606295346 0.40110649133830273 -0.052503983435986994 -0.16919092930778604
Ni 4.967241825383411 4.724969232431378 6.903686061188185 -0.46814080717998086 -0.9433328647797884 0.5826577419836546
Ni 8.256914320915527 7.100630931546824 8.988829823118547 0.3352893357331774 -0.5329714305021209 -0.17541659850252367
Ni 4.605586574425429 -0.07502417004254258 10.429215267228635 0.2942897533923641 1.0240464778807719 -0.4853386591155061
Ni 8.065222251444604 7.196607700255633 4.825641604817363 -0.23289180990085695 -0.2632025450692564 -0.4606599254219034
Ni 7.162301302422188 6.017585615660662 7.019956349014869 0.5864547471322417 0.033244878096058875 -0.5579502119346456
Ni 2.299772881621596 5.411962738165184 2.384324402673495 -0.801038245642214 -1.2880429796062334 0.7361428305204096
Ni 2.3467289183933646 5.057971202886158 11.521253277253845 0.12268198711296938 -0.36339560705109025 -0.5231493022053765
Ni 1.0959474066350867 3.3755511918168892 3.6135735782147345 -0.51145181126279 0.6992644694368214 0.16964421479512073
Ni 3.5649802111284967 2.641349197500714 2.7074555073337794 -0.41405559529980296 -0.24490708919417822 -0.47142796257168484
Ni 1.3334414474578884 3.2042987028685466 8.24944355054896 -0.9440828555719354 1.284577389655136 -0.5829426202139251
Ni 3.4618897110423985 2.6235874093977216 6.909478928627866 0.8540471937390776 0.8993137788863609 -0.009686374049828477
Ni 4.23551926849278 6.982023661244863 5.985625216438588 -0.557925272233981 0.0900595730922578 0.058824526337376115
Ni 1.1128075811287903 7.192000454712167 11.160129978325344 -0.24354337607743218 0.48882044701651944 -0.22903798337240555
P 0.34351388352547957 5.4775010314243975 7.960819903556992 0.012696107410429746 -0.21080474819383047 -0.6841342986636024
P 8.709208788015328 1.6511610672352204 7.960621548562947 -0.7129357962763271 0.22409555176546567 -0.05457346437050601
P 1.9183903248923715 3.1093587898104205 10.405620940687152 -0.2207960550785875 0.8208215989167283 0.2210130561854
P 3.8244646078818563 6.168299346589403 3.870143959782871 0.4524102838186015 -0.012291415772843348 -0.42287936423902006
P 7.065711436459064 4.003101312290275 10.31262851302509 -0.3210891329733954 -0.3828287760750375 0.7244872485593522
P 6.62479533310849 7.68262251634284 10.125601392368628 -1.4543740708677213 -0.27407188368359253 1.892308529667651
P 2.48928304615804 8.349879700169312 6.014049487085031 -0.5454667347556541 -0.004736229133404746 -0.614464087860974
P 6.724621991928962 3.873232888008295 1.6850662470125313 0.37594876112575254 0.7973158024853043 -0.799148741928985
Ni 5.197315586201764 2.7379300473277457 0.38010136379042503 0.5999250137045345 0.7195736133078189 0.7508305144395714
Ni 1.5535253294853206 0.9951830696609542 6.991426589576139 -0.022079605507858747 0.28836516037781307 -0.3279701763639448
Ni 7.218345604375589 0.6368385438762806 9.29018786072811 -1.5836002868571113 -0.11664735088311524 0.04433944534732364
Ni 2.8616945474748396 1.649240630247435 9.02279631262129 0.8123485284487105 -1.1705908734336354 1.453392423680742
Ni 6.245252068142215 1.9048751368891301 2.5199658588957523 0.29161812009747196 0.003282013185381445 0.5863565309914804
Ni 3.9892435111155042 6.518459024028951 10.404777030348857 0.28274627152913884 0.9495739605934936 0.34992996846448765
Ni 8.103874426874823 7.276580827399562 0.6483791980751791 -0.41771993152526765 -1.170957512744435 -0.785316464031583
Ni 7.794296377989369 3.8673543672757313 8.271031786809774 0.3036297998463674 -0.40167573357821146 -1.2197835331082025
Ni 2.9522526183918214 8.508969421528345 12.558078273073418 1.0020959417516098 -0.10118885023619992 -0.545142518647016
Ni 0.26589216467457555 5.015081443492282 10.101360608869285 -0.008557659762023972 -1.0791493323921866 0.24802789421134705
Ni 8.61235745410551 2.1534770573783715 5.758204904472373 0.15701058519151023 0.8150325030387771 -0.3083351757418368
Ni 3.936553211788658 2.656947112941413 11.21978975085199 -1.5521886053150493 -0.4652832831265277 0.13471217880462608
Ni 1.0434193977579127 3.3843599567796425 12.586370006519296 -1.483932244140812 -0.14477727635011195 -1.0765041814598557
Ni 3.4119763816321624 8.39443744474037 8.185126042116723 -0.13570153930108889 0.1589103733173844 -0.4088858781734055
Ni 5.329744593134126 7.904518641724943 3.7052595677569364 0.2253754469191538 -0.4406148338455702 -0.30046322919292767
Ni 2.841435289674117 8.416256494085165 3.7143775861876756 1.0391977316999135 -0.16911611020579262 -0.7103117283899185
Ni 3.5510773292732614 4.361627964024025 9.289870492737643 -0.48958894975142775 -0.21725616024612904 -0.32481928943978894
Ni 7.217182522819607 5.922131782845242 11.51846819281475 -0.39164997391109324 1.8001519648370483 -1.5972975818385458
Ni 0.45286158206004307 0.16987121689891196 0.3985123136921054 0.709756627217397 -0.35717945093804937 0.3308729518330366
Ni 4.498132264470372 0.42322013304105965 1.5782448698111955 -0.6602572349356887 -0.6783194917540383 -0.14777081176079712
Ni 6.036212952828572 5.735470717314151 0.5029931019637272 -0.34439566890981976 -0.5636858288668422 0.3120136530346884
Ni 8.066754994580396 8.348419086122263 11.683630281832347 -0.23775762263359052 0.8384750503324334 -0.7085929459265989
Ni 0.040550072077770394 4.963968967981692 5.700841541808582 0.013202614733203067 -1.0858390857075364 0.6575719747940417
Ni 7.765778339527559 8.680934185228027 2.5623254694873654 -0.11405516467590679 0.6500332432148354 0.47125338466703354
P 8.409791924506562 1.6224807383237392 3.496682980224859 0.20638399341831554 -0.657756580001022 0.4520778401798472
P 1.7091167900403141 3.4644593098288725 1.3909535763672116 0.31959249382321087 -0.4808114606691139 1.4803825791163407
P 4.907446810815368 1.0024140108074515 8.36294227814069 0.7614838803883595 1.0590268506106988 0.14613147638516125
P 8.36535138970471 1.5297317463361852 12.248868984154164 -0.28531634624916025 0.7186870969378073 -0.31521776179428296
P 6.092230206373695 7.822904577812107 1.4039782865669999 0.5493964088273635 -0.43078010714333553 0.260508543176861
P 1.6539109887435517 3.2970206464478222 5.85163281150772 0.25555916959138564 -0.16570811296550816 0.4613338115604764
P 6.890726267168265 4.040644502981067 5.979687189207811 0.41616030034763163 -0.6881796723775696 0.6840810768281639
P 2.3812246550847593 8.649440821855563 10.236922723093926 0.9367115028085287 -0.28411589818315586 -0.3182375224572132
