# total energy = -340865.73866172915 ev
CRYSTAL
PRIMVEC
9.30077210532684 0.00000000000000 0.00000000000000

0.00000000000000 9.30077210532684 0.00000000000000

0.00000000000000 0.00000000000000 13.61262011259617

PRIMCOORD
 96 1
Ni 4.285023794913941 1.1755431804920653 8.880015349896377 0.5951558744506653 -0.5544475980980258 -2.479078494047466
Ni 2.9668904781780956 1.5598789837665892 13.104365558365448 3.3344978855437217 -1.4977696642445366 -1.9871187300710165
Ni 3.7873487834816517 8.791610581517878 6.7119337699293675 -2.202336776841194 0.8688487775282842 0.31643003693482924
Ni 4.386365007131816 7.9449892044477215 9.37264283233907 -1.8617887638122388 0.05429347123624197 0.88432784700049
Ni 3.4941326439459783 8.731183465532238 4.359522979005826 1.2449564328294043 0.2918747161929683 -1.7266778069072972
Ni 5.58731789685472 2.0846099410819363 12.772327066230782 -1.150475076520367 -0.4821049826695568 0.6122190005805392
Ni 6.527979380086306 6.805635327988306 12.30529158815104 -2.571525079314662 0.6834210746466618 -1.7122415768773094
Ni 1.7227913069318133 4.979940279134819 2.2568500085325227 1.6177291102200202 -0.7458572295946961 0.37156708711828906
Ni 0.3038450618303309 7.315838479367133 12.804547730831219 -0.5437440956375926 -0.06441256194811487 -0.3884777468306987
Ni 0.7607975729345421 6.826310944247514 3.5855099390705143 -1.2030433375353862 -0.09068332271918576 0.27787197415597303
Ni 8.031681700692474 1.4235110640218689 7.982603386757884 0.7612051728056761 -0.44759820714193876 -0.24199325798149293
Ni 2.912183337001009 5.878664581209062 6.6485536588189875 -1.6842240086184608 1.469400111962908 0.006612363110195063
Ni 5.88184544524894 0.48724977604544883 6.193606394167986 0.5489809185564997 1.234032329717733 2.149861075539981
Ni 0.8673993018218755 0.9309886803033005 12.803159125564688 -1.2289209766330964 -0.07242154829552043 0.896674798601617
Ni 7.575144004021531 8.832682790874902 10.540088760687516 -0.6847439072231433 -0.48178899409103476 -0.2491920897227773
Ni 4.284093717709299 5.98338197367979 10.653440989926146 -0.21309868643432978 -0.8955581684986705 -0.4243680329694046
Ni 4.191606840479623 7.850837489021736 11.937110295843953 0.38894440205447206 2.8353462318045235 0.5562591973854678
Ni 9.457211032248416 7.113295566512082 6.1301574573444615 1.0694341619869518 0.16290226808559688 -0.16613183076648808
Ni 7.257066900805758 8.090816009363659 0.41467957207599354 0.9112742936823467 0.40688838812740247 1.0159032799483472
Ni 2.020899652563908 8.556375454919634 8.99915358942509 0.17035049683352596 -0.7808198617128101 0.5389911543336394
Ni 1.5478716870546512 3.6137591740071286 10.090627091389496 -1.178121891703358 0.9868755252574294 -1.33254029068766
Ni -0.00325620029345427 6.219323958953562 1.5279215310150642 0.22483371548307085 1.297981578876184 -1.4792957738100652
Ni 5.120874877954335 2.349663342861027 4.555245635719232 -0.5790170599072738 0.08902418984920797 0.879547394892711
Ni 1.8445477137915958 3.4434341355209015 6.416512417341486 1.2083048430446415 0.4054030618311277 1.4971217462478925
P 2.152189350771278 3.3783101296518168 12.127088795741487 1.02872537141368 -0.8735143013247537 -0.34951087864919805
P 2.5710031160219087 5.554346659950134 8.75004264101078 -0.6024035571520141 0.6569862774939008 1.0797833664317598
P 3.295189129872894 8.07102396644886 2.0651434251887633 -0.8788886782627895 -0.9288873787784196 1.2371366796746692
P 0.04188974721990484 8.394272298922449 1.333434946906628 0.7000967355301297 0.959881770277405 -0.33930771286395117
P 2.207203417425897 7.229462209371961 4.93984279068826 0.4082027360634518 -0.9376769520455915 2.1673000969520353
P 0.9966986348113107 2.749484931592853 2.9386375229326633 1.4437137629403973 -1.3846041012624348 1.1824711698109893
P 7.742064959938767 3.3277790351235756 13.484511363833056 -0.5907127510776472 -1.6843119403465765 0.9243007878490017
P 5.908966496536323 9.095531909678991 8.536868945706662 1.6930819732297226 0.6232981412128362 0.41640969735427635
Ni 8.15389384538253 4.588907919986867 9.72134365759491 -0.1871230883061745 0.2770098832659939 0.5121622070662535
Ni 1.6079918775627584 0.08306147483782549 5.741122904032083 0.1800129596239545 -1.6552476759907684 0.7430380149783461
Ni 5.247504889366445 7.744566867619255 2.752390492780157 1.0197365376515084 -0.7026444416526479 1.534410198285706
Ni 6.47488127247325 6.824581000646878 9.61577803471355 1.1609610636533554 -0.025238205741498466 0.38597400657223846
Ni 8.69991426991215 4.827091391323829 5.724079239257004 0.5229307584366671 -0.038484015007811144 -0.5426284939759107
Ni 6.341266381254273 3.9579993489895036 11.667988736371756 1.3202925836685584 0.5287098270122894 -1.1229177357273887
Ni 0.6632640967924753 0.32989466417796504 3.500144662996789 -0.1379545970013237 -0.30409105575350204 -0.5556146218229334
Ni 0.4282038247087038 0.5726727169058622 10.47911754953716 -0.06738887096761943 0.16966838316483684 -1.184394354975631
Ni 9.27113048591554 3.4882917591008216 11.880659259908162 -0.014021253979756497 0.3642654112505533 1.1399186411607594
Ni 8.083142872425356 5.450661653176561 13.216574722719573 0.8309499455999819 -1.0185787698979811 -0.04634953379881695
Ni 8.0728748200861 1.9301427189348679 3.4808148684526983 0.9901110014755916 -0.21954367072872513 1.6497046346853526
Ni 2.702227708824955 1.7276835130282342 10.300710140142588 0.5161828981898723 -0.9287315699268457 2.4567656894828787
Ni 8.102590786774435 9.114319469212774 5.257492988467104 1.2254481875931476 0.7236282429931666 0.3872968391487201
Ni 4.635244366322168 4.604123983054823 6.176862214252803 1.0451205249422515 -1.4145322562804348 -0.29224521215850957
Ni 4.071487369500012 6.411143081639083 0.7688650626076133 -0.8592860735405136 1.7537877757502118 0.3506336793997316
Ni 6.243180439252649 2.5896046601147638 9.114315748903955 0.5906847260531892 0.7546532306197713 3.6056919334588873
Ni 5.969012280868059 1.0383195897190738 2.854198603754761 -2.1361612094553855 -0.39992172700158224 0.34721411219522136
Ni 3.40850043571452 3.4919469625150676 8.585003231278538 0.25973566956657845 -0.2096796334504518 -0.9685250477746999
Ni 2.1101405603493797 1.3229232143397556 8.086236309207997 -1.457450910020832 0.6283624431096211 -1.7636865229211625
Ni 2.554075710897411 0.7845368635058437 1.8440333810974283 -0.5876107151135558 0.6277302088422608 0.10120993328212248
Ni 0.4489780291516043 1.9423825349479666 5.6219437411063655 -2.2343773502165063 0.46984184903148757 -0.9039371365909852
Ni 7.118308682645106 6.340215394013027 2.2079530596528394 -3.138916639167865 0.8234919466600399 -2.3402111554238854
Ni -0.02350398103852695 7.237079541677986 9.179983849937756 -0.41792716244006733 0.49492938812773474 -0.32264156506217984
Ni 6.967459460824098 1.373538015816414 0.9169231227374881 0.35348297592306865 -0.7606457007577803 -0.9503262653784859
P 0.18824390591087414 8.944440867784776 7.426324210661055 0.6118837287283075 -0.008960037406765214 0.6393734495081441
P 4.469997549373291 4.4024739443162275 3.9587536416024687 1.784242235585327 -0.12503351806428145 -1.1714159404380922
P 8.2185342111052 6.654135052124048 11.063003277222196 0.8688253804895165 -0.2335366425737075 -0.6406363753809676
P 8.15959521864699 2.4351560395117886 10.448052970902092 -1.0443481655526015 -0.21991570935616317 -2.662319216580099
P 6.098962667900744 8.755225961272254 4.538270796657297 -0.458865552525642 -1.9148995275942893 -2.8904143764232604
P 7.5395220470837145 2.327834430868062 5.858694893548178 -0.5425048239138528 0.24824823775226926 -0.3915820967876353
P 6.110430519833989 9.198798381710475 12.643510443310555 0.05943310645565249 0.10855866033770982 -0.9942738746040297
P 3.5998173167095335 1.6360895099150161 6.483309632101724 -1.3969842200943425 0.3469351475022218 -1.4555858317876351
Ni 1.8688692326930036 2.9439547743116052 0.6806360788207927 -0.589536728491675 -0.08704084087059204 2.936248661148556
Ni 5.340001067368167 2.5275220067048605 7.1486943049207845 0.43071660089525177 1.0264193489883227 -1.1355084279082057
Ni 1.4674851142573784 4.893377993698718 13.435016375310788 -0.14716763095915944 3.112037298278518 -0.7829109399138839
Ni 9.033653873254108 3.9042315857891063 1.7393801639538213 -0.3377874195646827 0.7712242476045751 -1.011224129305123
Ni 4.833592630984282 8.959563923132267 0.9157819180073914 0.627774431816635 2.066120759797532 -2.2185275276684435
Ni 9.243209568232166 1.6065130548073765 1.2519090295336675 0.19325851177995104 -1.5747644337330364 0.3986803983953134
Ni 0.9480276946923557 5.806248770055578 10.797992658994517 0.7456574548790642 0.19191151083375335 0.5632893647593719
Ni 4.4664725567676955 4.717853823638538 12.913639276395381 -1.6472944825819629 -1.689181609734052 -1.7784407984122015
Ni 5.237246137799236 7.369234211685673 7.309895286029466 0.2441966933907149 -0.4096548951289461 0.07974636409170782
Ni 2.1453625840892006 8.30866799300713 0.24613284120504358 0.2482135278595919 -0.35238588620414796 -0.47725279678357807
Ni 2.7198898749411207 1.601992879592813 4.066062229165331 -0.6358312406828405 1.9208351763524338 1.26705017940465
Ni 4.820664557839748 6.683702206459641 4.992646063827443 -0.017156457174628516 0.07239300905043017 -0.4795673038493676
Ni 7.464148590419466 6.867764485258441 4.482009496471252 -0.4907086651781678 0.16032910804178194 1.561219862279382
Ni 3.994365367691035 4.215816750116474 1.6256326519032176 0.5899781869044679 -1.0366664806376276 0.9385076754770031
Ni 2.5466071909441297 4.508279527116387 4.491525116351952 -1.7427428307899597 0.5723699869044014 -0.21888264010595854
Ni 0.398380899141834 5.215882264408592 7.921809820353615 0.8684155466456076 -0.6646517644589586 -0.17413670334883558
Ni 7.134938463064118 4.088358969992232 7.503167189308639 0.8799243186161555 -0.794737757345483 -0.3254615510094782
Ni 8.020083637950577 1.2454105801048287 12.125890856301908 -1.706581036157422 -0.10981644400421088 1.5615808451632267
Ni 5.205660715929568 0.553512196413017 10.7670787528666 0.6748281907713282 -0.3528900795340761 1.2938315612635523
Ni 6.886765962549292 3.3632800820247897 2.210471708723012 -2.2344480555534423 1.657603834927771 -0.42514373479316453
Ni 5.100887518826561 5.345488522875559 8.473938061886123 -0.8113265149420995 -1.4252887234659903 0.5081227468895572
Ni 6.637077436190901 4.176028047301857 4.70747509211193 0.42785470596642444 0.32529931440000104 -0.19735967843251817
Ni 7.638640374782493 8.709466162803832 2.7239124588512005 0.7946752795386636 0.20325521798134674 0.4050729321852185
Ni 7.555426367283105 7.910873972581426 7.566928632072923 -0.03716735307891663 0.43023451905251064 -0.32786501824464825
P 4.577579579634318 3.8569464607050685 10.344992045932832 1.0415492626512257 -0.6497370521306552 0.34553286783805653
P 2.261417617684523 -0.035507557441646284 11.590247303144487 1.1307644854653172 -0.9640176468226495 -0.8873406656848847
P 0.576349312095815 2.9035894236301103 8.202679184997656 -0.6627836009019682 0.5510180035911865 -0.6977346630558564
P 6.499286498323077 5.890299847039143 6.743705207239963 1.2697061289702585 -0.3737640947696079 -1.7226062079410849
P 8.224849435324725 5.2064419807814675 3.362208633085041 1.8602247617592287 -2.4572063765647227 1.7732286580836427
P 4.291032093655933 1.9135873446922274 1.2375625886520532 1.2519511189796826 1.0089530738827592 0.23676491970301805
P 6.0294765999418845 5.466138137861817 0.4040646009394059 0.7046478452359219 0.3210366824689052 1.4103081908967583
P 2.8781983159433633 6.300742917447989 12.339364036465922 -1.7593614131832473 -0.6933743292046317 0.7922353026386034
