# total energy = -340871.85254851787 ev
CRYSTAL
PRIMVEC
9.27086237167675 0.00000000000000 0.00000000000000
0.00000000000000 9.27086237167675 0.00000000000000
0.00000000000000 0.00000000000000 13.56884419407833
PRIMCOORD
 96 1
Ni 8.863927186307725 7.228398721367997 12.151781991808578 -0.512899085232278 0.3442457735955168 -1.1611603241483552
Ni 0.9163079374922564 2.2646213762709855 9.452952357339788 -0.7472913909380613 0.7773915527575516 -1.1033817225769902
Ni 1.1726528459623635 8.453320689662407 13.453671587011977 1.2880033846175494 -0.267438694637791 -0.9901043166073722
Ni 0.34470827946752264 6.254735666419296 7.957842228807584 -0.36833366778265597 -2.2324335962265747 0.816356106946207
Ni 5.340990195300324 0.46803856225986123 2.970057058384027 -0.19607438396219137 -0.8358026457065929 -0.2916014079269236
Ni 6.3350862310258655 3.4486866538741343 13.05892753596973 0.15753586156736096 -0.41489943135733703 -0.08587458847663276
Ni 2.2714447310131614 4.801398189785592 4.249463885129205 -2.3445257236388395 2.468217640073562 0.0019918336190481827
Ni 1.9856147716979247 3.895542222587261 7.64843183092343 -1.4182644696293576 1.0718430285387603 0.5064795548591794
Ni 8.174249189052395 7.579875657489409 0.7364309564466223 1.1200255017812581 0.25633152898103595 1.2688316967851052
Ni 0.5310285098960534 3.5176433285647617 11.712558197040776 -1.3819769480522328 -1.0780848956834144 -0.5370553707635074
Ni 0.5626736716853769 8.265140724232136 7.051403124362945 -0.017231533386938065 1.6811039749322403 -0.06366797047260647
Ni 7.734013016108173 3.2590418921812776 1.7444110357345037 0.7312659620440826 -1.0899374241466262 -0.08359633396541731
Ni 3.0513004070417806 8.944157229702816 6.465676526180429 -1.8602011076101446 -0.794617943938167 -0.3481628492617359
Ni 7.694964143589092 4.980613231254336 11.719071904978076 -0.4532790595768 0.15694347939900066 -0.9373455368481018
Ni 5.0054591425437795 -0.06453725457432959 7.266550174404683 1.7886102827460357 0.881710721092617 1.4151048409544533
Ni 3.8846767718293402 3.000672227358329 9.303572805315701 -1.1310611907701293 1.8334914595294423 -1.1350019205854323
Ni 0.9588389459368276 0.9745437868787371 11.451276554331255 -0.5509372709519221 -1.8670083603399654 -0.4855710868412863
Ni 6.446920644415626 6.228508396629059 9.60936015016556 -0.9327761723098645 -0.5604799203350347 0.9707991885208571
Ni 3.6271971097988494 7.560555180203139 -0.23635692908949524 -1.7172506000561265 0.8025143159671082 1.9255469800058063
Ni 4.314779892146935 2.493760011879152 11.977775320848197 -0.28551200719973413 0.28881150388661225 0.35990893405407054
Ni 3.4155433207175077 5.404458519437463 1.734328972851194 -0.667088141814593 0.014266537221343172 -0.0987846116700815
Ni 4.591246280416523 5.286811275309463 13.172986956340637 -0.21230318711622792 -0.8435617208267213 -1.1634532339475898
Ni 2.6235057314671235 4.433140992681385 11.222912962821521 1.0578109759257266 0.2625551412932446 -0.32625345078315426
Ni 5.126527334905289 8.203378238780541 5.035995509187499 -0.9500038490420606 0.7982321436519866 0.4582528586423076
P 3.634854842158954 6.556734009797514 4.064140272410978 -0.3873914557450554 -0.23997905576494155 0.18702821459952307
P 0.5472970192731861 3.3366575523735245 5.857670191426724 -0.47052473403112516 0.060865982247437105 0.1632215990982286
P 7.508434391669837 5.952385030269064 7.5989866132849535 -1.2840850233997498 0.13416273405905924 -0.12026797835483802
P 6.853123481410764 0.19743228612686178 4.863331259105741 0.5609208645271953 0.4686074624037543 -0.6922762110444465
P 3.6717528745962618 1.7998452304972272 3.1241313751383255 0.24037397721051504 -0.08146283256218229 0.020018866324088107
P 0.6499384454858522 3.59727076590246 1.174270611454904 -2.7950732432170895 -0.0998251371194539 0.7378888666772389
P 7.767916559983358 2.1421347419589973 11.88436767360728 -0.37381577394314974 1.0166733253451523 -0.9120193993784874
P 5.422425450810202 2.1010277379823585 7.878491990256288 0.11812393542864172 -0.9569561119901777 -0.031881164979312836
Ni 4.243023417005035 4.210260189207687 3.8160612648758216 2.6745499543183358 -1.2621475998967102 -1.8685988447555366
Ni 2.871723801938601 0.5172130707156323 1.527852033345981 0.3577312096764614 0.05617603297093551 -1.0276545069470044
Ni 7.269876559841493 5.338922792980345 0.6614584191307263 -0.5920093584018837 0.3612947586580036 0.4605395977939552
Ni 4.90610330997327 6.524629013232087 7.360120988824218 -0.007461341374051666 0.9934796608375084 0.24745145288258671
Ni 3.4200489598543244 2.3788662138903187 6.772414134428485 0.46649735803928694 -1.8073484825854875 2.8938270016492353
Ni 7.633294366761713 3.373397980149668 6.561662400260748 -0.003845598998335312 0.9710426719902309 -1.9290917599342712
Ni 6.954333486465561 4.837081739245692 3.3743139413569057 0.06204946103257701 -0.15450427382988874 -0.5557588607102816
Ni 3.433881086587104 0.1435908255281408 11.128039592231774 -2.3604547361642703 -1.5327901461837794 0.8095735368067347
Ni 6.914598570127294 7.455340162582284 3.3666469381343793 0.9351701264633379 -0.485036554494055 0.9566097843943525
Ni 5.820126906964885 0.29562555254972384 12.152202888962512 1.721266920304371 -0.21567570313288661 -1.2516078767076508
Ni 7.788859438193378 0.5429415681075963 2.500466553754818 0.09092243531318535 -0.09149553420783597 -0.47510721119548494
Ni 2.1922622950716923 7.23435988590498 8.948327263619978 1.046986888727029 1.5216996926975728 0.9799219767577316
Ni 5.969239458151232 7.340075530096593 13.450103232065967 -0.8572361329900204 -1.080486048925739 -1.7120078635999483
Ni 6.572383225564895 2.2145587191952414 3.9132681115370427 -0.2971974139574624 1.6595378187256904 0.07448048770707819
Ni 7.2350552005865865 0.5538199980729072 10.060795524914873 0.11918682947551733 0.6026272431270461 1.1309732590420134
Ni 7.670275836960814 7.571763652870654 5.7940461168009065 -0.24385190845678648 -0.9294121409336381 0.6338502056970697
Ni 5.719176486057887 4.19153304711639 7.995929712893562 1.154295478707722 0.7628411657472023 0.11773029953464885
Ni 2.691043964207271 0.6002633104593237 8.682377741681265 0.2117753396372159 0.07276530478818437 0.23464761624969913
Ni 6.363186215025233 1.3482893345364337 0.7987951208693677 0.4657005731696044 -0.7630519962064277 -0.47891064410197515
Ni 2.1720703567178083 7.683125252276922 2.4823383093759457 -0.015169251541270648 -1.3678027134343798 -1.0433791167711126
Ni 4.890667324041582 1.1030101274525501 9.844522065088931 2.1496746705607883 -1.5489551859794162 -1.7124305529596635
Ni 0.7536525104806784 1.6005865844733427 7.173657987114397 0.4831087413437229 -0.18110722112939778 -1.1411463429202733
Ni 4.48954491965339 1.4012630424125085 5.116105958457354 1.384594331070422 -0.35375037065184234 -0.5354150069466069
Ni 0.05294589528881047 5.269289345332952 13.306219447285308 1.8963179079373598 -0.38075929514051843 -0.18524464033653903
P 8.732457086309367 6.275928857914695 4.0786992347575985 -0.3597037600217999 0.3391765866027255 -1.631510994495461
P 6.8710718710586605 7.633896972819105 11.513178102719172 -0.24820684299137252 0.004883039123914171 -1.90190851465126
P 4.385739073120592 8.044753782749803 9.115359464780715 0.11851474310915718 0.3570984611884689 0.03703494126611041
P 2.6434288148107856 6.016771169785924 7.2819240455581475 -0.19907177602761844 -0.07521659454215433 -0.7234117561069864
P 2.2664384653055865 5.7222173289321185 -0.5664515481221112 0.7945528950281865 1.2105753842463733 0.2671422464432948
P 1.4788601608799121 7.916287442175991 11.19025264159705 0.32404950115329995 0.660149762823547 -0.3279606632822481
P 4.607219976368654 4.699492870049188 10.552259702341216 2.1163657719960134 1.125137883307159 -0.11472750815258306
P 4.064105043133777 0.6043879171506199 13.103907906266045 -1.4543028513101537 0.16057824793811054 2.9531606064125464
Ni 6.169378836105152 3.094307937814814 10.53734752013634 0.8947647260630978 0.4691646204588049 -0.13102033177533565
Ni 8.70248438810087 1.6748183798817662 4.673788476899519 0.474687350049247 0.4713174051357496 1.6958284256266085
Ni 4.490147525710784 2.6025906658443674 1.0558103126925444 -1.2459411653401768 0.26090809260812486 0.22930589232181156
Ni 1.0657598022432277 1.6960301131020072 0.034647067041383726 -0.21648585773900783 0.036954208626846036 1.5315663010790075
Ni 5.6556618076086425 6.0432858363112265 4.909628091865899 -0.7919437395401135 -0.4989835035924503 0.6792931685212172
Ni 3.8841761452585826 4.517264798293478 6.209034950112836 0.35139498304578837 0.9812764339030972 0.014662744218497328
Ni 8.407337212052093 0.5703045185444593 13.039985309870257 -0.9895975521742828 -1.5150161100298103 0.6389281344406094
Ni 4.582411148528896 7.366682905246109 2.3543577619930156 0.08335079361351451 0.46090546577380626 -0.5567183964100734
Ni 2.337193687305972 2.6087094350425146 4.827198072818201 -0.6637678191921085 -1.503348700994211 -0.7854699588903118
Ni 9.093214155714636 8.736508453187534 4.102824800036896 0.15189511834181582 -1.7666587181756093 -0.36615774317725974
Ni 0.8381082129674591 5.795549850685663 10.405607638041518 0.17601617975973555 1.697277499368309 1.4854677069487319
Ni 7.290578395628557 0.994058952275856 6.893488816393688 -0.41364910389000376 -0.2863419593001972 -0.16890862218067684
Ni 7.900276662774173 2.7283128311414364 8.671387134280655 -0.22724129648329897 -0.506374653850199 1.2627428102785478
Ni 0.6979846899849347 5.88674732432531 1.8842647766205645 -0.5448488986659971 -0.46186602991486264 1.3791111964686638
Ni 2.2938894889354535 3.632898690188031 13.443780503894548 1.8449603794009901 0.24623429264603403 0.12285296547319487
Ni 9.291814570506597 3.8632518087734056 3.7798325887053412 -0.11223405230676799 0.5325328003028055 -1.0490712820598835
Ni 4.361365975814642 7.066084462093528 11.298044031884823 1.2170535357715493 -0.9327473759544581 -2.1820245476464035
Ni 0.7623615586393735 1.5357647144226751 2.719033624943823 -0.0595709175850974 -0.5331712052177529 -0.5845079078185159
Ni 2.320292905111698 3.2224683399287195 2.3653344630999933 0.7076609210306329 1.0845509630237322 0.11036537452914541
Ni 1.6613478167834221 7.2292516407107685 4.853086956130056 0.07422286317031733 0.0976713240012447 0.6130294122969765
Ni 2.910679965833468 -0.13717816999123478 4.065361244991881 1.2021907597271038 0.9355154256178986 -0.5446599225836426
Ni 6.935930824559014 8.079658579766503 8.269803968030118 0.4041434783924136 0.26466344588549906 -0.47904639834889107
Ni 9.706036703496276 5.447809072120089 5.676987572436668 -0.36140994407962923 -0.4493229031425294 1.9994569399213953
Ni 9.002535850370586 8.173600228682895 9.74019148774308 0.6969589612320964 -1.3863529656327414 0.6376847489518114
P 0.4680459789497984 8.745427022836955 1.7986316746062612 -0.5787159837270872 1.2940102529332616 1.1442949158515843
P -0.05351234498276009 4.339662886886064 9.390833870771209 -0.6984203762689714 -1.786629761980897 -0.7220303023784276
P 5.849756583263788 3.935508910486064 5.218862343364046 1.2689160289687953 -0.6646373662812554 0.8127645329402068
P 8.714490154936628 0.5022081798865411 8.468587018811782 0.14259183866301894 0.2932068047408305 -0.23841968169762165
P 6.340509685542406 8.317910473134939 1.5846240135561174 0.15963902395329282 2.642247642641204 -0.09233808471378936
P 1.334503562115761 0.2984234988285126 5.35567709554836 -1.2004501228869133 0.3778506061341557 0.6271799927657457
P 2.5238346895742847 2.2225502026025175 10.773662730344938 -0.05645216945045762 -0.25562576116326297 0.7667091333430409
P 5.461279635218433 4.508633625379123 1.504405095195932 0.3707116810965293 -0.18421337085854728 0.7040888874086585
