# total energy = -340859.13716354046 ev
CRYSTAL
PRIMVEC
9.41577364633607 0.00000000000000 0.00000000000000

0.00000000000000 9.41577364633607 0.00000000000000

0.00000000000000 0.00000000000000 13.78093649239929

PRIMCOORD
 96 1
Ni 1.3277652812803968 7.454910315625362 13.43967849931778 0.37461667257789033 -1.7873872089722123 0.06948457715438355
Ni 9.019491712847207 1.4858655318777032 6.992970591109016 0.6866814905654884 -0.4737252432462939 0.708397027865709
Ni 4.513799346857892 1.7952584289283189 13.567855422156272 1.4107964433870865 1.040380439154105 1.4976246540262401
Ni 6.179835702104034 0.8437879391997012 3.4519176154787394 -0.878117861535036 -0.7023441368034097 -2.289610302547883
Ni 8.649950855531236 6.924020765900633 6.214610036301281 0.32599016981943857 0.6368568537338773 -0.40054084864281986
Ni 0.6733727986163182 4.548618876767298 8.366875045040054 1.1435120149389726 -1.0274614170995917 2.514024413995031
Ni 1.2355660284753929 4.20393566113895 13.270627704295206 -1.2789631287921521 0.36247592345029833 0.11873765775324065
Ni 4.651608605850338 4.6474562497957015 9.676863346204453 -0.2948651662798599 -1.9353968762166929 -1.6085667269944617
Ni 9.137405442716188 8.834556508155307 0.08527960095794548 -1.1031287260259195 3.151278760277644 0.5071722100508298
Ni 2.7955525282943743 2.873929425797321 12.250287423431821 1.659655318140161 -0.24854005796107517 -0.0015429190070876653
Ni 2.8659354342091414 6.973905533196478 3.081679049356308 1.9745493780464383 1.0393224302032358 -0.40720411959560837
Ni 1.8888229688714688 1.804730696935042 7.896145696086058 -1.324884831024931 -0.2540604735586721 0.9196532617746613
Ni 2.593339379474902 7.979594870701551 11.482289868791282 -0.8363988845296951 -0.3964998458042268 -0.7940746698401873
Ni 5.949073928437262 3.6984310364103705 7.478527899960614 0.22215951108501739 0.42238159866699515 0.24705627432669705
Ni 4.721944432898273 7.752448754007524 1.629967352210998 -1.6286303305135565 0.18261234492001455 -0.9639302293151656
Ni 4.7088847552389055 6.762012969356219 5.629760572567675 0.9247198776642913 -0.10209464987992094 0.6334794526212122
Ni 3.150207047917871 1.96315108382681 3.57936387430399 0.5804833600401552 1.5340864963977 0.7146838893156853
Ni 7.080134288317603 3.4996075660028474 4.028967052555516 -0.3935957847835544 0.5799277446470013 0.28077757783854224
Ni 3.990517742013315 0.4691173685536473 11.70322534137275 1.2235242310975574 0.32743050181039096 -1.3088424328500878
Ni 3.4964156188315956 2.0795677057305144 9.880944584459845 0.4119218367862519 0.4305505076310327 -0.2700018273792769
Ni 4.2190573931655875 6.994968618217392 9.98118773245187 2.200225644035462 1.1666966805855519 0.5403893202327468
Ni 4.407532928643301 4.931228827516005 11.893885336271497 0.9269665076066228 0.5176445703370632 1.1817358343068618
Ni 8.611346184728486 5.902757739247329 11.219404301129938 1.248077237846573 0.019182229355405676 -0.592332031848625
Ni 5.672975206010674 4.911229724885508 2.6379466057988097 -0.9546835139059172 -0.3348779592273717 0.5486405044979454
P 5.008682979229032 6.0026402631194165 7.991123543611523 1.2674170758257657 -1.1298414594304156 -0.2672962555226558
P 2.3461941601503775 5.035470854456793 11.749832477959709 -0.12611800937771184 1.22602514314254 -1.2650822570450018
P 7.976911375292092 9.15146319235241 2.208422564251397 0.2494124332636995 0.25602993858021716 -0.14282760882290885
P 2.706507559567155 3.6466442828944876 8.476323053075195 0.8158853379573755 0.6279860336068088 0.3785777141081674
P 5.323150978124204 2.5514297722205033 1.8844323937506586 -0.0764826057387715 -0.9270253858690163 0.38541067786960076
P 8.151517476600915 6.396389073760722 3.9276909942251828 0.01850320101051007 -0.7449357462216913 0.341366909385825
P 1.2328260384257343 2.1665035412236313 5.17906893091498 -0.09722138094801966 0.9125043094347058 -0.223932286714724
P 1.7928385751731222 7.069315564719466 7.6998776665702096 0.04741062807347964 -0.6481074869470322 -0.6205434612858345
Ni 0.5159636657841147 7.866982221237923 3.3409809736743523 -2.025985582339543 -2.426125081778886 -0.2753929164878612
Ni 6.498672619841273 7.151910728690616 2.7839278144960633 1.8323419193060313 0.17101538411103448 0.6377256294920759
Ni 6.465510266044375 1.1697121095499232 7.4605993258934165 -0.6889492035537426 0.21177919629195785 -0.245312552162713
Ni 0.4064506889127461 1.8632308968612563 13.200993352363076 -1.115462050780292 0.5052914480883491 -1.390811001404095
Ni 5.356426321201501 2.589996779929786 11.533210371157445 0.739862445463842 0.35025084213901614 -0.6596874784751479
Ni 1.8432788730975918 0.864305850942694 11.278001483521829 -1.5363017588814638 -0.9329404658018707 0.3839245802423775
Ni 7.367644928064417 2.3963708164205846 0.24999160761322498 -0.11303058006613438 0.5732030243286579 0.18132525067747482
Ni 6.8609256685715545 4.766735266802828 12.404992346153158 -1.5758880058145182 -1.007221693013949 -0.7464861214279467
Ni 5.421988351152609 4.104109631907061 0.42148297109240185 -0.6261322682275217 -0.8623575133769859 -0.9611431534883318
Ni 0.5430792099250309 8.68068393979957 7.309987439854506 -0.5744790628276042 0.9506150002634983 -1.904010391485611
Ni 1.1300434563567572 3.7127147646073873 3.270588651986218 -0.38974838601300615 -0.8363793441456693 0.5897298183390877
Ni 5.049763998427178 4.434989323780085 5.0577551652833455 -0.7141308450256927 -0.9582321504891239 1.0395090922927455
Ni 0.8742168939882972 1.22013357592766 1.5979819700849158 -0.034903496745404404 -0.3881982679170669 2.021653273512776
Ni 4.99893765379468 0.21868416116953235 5.456712781751013 -0.7562234033203685 -0.1912003436993417 0.40186856631530793
Ni 3.586985942844191 6.9053775346349155 13.283499066487243 0.9817155783230447 -0.06008925198241264 -0.285049979961651
Ni 1.5989583857830243 0.2634119093925318 3.848174788144887 2.046802519084894 2.446396944654045 -1.9692349078120601
Ni 8.66348132185893 5.091033333092652 13.759438162844939 -0.14401571559373905 0.1487357467772277 0.7101255805210415
Ni 0.784521295321452 4.712302680970954 6.162393923519885 -0.18017699600564455 0.29766869716692607 -1.5251899652390184
Ni 4.07602237995472 0.5852468093696724 1.9156739297807857 0.06552610672726779 0.35195085554925837 0.07254470413694604
Ni 6.783876395113288 5.442881952252925 6.054902513190309 0.5705403898948302 0.5669878966568815 -0.38017462628164206
Ni 3.166251525734428 5.381980730118247 7.232717837299463 -0.7479051132626604 0.6347968858810552 -0.29193076624188435
Ni 8.89641813917337 0.7203848134580363 10.633424944592349 -0.7397282338788228 0.8600949425950543 -0.2329234344697408
Ni 7.413575070546321 8.002004411313878 9.718674087838505 -0.14134253963695012 -0.18312296600784592 0.4371865248903116
Ni 5.548799986852955 7.966582271909015 8.019305894874867 0.3902628637555795 1.893420788895223 -0.3148269541137675
P 4.5864043752871595 8.993805483103328 13.438369706819833 -1.4048618230702061 -0.6482260148027674 0.8751299825513057
P 8.256484518090927 5.129892229776297 7.639544215569533 -1.5293446108373403 0.4657193422226818 -0.6978930430105916
P 4.1629111365810045 5.715675738227862 1.1726451229535955 -0.9570589561166292 -1.0142642016830274 1.160822738303278
P 0.030171904175689847 3.092413030994146 1.2806496929316469 -0.5647222405511564 2.2126003635507314 0.42305188526114235
P 6.23364684689372 6.536458118361135 11.423472357302616 -0.35524135337507207 0.47858025734575 -1.0931513030982334
P 3.0041024925895163 9.278453727746719 9.63948931698071 1.7193504200079484 -0.15740190709265794 0.2714997520810421
P 1.6134775083142046 8.621148004803038 1.5306620152462782 0.6730836972763956 -0.9790146344521139 0.25181410072665666
P 9.445150579427661 2.3755713730539325 9.001046212822185 -1.616222443767507 -0.5434952128515801 -1.1654103576739605
Ni 8.12794038009114 3.3307262549008714 6.051719040215087 0.18582056744466707 1.1233419677490009 0.6255496562511743
Ni 0.9256712707043415 2.846482446433903 10.781639574732143 -0.861995759162193 2.047681836366054 0.7744903199503566
Ni 2.4811975186796 0.5612130478516195 6.088844493021955 -0.9563642440424498 -0.3951677572563646 -2.090189884931594
Ni 7.315999411149032 3.1301514506471744 9.871436536514327 2.2453839857396556 -0.5651968661947299 1.230133765994275
Ni 6.010671917801062 0.26266618014190307 10.25592399247232 -0.7055945254199073 1.6663383865872914 -0.439076799934489
Ni 6.451283032487558 8.8767485886107 0.4543364875228778 2.1812447320575856 0.1458597107810133 0.9994441059510595
Ni 8.59879495883091 6.965883294288199 1.3974975572555377 -0.23401229665854537 0.7753547248331807 0.6865503643042628
Ni 2.1626054110498902 6.260688948002377 9.612395429118536 -0.9622633831357043 -1.35359505447543 1.0230645735834767
Ni 0.9890893290598913 8.734146700974694 9.38722944956349 1.4691162621739022 0.9695740578645045 2.497748559653144
Ni 2.4547768586131338 0.8108007187874208 0.06617687995194138 0.5947696947558402 -1.1815872245441392 -1.0001766132417096
Ni 2.609845230186419 3.419790055174823 1.0896337817996458 0.8749530906538093 -0.4467116907719274 1.0161128248559919
Ni 7.6598634544944915 1.118254908101869 5.1951651954850515 0.12157101343697774 -0.3121056985278625 0.02411000567432622
Ni 3.8112508328880623 0.5057211875160098 7.744927434242344 2.7702572126146743 -0.24742934139539965 1.6332809419116905
Ni 7.36476370141426 0.6792425917330093 12.381619571925436 -0.5595532947557073 0.10855557501391627 -0.2412604935805264
Ni 2.8505029816614083 3.3213763919479127 6.179068316574662 0.5878529130313489 -0.9747833699795859 -0.949784533942403
Ni 6.980910868581172 5.379118335014824 9.53114389600679 -0.40194132853477227 1.2886052798676066 -0.8352213192818261
Ni 7.789038449309836 7.385412492407047 12.780206206922461 -0.36470327011892023 0.360565850911779 -0.9665087886756194
Ni 1.330768912984318 5.8179592843084125 2.060180628368841 -1.3502063405088554 -1.3703236800840206 -1.4078556155912076
Ni 3.4782525920075704 4.534834184558707 3.540984240484701 -1.8580179839158968 0.41283869217356645 -0.9901585668840754
Ni 2.6776199668786598 7.661341730913037 5.261492727810857 -1.2990948665450208 0.39135172594438405 1.11931741997064
Ni 9.236873672560149 6.959697131186393 8.857269236670035 -0.9235271429077707 -3.0530114545636127 -0.774761314223556
Ni 7.916273794811676 4.827090374082249 2.2489800664503625 1.718197794460744 0.04524730187357369 0.238212450782822
Ni 8.250015881788125 1.981361189517668 2.8646294664432044 0.9209177303093818 -0.7107696418629436 -0.9642001951471008
Ni 6.312927658639852 6.304189820955718 0.408921387844122 -0.06731482319657439 0.0786839842654645 0.3469958255368282
P 0.3179122887926466 8.30973071647862 11.453556694785998 -0.6690154407442931 -0.9826627727276624 1.053300489649883
P 5.580634716605173 2.337042028438116 9.146365492651773 -1.4348943648765544 -0.8462734633309297 0.19340712154267334
P 5.6066504984168795 2.3205550092733325 4.9620325300845884 -0.42227155545169215 -0.6246999066563693 1.514213925843489
P 1.745458403592773 5.691618437276393 4.528691334014387 0.6336401465687926 -0.3329874270728781 -1.1555110962823778
P 8.391393718886484 3.3797636025937288 12.164569989012332 1.0164702081954107 -1.0936871209970453 -0.5502230184937169
P 0.4091323011675322 8.972714150762314 5.264441748029253 -2.285316303158219 -0.4608087922949418 0.70708730791535
P 4.843389077779702 8.031946570619425 3.8322169354433018 -0.5164559493456009 1.004641848101915 0.6041801894364628
P 7.544821535502301 8.764380749254602 7.524335637388754 1.3452986187945928 -1.1187528057164216 0.32756162807161654
