# total energy = -340889.9124940529 ev
CRYSTAL
PRIMVEC
9.04493865042276 0.00000000000000 0.00000000000000

0.00000000000000 9.04493865042276 0.00000000000000

0.00000000000000 0.00000000000000 13.23818199130292

PRIMCOORD
 96 1
Ni 6.2412971266601645 1.9648139393972082 11.242102621325962 0.1589183437371844 0.5647703201802725 1.3394362464765448
Ni 4.501846879392981 0.7762104071235942 5.989946421211037 -0.47939529704787764 -1.246565172077421 0.6376502961694502
Ni 2.5062530136705807 1.7251321093380694 4.960134927894941 1.600688866908282 0.772323908426657 -0.5771728076096834
Ni 3.3185518216301677 4.46868813419517 5.040782314639962 1.1099678604349401 -0.16677023568143537 -0.753724805268231
Ni 4.834402139809765 4.664610550924518 2.4408029328942904 0.6837961985978933 -0.4102148813974742 0.9850438713653294
Ni 7.49988225398833 6.220846520306578 2.7406218467495798 -0.6811376779291237 -0.6818419030849999 -0.6724200955504677
Ni 4.974209756973586 4.488252336558199 11.566080566393296 -0.811425502413809 -0.24496853855973294 0.32530779904043333
Ni 5.535050224713764 7.8630998565274774 12.530481776663292 -1.3564687764787993 0.13055110544840096 0.20789811606999678
Ni 1.6083076813580006 6.504857594832294 0.24556013570672686 1.0480017031447888 -0.04530900834944455 0.1734787580498625
Ni 2.6948490300698076 1.4312077820199904 0.367986998704669 0.9703926971110578 0.2849677046604899 0.6131952484508794
Ni 0.9492572694394719 9.24392733010453 4.921930011408024 -1.4983250225273743 -2.0861784497793554 -0.8808136631996445
Ni 8.738170538920455 2.0380417629437115 1.4894807039543654 -0.13477877037650338 1.2666614286066638 0.1227542351118015
Ni 6.6768923285099735 0.6907710118663531 4.881156332336226 -0.01900945122296726 -0.5490104862428545 0.006790540559272177
Ni 1.0069277984578147 7.481177320799821 2.4046231781776384 -1.3703295936212916 -0.4679248345144329 0.9814412416157356
Ni 7.586270463313016 3.7252032197066547 3.873452478139739 0.6393868192445826 0.6405443298877936 -0.2468557282801168
Ni 7.869169010381195 3.706751544801162 12.9887345499044 -1.2439243920204641 0.12240019420649244 -1.1938120487451052
Ni 8.080594452006629 8.740305144448737 6.844577351176842 -0.08794818317620982 0.32385846818841646 0.21971233509610547
Ni 7.074634461987484 0.40931784599910404 0.1418988069864441 -0.8383053575237884 0.6220475566351867 0.6360533839959756
Ni 1.7366282263992854 6.654922172458287 9.138409979967282 0.3867026572081469 -0.7420324565319673 0.2560170830644107
Ni 0.41824429598157 4.573093861368747 1.3043724159098242 -0.8342306732337826 0.8321514221072507 0.643808345351046
Ni 6.530988422676396 2.0074970050241783 6.937945539680238 -0.7753701514521485 -0.3220882636618711 0.5996889864343286
Ni 3.3522803979647664 4.351058706672656 0.43988069379599565 -0.42350568496910934 1.0128459811792623 -0.8477814153350238
Ni 6.001696701049139 5.636407807552464 4.759020716363754 0.5138339383417215 0.2003799533160807 -0.8743295981371976
Ni 5.791058169088792 3.105615875245314 9.073847207675417 -0.20335651944590136 -0.8160851126730073 0.6466113620174799
P 8.899179492348233 5.669448968547446 12.419439777980811 1.0065637477149763 -0.2994036775801618 -0.34469391687652895
P 3.8893417219174244 6.269870087947641 12.50409859503004 -0.5754709944272283 -1.1087255033874066 1.1432055394421472
P 2.508731326868672 8.542609919738272 1.3457539148608626 0.3737496965919047 -0.24219508957965388 -0.7131304287856364
P 6.519085283374618 7.651972897878456 5.6714750348115786 -0.44555906522472294 0.1522059647140153 0.31923253938063084
P 4.751514321753915 1.0067107199295149 12.638929686932586 0.5536649542957303 0.3023787010480857 0.6761687639596226
P 4.024165577869027 6.115301130859425 8.370688247794082 -0.38941285705045836 0.1601856404853822 -1.0241225825343458
P 4.495569691949642 1.0257864956038696 3.662872738280807 1.0984565173612308 0.06842271154877248 0.8146918318699066
P 0.2726081203328957 5.72105938865075 3.6963516743078606 0.5637290233999517 -2.1860123286495576 -1.1697444662729402
Ni 1.510287680891912 0.9658818667317735 2.651462268213599 -0.3130863172735769 0.9147776788499148 -0.08486465915487966
Ni 1.8430961995917126 6.398244902621 4.928429704342871 1.1579829548616378 0.06100533603877881 -0.5952360928692975
Ni 5.906670575285852 5.607011756845184 9.408958567762934 -0.08408432934542938 0.046508170863868284 -0.6655169406727313
Ni 8.526175266158234 2.3985911085725045 10.052042853925002 0.7089279606685145 -0.2123150141907698 1.0792763448883542
Ni 2.418435704034588 5.202033672424342 7.107275836692848 -0.5733624327246577 0.4425405901133733 0.7802585898927014
Ni 0.4813625915663728 8.968934059441938 8.85995792475378 -0.2327254595263218 -0.27317945377631014 1.2705702767427667
Ni 1.475537026486568 0.9891092692598638 11.411471811574891 -1.6656588440217637 1.2548767772669098 -0.6447573395278766
Ni 3.942317927761282 6.849813466178211 1.6463796372463333 0.6602292099112307 0.9097457728529623 -1.1869618585924913
Ni 5.680936040669984 8.136365543902349 7.74232459933235 -0.03503539433757837 -0.42409292493114703 0.036305262188937475
Ni 5.2517175205889846 2.841413216426964 4.801885585258174 -0.15788835981077323 0.1481791029428093 0.1933886095999121
Ni 1.193723872059888 7.479449737512102 6.975357215044992 -1.1885700836198756 0.5890762439154886 -0.5202755802020073
Ni 5.188167781429185 4.4907577845723265 7.269350283897032 -0.8742259826797976 0.032486916884111795 -0.4087236415639283
Ni 7.860096936885995 7.01265854215786 8.9483495879959 0.36026168940779896 2.3322173385851315 2.5428428808886205
Ni 4.404414799941038 0.385772966123375 10.52982184078669 0.4683704066922837 -1.0035704694146073 -1.011916013165825
Ni 8.55430502545043 7.330099710041763 4.830294833155557 -0.984611411813601 0.4203421996394631 0.38694948311163035
Ni 7.063708176063056 5.990770415124709 7.184269068211487 -0.49499392281708304 -0.6195623283194878 -2.510510230194186
Ni 2.3708321917661537 5.297276876715928 2.521887190177514 -0.45168960360249305 -0.18462988957067558 1.257182285471635
Ni 2.104359253339334 5.470243239077561 11.312159289371552 -0.22813244083900064 -0.9949017379960154 0.0013500862699912233
Ni 1.105571899692766 3.3057441884604732 3.5543985976893415 -1.0187327789773424 0.581328995869902 1.053445242757863
Ni 3.516346540666103 2.829745245530844 3.169789715173975 -0.16557827225586322 0.3535379975307201 -1.5759283721341504
Ni 1.2135503776446133 3.2287265356074 8.23368546611467 -0.05423664985637756 0.7319848424879781 -0.05424230628333239
Ni 3.481885324298492 2.80439228241315 7.0186064938332775 0.46235119708139727 -0.286669517842945 0.5241726012635682
Ni 4.388486662927032 6.684010695250475 6.067760028667877 -0.7499491402758827 0.6645247519627911 0.8066082835308238
Ni 0.533961623467309 7.481168275861143 11.194683625806583 -0.10220135066111431 -0.3787278665327865 0.17124035563764703
P 0.12559982748659249 5.8146564141027275 7.812288104509543 0.5707000554011461 -1.5241322133984654 0.5817100333584045
P 8.626411276600717 1.655730294852852 7.8834563955188015 -0.6434113670229434 -0.5043617371852281 0.28508263297179937
P 1.855234507299149 3.3377361365686724 10.439815655990342 -0.7890944430167764 0.413943495201971 -0.6303051686582887
P 4.059006681661163 6.250839536966682 3.798550436443723 -0.7838090262481211 -0.7082854419885093 0.1259100071319638
P 6.947444534281095 4.008056542081438 10.760179243561481 0.30779241586448924 -0.0715165199827478 -0.8201759949129295
P 6.205470124552001 8.002826069243186 10.401689430469935 0.4206373622823788 -1.073529672212564 -0.6346811862387973
P 2.7857687536727536 8.265346369467212 5.755696981322604 0.0690469753963327 1.0716669079722125 0.7117476895054967
P 6.959202954564007 3.928054059464242 1.796063422953933 -0.3687319316623392 -0.2985631839567374 -0.10638607816642322
Ni 5.209341982877106 3.025115921000763 0.4888355199030972 1.117225827548934 -1.3817488912018268 -0.11342627284265626
Ni 1.4922882529203776 1.0035178565757705 6.95731346687393 0.4236872048522961 0.6985185924097325 1.0670510064667558
Ni 6.826884546626532 0.6674314520986412 9.198034215740325 -0.560004780470829 0.5660743837036768 -1.6802408556009962
Ni 2.612675762169612 1.5773830360139425 9.137509104074837 0.9130426984366792 -0.33364305837900604 0.4832085001463807
Ni 6.676702384797711 1.804881333672249 2.6697574656799414 -1.7751780685005298 1.010810438806472 -0.4237851638827411
Ni 3.926507374950105 6.849216500225386 10.419720515726846 0.6783117784445544 1.0287927343165055 -0.2246552809236776
Ni 8.326797682853444 7.289361306230813 0.5017562148062814 -1.383829170769623 -1.0168993253130292 -0.41816267548964114
Ni 7.897126915838488 3.6732129121788257 8.168686727778468 -0.37906236705406976 1.709913700075081 -1.2701905248058447
Ni 2.7678235953332946 8.367210468871944 12.291969457175368 1.3627870053873434 -1.213672278004142 0.45191431801878945
Ni 8.984482309031419 4.911139399563783 10.014803936889022 0.015483440347579789 0.28121106583153505 0.6313832322138158
Ni 8.593713823275543 2.2597603447860326 5.6484013962410335 0.5772877359209928 -0.05686200329436659 0.11637995615434152
Ni 3.506505647383174 2.356260795554022 11.480627603728035 0.4866149547247684 1.4995169859529467 0.03602886859909924
Ni 1.3639586629404137 3.238531249135613 12.606006110140433 -0.9299551579213017 0.28819752445169716 -0.29240822009893513
Ni 3.188159985631355 8.399636574036744 7.991877170972059 1.1943062147727044 0.14521616365974346 0.14961737805123265
Ni 5.460935997176702 8.037404869813626 3.5868192758909334 0.518787682802571 -0.613256440706118 -0.1679999943234784
Ni 2.977729487260629 8.385381750678382 3.56346705320907 0.9075508220841725 -0.6235349398139907 0.4439382417918483
Ni 3.6804488631221566 4.125414621443578 9.385566547350882 -1.0485457485737169 0.39020218572097315 0.024236503949861484
Ni 6.801549673386197 6.106545630217996 11.52362543322104 1.9140711181557228 0.12098711590904969 0.24485978089601054
Ni 0.584176409532418 0.1117294140220961 0.3814956146219989 0.48425879578776604 -0.5275687714293108 -0.3012741551299973
Ni 4.947536232808735 0.4523563777161651 1.5599082144857999 -0.4460516885904254 -0.6785629752234119 -0.4851741085131838
Ni 5.983371655285154 5.414164619266751 0.5129728432623114 0.18825000282176613 1.32773335621732 -0.2829951543151514
Ni 7.992849501880069 0.1607982063565551 11.030543314608076 0.8462937750459039 -0.6188655593627793 1.2548346111750648
Ni 9.04206238866297 4.665207516877343 5.882491645208715 -0.898186607260453 1.5563003134905777 -0.2253307097241474
Ni 7.839338802617315 8.780817424792707 2.4503607195965613 -0.0217877852990528 -1.8339501443334159 -0.860088257726835
P 8.440221213890148 1.14010547556981 3.758240762726165 1.5731168708272842 2.0517709188337627 0.28916374501970843
P 2.0086909369298276 3.099537676452916 1.6051564247221803 -0.4135074361058169 -0.06369470994548385 -0.00578909587795132
P 4.7905975017865785 1.236524521889687 8.341814994542458 -0.3766313890150739 -0.10168121649158617 -0.7047437473838379
P 8.574240070299306 1.6892870173525465 12.535167959392965 0.7514298385864672 0.011798021076192584 -1.2841701269143884
P 6.226798089957467 7.5391463327945765 1.3990901092641503 0.39060816291014017 0.026886025757566604 0.30951196965875727
P 1.6348907561360606 3.4040807617803326 5.982837099409216 0.8535216602529107 -1.2000721707222042 -0.23075033807782194
P 6.7420339768773045 3.9652378023742805 5.908055355397632 1.5999900410690444 -0.339415442086409 0.5884175272855673
P 2.316870087606268 8.570721589153111 10.055934891038648 -0.33027439901708927 -0.36257671069422076 0.4734948724030426
