# total energy = -381168.17374180286 ev
CRYSTAL
PRIMVEC
9.28177602166581 0.00000000000000 0.00000000000000
0.00000000000000 9.28177602166581 0.00000000000000
0.00000000000000 0.00000000000000 13.58481742400979
PRIMCOORD
 96 1
Ni 5.373600778897622 7.447808581870689 6.664901899878776 1.8420889713904665 1.5331912382769404 -0.02979342921234869
Ni 5.77434146513146 2.94982272172794 3.4422979864042778 -0.0040214624545672675 -0.04117518868672909 -0.5421384417133696
Ni 1.141370734116709 5.047105020265045 4.062498844808357 0.4619125668820819 -1.1948420326715163 0.10646346837157794
Ni 0.49009263273293935 7.773339035781359 1.4551374649067594 1.1957133795328763 0.3333101005196195 -2.7665849059694096
Ni 8.666969882086432 7.140247646629357 8.216084400082396 1.1624870133795786 0.08731080670252706 -0.45824437400187534
Ni 8.018517153369473 2.511769295281941 12.738225154535623 -0.7393795922901525 -0.22703457978913155 -1.3590967010199497
Ni 2.3168984045470378 8.961666275553123 4.490270847788433 -0.12567655096491903 0.9944265981318101 0.9199628225952801
Ni 2.591406934839239 5.3483172206046055 2.0728118238367714 0.722627055422162 0.7993402891145008 0.5484322451418814
Ni 2.3854628851309254 3.42084501713752 6.340998541331089 -1.0592217402303241 -1.5404715739884374 0.397933750037276
Ni 4.148341351736756 4.323794766719461 4.8501327354047605 -1.450325097609328 0.18149237238295837 -1.2314401435105244
Ni 8.778592522333058 6.672529663537073 12.893744098833338 0.002819214616349983 0.09501897398006216 -0.3190481912839666
Ni 5.334273893256098 5.750979234506086 9.201893493730998 0.8467673722482126 -1.0055270789203457 -0.8845929277364185
Ni 4.155497601165507 5.707113560316366 6.900271964585749 -2.9108759867117224 -1.7742635271060605 2.0419099668792837
Ni 3.888618690886837 2.0799346588713017 5.006277271416479 0.5442390329961401 -2.3146654457442972 -0.6509472703886725
Ni 5.374436138753118 3.0738736602691157 6.553437978004693 0.5626221634890182 0.7983193040491542 0.5906474450573506
Ni 1.8706120426363153 6.353190154333246 13.543329204243303 0.07883747912419327 0.8017944070819482 -0.3027746509349237
Ni 6.93611354327462 1.4997493939007216 7.649095036295802 0.9828782311725782 0.7831240843659545 0.052371828733496904
Ni 3.3048692238661403 0.35946555577377487 11.70345654793401 0.21733252201001924 0.4420456527548258 -0.5311590598837304
Ni 8.556396082547261 8.947808583728058 2.8431528372467874 -1.0739922136712794 0.6702274587745232 -1.7129139203539854
Ni 1.1649000367131834 4.265774383867169 0.5183407903353496 -0.22776837263136257 -2.351665162897098 0.19692053401257054
Ni 0.14702797545540527 5.789498605620629 2.1189051243078136 -0.585721725620959 -1.8776848662172048 0.27677077067199435
Ni 1.708505821789205 0.9446806152520587 6.494738169136597 0.09036604858908309 -1.3731125556830674 -0.9638710939424562
Ni -0.09336538651595098 0.3508975481892362 7.926034463767496 0.3524373082673737 0.7082414761244513 1.110775186827584
Ni 5.503035147618661 8.542222810332342 1.0394791080089942 0.5724561188603045 0.7564738287682778 -2.9294460364044257
P 2.613070600425105 7.4858267370719345 3.115691774635252 -1.149951857027045 -1.051701520593879 -1.5585505429773352
Ni 5.618184862810717 7.3317956614946205 10.804263133168948 1.0745079769654335 0.5201457394923623 1.2777955908466123
P 6.124821333392949 5.3150420530273434 7.18575712337917 2.9483757834293933 -0.9454211147673847 0.20804184073671264
Ni 2.9979672947330336 8.506534380950313 0.27582747068626773 0.2309837942448667 -0.17103929537043447 1.0388850855555012
P 2.89223858235574 5.310753872435796 9.805861453787552 0.6776648888891749 0.6057290219808213 0.9345330070999712
P 3.5182294127360247 1.860958995417249 7.20065994320122 0.28966639568773983 0.60892953119599 1.1780840964868873
P 8.627828631968352 2.8626297163664884 8.016685858930703 0.46849947607098025 0.28875185429327044 0.3288556642926917
Ni 3.992695247105483 0.8456292126530308 2.420719711920949 -0.09686425471891705 -0.4098068473257781 0.5086397957352917
Ni 4.500853928979952 7.840214233101911 8.909208461160818 -0.6204509015720282 -0.4501448848231924 -0.4087436961685864
Ni 1.4787725797515965 0.3275334612086266 2.2408426024145838 1.882499513997029 0.8217178854787526 1.4748891601019374
Ni 0.5056655967946216 0.9685254982383872 0.33730160245222807 -0.38462572007446016 -0.2688610289066144 -1.3904860139645085
Ni 8.779297937322145 1.8137054729246844 3.6488416388533134 -1.7375291477995045 0.30913915970037087 -0.8575086699251167
Ni 5.892470630474786 5.612300216717555 4.983386555020651 0.6437319835871559 0.7318200347753396 -0.7359168305525327
Ni 8.138808972560916 6.799792096633823 10.477358976384796 -0.33442750195351434 -0.4855752006063444 0.767429042228201
Ni 3.632283878339763 6.896313287048314 5.0804228840127 -0.6467121492614023 0.2651920646954594 -1.8837606400976397
Ni 8.193265153363093 4.938443266617343 8.829492854683673 -0.5604989464984282 -0.6641766245947529 -0.47355169378290707
Ni 4.314104592395706 2.7089699118360606 12.716829732281132 0.196059728674172 -0.5312228232421303 -1.26662183361798
Ni 3.2952347401994184 0.34217639129785654 8.991369815659331 -4.1262274521905 0.8583121396630186 0.08230872550224534
Ni 1.6512465445830313 7.8811839931259104 9.798090750776202 0.03995288624385377 0.19678323710375786 -0.6840247696689317
Ni 6.796394966554805 8.620273266164197 8.94753105862051 -0.23937227541887807 0.2558383913947014 0.7582702585470683
Ni 0.5517356928252334 3.355863302156093 9.9426061494218 -1.198230746638091 1.5237326639672015 0.19519635223261222
Ni 6.021320247296978 2.1010878267676985 0.7657845894870933 0.43369599523854985 -1.4165284607748572 0.3003207900777924
Ni 5.924269995640671 4.4709480461531905 -0.0365646290526829 -0.46897795836929557 0.4686015488664833 -0.46556224781952726
Ni 1.2282388773121344 2.5614267978031 11.98952553044866 -0.8524533668893965 -0.7043711945357676 2.5975898947225136
Ni 5.11689469530366 1.2599639882686433 9.486903425584401 1.724428091641172 0.2865589604070097 1.705351277515379
Ni 4.940708020003354 0.4291327113669178 7.327025756719737 1.2433574637734006 -1.098533393345753 -1.3273785439810624
Ni 1.2133416265557868 5.8810818911115215 11.010236884561012 -1.522154006626172 -0.2676451542216423 0.20036864046217107
Ni 8.282880702305482 2.393593721057755 1.451945462081147 0.3754754210337598 0.8673351690972353 0.8329152968564688
Ni 6.748751609463009 7.758376812591806 3.7994560926216487 0.31247876559656507 -0.9791426753895459 2.1219527791654875
Ni 7.783901697065299 1.6280977948096162 10.05455829272254 1.499325952988063 -0.8182566664030294 -0.6849123144802075
Ni 1.759416364093608 5.926655412116922 8.008439928979339 -0.17736472336783002 -0.08622528694783214 -0.14516756980999515
Ni 4.690824041895945 7.4556888098408685 2.7128339152565393 -0.8099489178682826 -0.03814951448652785 1.296051965953639
P 7.3677532623856425 4.890020240327083 2.4456746953374697 -0.5117333470589509 -0.48703867252574834 0.7583522767379134
Ni 6.274907654097087 0.4272856379086541 2.800809374349306 0.332939090333446 1.6406417531521356 0.4736949042289907
P 1.009226086753393 3.315626802449696 2.696070099311966 -1.948917793521263 0.29852513162995037 -1.382657004838393
Ni 7.371512381735376 7.02159870182039 1.5982540998832084 -0.3450636415111219 -0.4755808083977939 -0.42517715913426135
P 9.0830811896614 4.322105483456124 11.944967435756498 0.515016645795913 0.31886487162856697 -0.09860334889721083
P 8.803838953521387 8.625062662669043 9.916413905241528 0.6879189625170153 2.0508293808561002 0.21848848999133336
P 6.159182468782356 2.5120199032385897 11.067591764061762 -1.1534351875899553 -0.653577508922668 4.184314843251536
Ni 6.160955288031243 3.305472539317332 9.28615995506536 0.8967197929069396 2.4760795593201417 -3.2053668003712987
Ni 1.347871690395353 8.435287467052666 12.286951694287588 -0.08661069531170891 -0.3993583982989445 -0.7192391127865355
Ni 8.872848959361539 2.275501682819118 5.834366711636943 0.5662260787901926 -0.39881383864938413 2.632703707706511
Ni 0.32358035273689545 7.1732072338167665 4.034215416456492 -0.026631229434283168 0.43152187040536655 -0.3503907101509901
Ni 3.912686336501298 3.864114801792284 8.650037137815525 -0.8206778742500125 -1.1591512641381263 -0.9952447231577312
Ni 0.11835656885954358 4.709396876016475 6.155552366121417 0.35580545340865816 0.31295390546077073 1.525191507900915
Ni 7.003629183151052 4.932140940596433 11.157346539646735 0.13367628134094398 -0.548195703651043 0.7526140887025554
Ni 3.3265050441234902 6.968209925278015 11.51571406129934 0.31302023992233186 -0.1382595298362522 0.06035844648339928
Ni 1.0011045326027364 1.0010581237218754 10.1778267775324 0.3298645651731803 -1.1859408735271446 0.8453496659650795
Ni 1.659312408076655 2.2785832325082818 8.33438063739682 0.06386286009223195 0.2919639334726649 0.11175865533224623
Ni 8.38432123409123 8.896758814781073 12.438802480642057 0.15192160070437705 0.4152233903556591 -1.108694650149471
Ni 6.71255268239151 1.4819005383216208 5.103489954155799 -0.34258098429858425 -0.7679790011944 0.15843677611507553
Ni 1.5283836733918947 1.9994523776823354 4.393452640536432 1.083284951827115 0.11709060906812094 0.5254008172437145
Ni 0.6720544291675757 7.835118537983384 6.2024606065403765 -0.21807454238236634 0.4365272940397579 0.6640100171099016
Ni 4.303142814736362 6.47586739000094 0.4313491995168342 -0.4793173926220906 -0.3359747918359762 -0.009039741604765077
Ni 5.137398138868004 5.178934087238507 2.480981643718822 0.3779603922391426 -0.5389225058792332 -0.11379368348440402
Ni 2.6535484263119784 4.474001750513837 12.270975901140034 0.3605344834532113 0.22047183896994932 -0.024495156927886844
Ni 2.9261913195935714 2.6114184442664574 10.598398906735717 1.0925969732566603 -0.3421271845906172 -1.1066097425959844
Ni 2.8240082457140505 8.101802530962438 7.076970065753143 0.669795256333111 -0.3406454578387682 0.18556114313569333
Ni 4.664686560195088 4.423425352151633 11.078554469898721 0.019207683276702404 0.1347306907473873 -0.14579774719482633
Ni 7.783539707794584 6.566958741354707 6.015425391250027 -0.0018121135080742985 -1.760266698606336 -0.4742656891307961
Ni 2.7936754011833687 1.5215058772483097 0.45773636099672255 0.11108014120798289 0.9552998073336774 0.06366874180355488
Ni 6.362694693133558 0.27794278747590734 11.588188954184567 -1.0946147750176374 0.5971842177346037 -0.09545529018653237
Ni 7.62328984218191 3.9787354557425254 4.874898370587369 -0.6430043613925119 0.29802170963097063 -1.5115515485199773
Ni 7.520809751464879 8.604884081270725 6.711769300482578 -0.6255864230263806 1.6291062417087105 -1.4974549612175951
P 4.422887009133647 3.427212315591635 1.1556878738622955 -1.3109949604167164 0.14191538142128463 1.5296390021493076
Ni 8.186090340381998 4.78723385099637 0.3594924729246742 -0.7417756033261548 -1.417889602788442 0.2958020762718325
P 5.971959761613328 6.566021281961317 12.743795148416549 0.9345916282520486 -0.1859025856355121 0.05331953735874689
Ni 4.700801951281037 9.008242228385118 4.983861781960667 0.5937739065014742 0.35128262583764014 -0.9491083338109848
P 8.66039838455653 9.133824659994703 4.874830613621311 -0.3095464224411185 0.3342866055002759 1.93092881314301
P 7.642298919782533 0.30149900722328105 0.6927444364329804 -1.1592317396670746 0.6336239486188765 1.0830844057805347
P 2.2969147404483357 5.3039874576062775 5.820523870653755 -0.7166191586651852 3.089916812230395 0.12357056036550976
Ni 3.0154634428175915 3.032523347422057 2.97887839385733 2.3729158447457586 0.4539015236521473 -1.4487346131937564
