# total energy = -340872.82838479837 ev
CRYSTAL
PRIMVEC
9.13471162862243 0.00000000000000 0.00000000000000
0.00000000000000 9.13471162862243 0.00000000000000
0.00000000000000 0.00000000000000 13.36957381929119
PRIMCOORD
 96 1
Ni 0.4103668648699958 7.463388125383634 5.09192202525329 -0.4057704724728754 0.38064205283636376 -0.3137280646226339
Ni 4.646361857480283 4.805451992543709 12.673072110570159 -2.5095254976834136 0.11898036989166605 -0.6390530900542477
Ni 1.6500120685944946 2.386041445761212 11.952546165720253 -0.15715816651296804 1.811850227110583 -0.21181570595684812
Ni 5.246019127024017 1.168640177951559 7.008116845840649 0.58117704367307 0.10553272902719245 0.22644014073824226
Ni 1.3563219599343996 7.255527765750639 11.650593710530252 -0.26185348724052965 0.17683867566103093 -0.7257473462186985
Ni 3.001657056253258 0.08802207978130304 0.5164400479987286 -1.0402752810348084 0.5546923671189802 -1.1451253821726795
Ni 7.0552309472196475 8.005770753973781 12.576490806135983 0.43558935560652073 -0.6385686942186616 0.3191559205064245
Ni 8.591598070343077 5.939316323906702 12.708060795936111 0.2448081017224687 1.89172283236751 1.0400809056358153
Ni 3.9249936922323063 1.6180771172749182 4.768525834873728 -0.7300130634735879 -0.05729651972862391 1.2908434251695058
Ni 1.232957681453028 3.866869523111465 0.6583340887088646 -2.5405268311609346 -0.6551083437448977 -1.08277124541549
Ni 2.7409341213095106 1.5006138624069465 7.1257956798994515 -0.2564099476274552 0.9057749611306724 -0.08387427021715232
Ni 0.839437051486797 3.046755126809536 7.450061494811516 -1.0443705341501044 -1.4731955744495984 1.3122594289514367
Ni 2.7023399653240388 4.04923490301536 8.431053689212694 0.9287814493281746 -0.14308626180093423 -0.04063217169906551
Ni 7.2859463549652235 2.1592813680846796 1.5889200317151484 -0.22720735792156999 0.028548501061654057 -0.8328183662672882
Ni 4.7934763857988685 1.637132125413544 1.1635621918421333 1.318556317703742 -0.12986102135991184 -0.03145821850928131
Ni 7.848845545530132 8.251832476998787 6.480432881486295 -0.5286239521667025 0.46260882161815814 -0.16802930489951706
Ni 4.608909540429293 6.124540868502539 1.4404115464253486 0.41024162087035154 1.277364931067097 -0.6644597030528105
Ni 7.4270502431326975 3.301357805064463 3.586749028348747 0.06296143132388513 -1.086084111838807 0.35986291130748344
Ni 5.7348449422312475 4.576143330365414 5.156337270167551 0.07743005725370536 -0.6268280087429655 -1.2689648799288595
Ni 9.033288774334913 2.8349668412419238 5.276435889296307 -0.09583864166788011 -0.8507826640551928 1.0672219848269815
Ni 1.4643307884248653 8.621669540521578 7.833206006012327 0.2251013673221607 0.29388506175477774 -1.6023114901133695
Ni 2.4551181339415997 3.315050737566764 3.6297187111311513 0.7139521533559833 -0.714323677762789 1.1320955455719148
Ni 4.610846099262173 6.520311377905271 5.9623348833547 -1.0643775733996508 -0.9569579117623908 -0.08238585859708393
Ni 6.677711591345664 3.333484585325032 10.357234576385453 -0.880225137686026 0.5982499399949567 -0.6773440152146464
P 4.612417269636019 5.319105953542303 3.3293447340841764 -1.6892353457901232 -1.5304566129545965 1.8086378908208722
P 5.604510878893801 8.06669927951771 7.245038376562919 1.0432785866375065 -0.5327184339510503 0.6526840505741212
P 7.884233417787579 0.1695420719340951 1.0527334779190722 0.8783379479656421 -0.726571899002523 -0.8483290603083778
P 7.3591062591753165 7.1872640668916015 4.055833818585515 0.9173444111358265 2.3160754387179465 0.674316284131916
P 7.349944143565038 0.04528715908382794 10.537282479987924 -0.4347277789371739 -0.6261502659496507 -0.5548160371810381
P 2.7563900531266508 8.221998509318656 4.1224139901195525 -0.7759018555859025 0.49886986083272145 -0.485404479356435
P 0.39179325602614734 4.014340305177608 3.547468855531439 1.4454533713393236 0.6181513069045741 -2.338952086205804
P 6.387355652374256 5.599441114024703 0.08957680767449291 1.830669159589299 1.5250742655967606 1.7053438213162113
Ni 1.9605739893504865 1.5544173129997108 9.625972605137981 0.6199467082421001 1.0077994198942901 -1.5892369163175983
Ni 0.5358293865773704 8.064388197514319 0.47213304345625945 0.04942971538603745 -1.1356752925033733 -0.5366455369195984
Ni 1.40997925514355 0.7332524248780589 4.676101737632212 1.0083354949034182 0.4735565788789135 2.174887936601622
Ni 0.5138183858051593 8.82922845467587 9.89571698113528 -1.1374730078337443 -1.1473581281579401 1.087447567845237
Ni 3.8198348937223066 8.671417179219064 5.94404536403775 -2.692365899453834 0.08353282771733356 0.9813972757516776
Ni 6.3968466175976655 3.4447636405238526 12.583763863413054 1.7142364958201508 -1.2682488276984416 -0.37669900902821574
Ni 2.568297209127397 7.443373972540045 2.0476972135225657 0.5507665497020128 -0.5894032882376042 -0.4511363022021843
Ni 3.411860409787836 6.929966648751298 12.888602887429427 0.6446974328242188 0.6792232345152303 -0.20239955484927077
Ni 4.117580814277679 0.1787197165538829 2.7128869031940566 -1.9899860243164826 0.2859552653847398 0.5420610515082147
Ni 8.335442491137254 1.1228295999001647 12.090586271658728 1.0183172887064784 -0.2050776159020662 -0.3642556410585404
Ni 4.863585296376027 7.523257024396364 3.8168798145598686 -0.42119734855090685 -3.358266705828546 -1.9734425181355044
Ni 8.901584504276089 4.048047390523499 11.671223542927317 -0.6233001980953652 -0.5074357481248616 -2.516924361250646
Ni 4.814157372580195 8.096843827388017 10.850906356030622 0.9261614952068242 -0.8513418789927725 0.5372628587886231
Ni 8.329176079064819 4.375691221739333 9.017911401036466 0.8746391589578163 1.2138519981151161 0.4674579221803433
Ni 3.4773562910696896 6.435568659543799 8.224333341571885 0.7254580971130538 -0.9589145212681291 -0.593995535593977
Ni 7.406972147308777 7.279935714814114 1.711639399566325 -1.9813874840141938 0.31361930695891144 -1.6792221845284951
Ni 2.116695343184261 6.16822305878006 4.315899054303001 1.127046927404414 -0.806292809172934 0.12325380045603934
Ni 6.369415079035685 0.21607337872093402 2.665371787981269 0.6516306696089422 -0.08120469380478917 0.25763302140127886
Ni 3.3830677992159526 0.8745170839675088 11.262969536821684 1.3122249761690756 -0.44127457891675614 0.7779512819157635
Ni 2.265390176588168 5.106952279515657 2.22766473166405 0.8589921964491786 0.29129878908484025 0.5922014198080316
Ni 1.4891315300818015 5.9180872544368235 9.54131666653553 -0.9570697547499066 0.1786926981506342 -0.2933140197426561
Ni 0.8748514144075249 8.813644636898069 2.728676251980066 -0.6214418047303878 -0.17661267569315392 -0.0593837412749558
Ni 5.227831916475597 2.6290339057303322 3.270879840225285 0.1794444887149942 0.3716966707176179 -0.1011806227060838
Ni 6.486969681018414 5.913328069757905 11.407709040156547 0.3664624189018721 -0.2901983569318099 -2.1716488608390345
P 5.0372452962434355 8.474116546052153 0.6829082895211996 0.08267485059241245 -0.7594696781718081 -0.022034096981903988
P 5.362066501613232 5.163212967495425 9.15514947930736 1.309500121038745 -0.847833608729198 -0.2041517616536871
P 8.13081581936671 4.46053442192704 6.844005359878947 -0.12024560975733484 -0.39004534842813476 0.30737898247615447
P 8.42854347049913 2.932552963938443 13.269141265446176 0.6446236421634899 -0.300969736515701 1.8170240580020385
P 2.602387952355274 1.6672584038609015 2.142434219709767 -0.014502564491549217 0.431170914823851 -0.4989567641195729
P 2.933904901236869 7.492938917008013 10.027193796878354 -0.525463809271166 1.2630107192279538 0.7644049106898964
P 2.99995799991875 3.708857284002189 6.150779413745774 -0.7316778527705204 -0.9268016998939844 -0.6562100614495086
P 6.302704281127542 1.7811591212532913 5.157139297835132 0.39213771218078913 1.8886130830939345 -0.8559703789037194
Ni 9.07515315702874 6.698155075628621 7.714056483405913 -0.2623383972967482 -1.0600424363594065 0.24818601705576615
Ni 8.771652368243581 1.8543646990207634 9.602428799780125 -0.4659867369514556 1.5585654553756707 0.6930961358425806
Ni 6.832736779802338 7.279003974243576 9.165524684601632 -0.018828702670728864 0.05132333286432451 0.16826276106656182
Ni 5.514004157591065 1.111822272571764 10.243205973032401 0.13299751010636449 1.4347714661454452 -1.3335723314966
Ni 1.0665232383630174 4.971027772754989 6.25348462875336 1.489970222804776 0.8585533091395471 -0.2801006063761757
Ni 7.341805115640055 0.5216897666839003 8.305125297220052 0.4431617686371401 -2.2819674412906443 0.30276899450796885
Ni 8.365422614200998 5.162646615383922 4.759621318127067 -1.1016994497785606 2.1434531151311087 1.1659785714726048
Ni 5.6061277228250255 3.932630311026118 1.3359040528435768 0.2482940033885401 0.23132575096531774 1.8079624620204022
Ni 4.919699828972181 3.55767780907685 7.121156159940866 -0.4686262314568316 0.7298495413125301 0.6822836186081088
Ni 0.10952153671086662 6.553689613638032 2.564564766018364 2.0313864416401404 -1.5176306648345217 1.3844611479266673
Ni 6.711409541980081 5.476296068618752 3.079280180490452 -0.9495263951850098 -0.05256491858090948 -0.12640494449051132
Ni 3.883512967420466 8.787227051309907 8.523063070553206 0.14676293932157305 1.295470382418556 0.579819244093595
Ni 6.0280691806060736 0.9050078374027527 12.605770296829528 -0.41512697398711085 -0.04291762529913254 0.10080009943821351
Ni 0.7193356919445995 1.2853817906129386 0.6127317820791198 0.3233141656491722 0.1838091934415931 -0.6552248147181038
Ni 6.946674036040631 2.610636596817968 8.105117135571698 -0.15307371203094927 2.251953154316741 -0.9366366837065354
Ni 6.315684706134727 5.6795342642449675 7.2110800866514415 1.0695102666405258 -0.05008766068501051 1.1931361057240033
Ni 2.155088535517264 4.942107276222444 11.718484713161075 -0.33389322671659916 -0.4578471385634567 1.265058860006234
Ni 8.25069977277578 0.6760810061641485 4.1950248981699465 -1.5226546004116743 -0.493376441818318 0.8571942240084915
Ni 5.9244632830469675 8.843359853329014 5.09875387596608 2.3020747535634802 0.6768346796783956 0.397933750037276
Ni 0.5035299602699079 1.9520238994090897 2.719170671218295 -0.5385823489309951 2.1058363332195995 1.29351094469934
Ni 4.074044779383772 5.765026028947459 10.680123790278106 0.026903252148747215 0.9835945405133126 -0.7487720892486459
Ni 3.799647181360675 3.4579632986064577 10.614305453681155 0.43552687779970156 -1.5493395659020284 0.14745379474101059
Ni 8.075505141380429 4.654345595310176 1.4147146895726312 0.05422559411278403 -0.8120106854933178 -0.27035381140205694
Ni 3.3763355168582505 3.297018817113434 0.6434079701573235 -1.1491301324566983 0.8010025073082722 0.8917868743816965
P 2.1919653657452756 6.88244787965392 6.50631608645312 -0.4263529246099173 0.33913879138625463 0.12241510660482788
P 8.58075516782124 6.559417077733391 10.43495178815085 0.1015554895469993 -0.423930945431986 0.122405336412815
P 1.412683129740402 0.3365684443277408 11.92053905018002 -0.7588919512914672 -1.7346060606154385 0.811533488746583
P 4.438464959001383 2.347154979008513 12.496446983357687 0.0547711822036089 0.5298429121754681 -1.5353738477505559
P 1.1516039410490961 3.793106727943966 10.033945262130157 0.6130322405104538 -1.5829685668103834 -0.8382462221510789
P 4.196349431333945 2.170197348298322 8.790320978086777 -0.20255999168653502 -0.5777793308454306 -0.3286021535209889
P 0.05443648609804059 1.0658472697138044 6.75396085497689 0.4318432583005272 -1.0083617201556634 -0.0068316782098527505
P 1.6587905263227876 5.952305883625363 0.3327437406328019 -0.8503139519488905 1.213638082332097 -0.25040385064269133
