# total energy = -340891.7009883804 ev
CRYSTAL
PRIMVEC
9.06329886604863 0.00000000000000 0.00000000000000

0.00000000000000 9.06329886604863 0.00000000000000

0.00000000000000 0.00000000000000 13.26505402275329

PRIMCOORD
 96 1
Ni 6.430782243978309 2.1374159324998736 11.628066712748161 -1.4708180753563573 0.5352309159602588 0.10657942512415193
Ni 4.586899376566606 0.34876752825446666 6.149771939134444 -0.5551451383856827 -1.0255233195366145 -0.3086848457717716
Ni 2.8901138521129117 1.6106932471426587 4.93773061800601 0.005145291646365332 1.0124250915917594 0.046181640762384984
Ni 3.3088745196441374 4.422681461775716 5.012333351160062 0.49124653995950884 -0.09914688010550667 -0.8869987089644338
Ni 5.301948352085525 4.481955437311475 2.7806074481353487 -0.5467206617674133 -0.09866222715960427 -0.638401572513178
Ni 7.227119948332124 6.105908290908081 2.456595414801123 -0.08848965750197663 -0.05789224433109384 -0.3240294465486419
Ni 5.032741181544446 4.402579064568023 11.426424623678637 -0.3283273025930475 0.17874720553765344 -0.27834814246144324
Ni 5.742805342606992 7.709831253689087 12.334298004658708 -0.20453357047313805 0.38159310389572343 0.8186338472367901
Ni 2.0293632816837692 6.572541303818494 0.4770965916192865 -0.15876510598877172 -0.24773273156843142 -0.581938604429443
Ni 2.7349320464365703 1.8109649654016298 0.24798364324565278 0.437459318935724 -2.1824966021868155 0.8126981984786456
Ni 0.5720799652606866 -0.21264946571909146 4.452189750697632 -0.6553245735207617 0.940101245216368 0.13310935309388044
Ni 8.786333657088985 2.2701751364215554 1.583476160210872 -0.22218522211663028 1.1495258252332203 -0.8958705575327668
Ni 6.899101030504877 0.6096890308391555 4.766292879222492 -0.021434772835008244 0.06934573758367411 0.20140530925680153
Ni 0.9242752332013343 7.318849597628366 2.4692106206953466 0.06079167736607594 0.3242276786023771 -0.2590134466885733
Ni 7.43726159921471 4.048765997753807 3.8694957559644787 0.24605302987316335 0.26882143391793056 0.0728871750780293
Ni 7.9537336933898235 3.9383478258956797 12.662529003682828 1.0197583920283793 -0.5424004371255046 -0.5928171990151597
Ni 7.966159476334705 8.713138454271434 6.802916769744442 -0.44606351566496727 0.9396906400415107 0.3991897339315641
Ni 7.014540270015422 0.9192360389508937 0.5455535017135826 -1.4114109370426338 -0.9753448989100104 -0.623121506425656
Ni 1.8128773214930742 6.314364168174513 9.467998877028636 -0.5495175077862601 0.35710386050510756 -1.2154962185867582
Ni 0.4497843400478782 4.994113401157074 1.3546006702713418 -1.7838239171009858 -0.39151139145069996 0.2033683465204433
Ni 6.357342332087445 1.7666001167399263 6.873791768015029 0.7947488130890764 1.2027456037893092 0.846086029910472
Ni 3.6025797874135277 4.076662832111463 0.35333996260581074 0.057952408145067934 1.6207180176450153 0.05952618039009103
Ni 5.826731491454261 5.679878857569564 4.770696736212221 -0.25483643249274823 0.6565255358073984 0.372838497631545
Ni 5.228327174214428 3.0135922378467312 9.228153169965482 0.9190655075919915 -0.43096342679873517 -0.23301008064627615
P 0.5160452127916675 5.637290415514132 12.251908991323806 -0.39990244372787254 0.4392891730556112 0.27829517773632073
P 4.0682974071237705 6.080041635529021 12.753181933056492 0.8093580783618192 0.3825492971614057 -0.17697520123889518
P 2.2854739851531094 8.930340415084045 1.5221919449543435 0.4387479558401605 -0.9396736707606462 -0.7152832134625811
P 6.046380542999998 7.664696024611398 6.031540297198431 0.4797115427367158 0.5006472644481184 -1.6192681725723663
P 4.77974825293509 0.8994200419919663 12.655259331545636 0.3663837431451367 0.1225259211510793 -0.019158575206321842
P 3.953982016690662 6.131947148968362 8.268453126247472 -0.6533360823358232 -0.15049232445701824 0.13759181434526624
P 4.883078924966159 1.0038963150180997 3.9507174163866896 -0.52499201184107 -0.46145362496779235 -0.4826868233149559
P -0.05212121995581716 5.772578279860046 3.6518959163252602 -0.06632931935485352 -0.7174557956338676 -0.4871330320117675
Ni 1.691882279688428 1.514504454732718 2.8253375477472193 -0.5235735342269886 -0.9192516554608684 -0.2747200587905527
Ni 1.6306506315661666 6.5023641795718 4.718963425454101 1.0857892063062073 0.533875687483945 1.198754223241729
Ni 5.865894006483314 5.642918724200326 9.184511572564904 0.8783194360228809 -0.02333353251961788 0.565311023175091
Ni 8.402783906217763 2.369001348843867 10.246511791216369 0.7077082293288006 -0.10365736638135051 -0.7153261508853744
Ni 2.356194907340499 5.240453868291927 7.050150878161837 -1.495813054738798 -0.227135367033054 0.5737563257289666
Ni 0.42561977222319297 0.1381219579468364 9.30957422296595 0.29031019991932583 0.5315336696143298 -0.7603579943140324
Ni 1.2954173277256984 1.1119580291332154 11.439371546316686 0.5811395055669153 0.25579185442748203 0.1906915223837232
Ni 4.397231718151189 6.486313077022284 1.6591003271635287 0.5601595608811385 0.8562699124220092 -0.21433127328985024
Ni 5.584097913615145 7.863816703895898 8.072196449450633 -0.366052327947647 0.2744930303814111 1.3376436733524963
Ni 5.203067759869143 2.868624770156446 5.036369220138782 0.3280254550819125 0.5792379176688282 -0.2671363329060238
Ni 0.8385708650879939 7.544734198894073 7.277911582322942 0.8547077101412119 0.07742157261327312 -0.8259226675887195
Ni 5.119504142982338 4.713577106851516 6.961341423807128 0.08813973036172562 -0.43349853451576303 0.3163307923528036
Ni 8.25508838552499 7.198570556445635 9.007131028619492 -0.6593082407588581 -0.006795425655278619 1.1348062596348585
Ni 4.607663394602145 -0.0002737116301498362 10.438059177846789 -0.12503968871186852 0.7516576383265571 -0.20968528987740662
Ni 7.779745542264446 7.3037773313721015 4.759939506615372 1.1186329923091056 -0.23117482720975027 -0.6564512309260373
Ni 7.363441028765359 6.199885638359196 6.926997864862533 -1.4978056596887948 -0.17473705593699582 0.5578195998940522
Ni 2.364469699338075 5.297153866908396 2.671051196013223 0.5262238273656421 -0.7478061257909508 -0.032756882716046806
Ni 2.6405831037259815 5.150274043126666 11.511971290389177 -1.5564124135884099 -0.5107167328689786 -0.09843828407425627
Ni 0.6475654637384662 3.5488162976768116 3.6126980544300604 1.2583248837165102 0.36785904213908255 0.7674740365335234
Ni 3.8230989156643775 2.65385177347894 2.846773156239517 0.2383975702104346 0.5678178487573446 -0.2771350959899485
Ni 1.25394367144869 3.1383394854421733 8.185268355259351 -1.3489051051989287 1.1622538143228498 0.5088339140239689
Ni 3.6517028680563133 2.8702924171745767 7.0876511841521666 -0.39867911284373275 -0.5536832091281756 0.1284451148489917
Ni 3.977401581336595 6.776093936319659 6.084587786313231 -0.28376314282942744 1.1122021490820975 -0.5768714743191807
Ni 0.46072192929505773 7.7757305008023145 11.270772432783595 -0.142801897791296 -2.041053018195627 1.023139649795786
P 0.12864446617042302 5.615375358504122 7.8723452682658 1.6244710569295444 -1.3132950693048027 1.444724720703415
P 8.442272700011234 1.5705518958203533 7.977099784571589 0.25396020053538193 0.16179000885802455 0.27785577620605695
P 1.8442907158672244 2.9959278680731543 10.4978443234468 -1.0393375997118874 -0.03561414965918383 0.04755152452671811
P 3.813074906957566 6.294325214059901 3.8445707773527213 0.7621749929181132 0.17108120435196345 0.05159561268910468
P 6.8807478500064185 3.9675860285070494 10.391365967669008 0.6921507412101757 0.5168277308627227 -0.25660560857802905
P 6.544553836470723 7.706477833054801 10.295923991097624 -0.7124624561843342 0.4179531305819963 -1.0103391555970083
P 2.2646465240244895 8.46060775391167 5.761344320735188 0.32614777844322534 0.5300390873466743 1.3066392545511818
P 7.109088605304266 4.011887434075672 1.5018566209620525 -0.18873182755419107 -0.6093123684567056 0.481511572059932
Ni 5.302274630849941 2.7019688279314393 0.7346039494663118 0.9313229848031056 -0.16443901644509745 -0.27564411326671884
Ni 1.5465432167386675 1.3016438141466564 6.829910899520544 -0.5447303708102618 -1.9287942832985105 0.4138601914595453
Ni 6.673950556459108 0.8638991605057664 9.17704341417936 1.238949564513692 -0.6879390171216733 0.7568299265561159
Ni 2.821631564781383 1.432590358266022 9.020887303859274 -0.12400353413787031 -0.06730813832835504 1.297367856551585
Ni 6.455180644917493 2.177901689184619 2.8479676990492435 0.0921442235354284 -0.7976425896971037 -0.9702746834759548
Ni 3.9509911280168395 6.770266235055211 10.361227779465787 0.9148923500509082 0.2260303068943333 0.5670053801583783
Ni 8.162062684470092 7.065312871078316 0.2297827261705898 0.021389778529685745 -0.08943350947248468 -0.07221765981483046
Ni 7.507003685108849 3.934042758865177 8.095649548302909 0.7847086552442549 -0.5970335510893525 0.5527378144957706
Ni 3.222764115735078 8.185736021488351 12.585419362022172 0.22971598327603662 1.4879812173992053 -0.3957359710550088
Ni 0.2408453889441292 4.560117327987375 10.112520884959013 -0.15714556810747776 0.8439080484225466 0.48207284388004074
Ni 8.562986779546522 2.338240511998551 5.913813481017361 0.32699855647929493 0.4723584448057543 -0.875366266931828
Ni 3.7626013947620547 2.327636452154998 11.321179782896323 0.0810645686824991 0.12938305328222877 -0.16996843090375888
Ni 1.3319877392374397 3.576830954921618 12.825383798302374 -0.9869544581244808 -0.5854139645725531 -0.9497583086901579
Ni 3.0309937719489723 8.314616133433075 7.996678323096412 0.2939511391060228 -0.4043882474133681 0.27477122374346225
Ni 5.825326680107465 7.944987609843645 3.4600430965181492 -1.6126588947859646 -0.0706909387576589 -0.05404124601611983
Ni 3.015658670021373 8.648100220564306 3.708192598135714 1.0050534817180368 -1.3884764397336475 -0.907664207733585
Ni 3.254503788873645 4.079871239961564 9.39623476912501 0.0018465662904355296 1.4956055667136823 -0.8628889604004236
Ni 7.376546559136108 5.998408501331683 11.339339915125834 0.9846702900759944 -0.30309398194755544 -0.9255068923419609
Ni 0.484388922004007 -0.05214750352295074 0.281629328166356 0.5889006375695729 0.5415085214388544 -0.0362677240827827
Ni 4.653124902444251 0.5053487072981961 1.70408148015802 -0.2746413830338173 -0.9272562709328998 -0.3526926188112894
Ni 6.265911771658585 5.2747584550507725 -0.0031567470457347004 -2.2093733719730015 1.7329798378659251 1.858370482159309
Ni 7.775966146576615 9.317705814839144 11.324138043693702 0.03617387881739576 -1.401618119321928 0.13077581986469733
Ni -0.15407608319692767 4.925196075472989 5.762101106202655 1.5243199039292392 -0.715543151992187 -0.35434532392336393
Ni 8.116619303226011 8.719383067290414 2.2444335545688547 -0.46486907840724456 0.44810317180281534 1.325276410036395
P 8.462012565258464 1.6457138345234192 3.645608705800924 0.7484489015812722 -0.70086909491978 0.40677474536767366
P 2.07039283630921 3.3468497425026746 1.7039355610439335 -1.16309327950501 0.2255464252793793 0.17816922154699635
P 4.814886663203001 1.075215414940254 8.253224971248208 -1.5133950294866194 -0.28979520795612024 -0.3079155717059148
P 8.52309013729753 1.8564445998417585 12.570455855354048 1.0550961480977248 -0.46407100798598144 0.18754449211430926
P 6.30084172604923 7.8048146273304875 1.3181933981418088 0.3587107999809112 0.2996834136041097 -0.3073908095506964
P 1.6182973550133777 3.330952716036356 5.847156542106766 0.42713016909557405 -0.38697133748850127 0.17358263061757848
P 6.952728570756419 4.007691126633309 5.9926342735314035 -1.4458297808421356 -0.5071372430478363 -0.06012524742667064
P 2.2635679914421107 8.327440701534465 10.34292172812219 1.2306428444202098 0.8767227809597223 -0.6142967090451743
