# total energy = -340896.33116371534 ev
CRYSTAL
PRIMVEC
9.03383766289265 0.00000000000000 0.00000000000000
0.00000000000000 9.03383766289265 0.00000000000000
0.00000000000000 0.00000000000000 13.22193457395445
PRIMCOORD
 96 1
Ni 6.346532895069879 1.9658714677428928 11.433509432047126 0.2697004940887742 -0.41607982481868344 -0.015504266283186201
Ni 4.4642876619872816 0.25685549093683513 5.764485448673384 1.0073024256532135 -0.22464679628324535 0.5628715604956628
Ni 2.636633909519586 1.4518912775087518 4.837165632600645 0.6239198339572352 0.5401365807919923 -0.4949869808385476
Ni 3.2596163842315398 4.402342637566234 4.676664150118302 -0.09867096891035265 0.0006247780681924725 0.6787378102383795
Ni 5.149513277761073 4.557101309486456 2.6350918334413196 0.314024255706814 0.20946623188806507 -0.43839185805232245
Ni 7.22718751963768 6.117055352362653 2.598691791600904 0.20113482920423426 -0.22460308752950348 -0.39991401369209834
Ni 5.196398894903443 4.513549178418369 11.377103956842205 0.13775765049916922 0.4160733970607802 0.030543162894179656
Ni 5.807068248967024 7.865617856645097 12.432995156401196 -0.9510955394443426 0.5155876878080347 -0.24479910286140422
Ni 1.6432640932205023 6.743615226764083 0.31288515849760834 0.8836465046627491 -0.7847415653647195 -0.27577215420415085
Ni 2.6439964871633306 1.5486617458765892 0.33705519099556847 0.203757611539062 -0.18977595254798926 0.9905663438454555
Ni 0.422374366822044 0.09459241012255325 5.049324405245513 0.5819013234336043 -0.15044810148264412 -1.028883494258099
Ni 8.659068846863127 2.3083081157965943 1.4348308752017447 0.4051441517427861 0.4703684109589189 -0.06280253714851765
Ni 6.974926638504046 0.5307650604943578 4.872057926945672 -0.890554544636492 1.1126163538013807 -0.6821815458126057
Ni 0.8102358604782471 7.530471515534343 2.4297418641953348 0.23649598231234753 -1.4126916035272703 0.8591431202047463
Ni 7.568982765221804 3.8472855877663203 3.817873219309262 0.5080301871757509 0.212835148360298 -0.37069599736724546
Ni 7.535367855513371 3.7844733149357026 12.45649036123046 0.9109055974890184 0.37029670504629775 -0.022803885268392984
Ni 7.956416958359543 8.842392513273557 6.884621687706303 0.15169945739124194 -0.8205089527723158 0.7910945041659408
Ni 6.956127222459099 0.6593698691797292 0.4985070331933986 -0.1701769473701392 0.4177055333475645 -0.32895747997787866
Ni 1.9502248610202364 6.4172768773130215 9.449756386159413 0.1679161763604205 -0.20238309978903854 -1.4968569226222803
Ni -0.1306202578538614 4.853871908473744 1.226080569483238 0.38404387942906115 0.06400324232483817 0.7434805018324036
Ni 6.302953662488994 1.6618195956502575 6.933873266916032 -0.44039397608401576 0.93207117582304 -0.09480942907241735
Ni 3.447565375493009 4.25712369815128 0.5833239276493315 -0.20534475352052378 0.673184227410002 -0.37197846362409487
Ni 5.953868109961923 5.55996568910281 4.707670087527945 0.13179217694435366 0.38500495779074984 0.7125048793864955
Ni 5.365015473701584 2.7558624981602433 9.298431475910832 -0.690513719827385 0.28319955701647354 -0.45983717241029193
P 0.17912744884537593 5.473972588991398 12.377898684264471 0.5575663462326655 0.7836853561860632 0.3743289661341424
P 4.115409887725003 6.10967470704371 12.7166585604151 -0.5411431676796358 0.18906684229610662 -0.8127311085991099
P 2.479643879712241 8.568739504703865 1.269454733950611 0.23688910398570812 -0.3674954881520768 1.0272266753809665
P 6.294254076880496 7.706712653266618 5.797183423865448 -0.3401435785016852 -0.09047814868691514 -0.25313899018566727
P 4.649011573225663 1.0533273964482004 12.52642129808963 0.5204002787053297 0.07244957331997845 0.26292203771436007
P 4.069075334676214 6.15226021748863 8.130167467065585 0.5728690380280069 0.3650172018149133 1.9927838987765936
P 4.782856911102612 1.115769281937231 3.690876433716635 -0.8067509797562752 -0.3890870982799235 1.012375983521379
P 0.12728857854709716 5.4275747990794105 3.574259527526047 1.0521841166572523 0.9332461699677477 -0.6938764656520309
Ni 1.422982997189756 0.9098700553651852 2.6448230833037014 -0.22767092782154985 1.2863612210284363 0.08793069967471308
Ni 1.8156839176481112 6.611133998364686 4.8681580192538885 -0.4070521673987764 -0.4850429822519582 -0.8496647484006657
Ni 6.10881649247174 5.76663279187083 9.142306887745537 -0.277741876336012 -0.5987549046558334 0.2860732790198428
Ni 8.565785439808769 2.228277348500975 10.175495150032758 0.5228307425236931 0.5739458160319534 -0.22216825283576577
Ni 2.4860127352200196 5.241315135449082 7.137848286079345 -1.367247355151542 -0.4201221132088571 -0.4996000541305267
Ni 0.7730390341615395 8.889007115287937 8.822877617290715 0.1974427250646277 0.5632065752375784 0.7007022303246125
Ni 1.4032079266840434 0.9331954240475747 11.409259901778286 0.04055066772885274 0.6441991530315615 -0.46837426334702564
Ni 4.1609855984154205 6.8010342985476875 1.670816394515785 0.07914524017259919 0.9260599366319536 -0.6884347258111693
Ni 5.588575852781017 7.855219909567858 7.946634215622843 -0.3738471414017175 0.9192341719593717 -0.17776864367446804
Ni 5.072897301078135 3.0014473733077103 4.806834522859699 0.9330975602050252 -0.7982198023568123 0.4647721478180641
Ni 0.6423320514667211 7.069763865625551 6.958201391571986 0.683583568366455 0.9271673107635193 -0.36997583137176926
Ni 5.090323573807929 4.72189657497993 6.9501495321193865 0.2403829760715796 -0.8633072788847649 -0.21490900017019118
Ni 8.219879798116787 7.276205122453577 8.932765217853298 -0.9899503075280112 -0.45157930327687384 1.1486223395823445
Ni 4.5345709185128396 0.4886375656157415 10.39585213029934 0.21103511903708172 -1.040560159265079 0.339151389791745
Ni 8.192516304027338 7.024233324123132 4.744889498438652 0.08015156994992648 0.4960200500887523 0.07799132907381406
Ni 7.243358088941119 6.2164456336344 6.944120348905356 0.3407141062931745 -1.6378130254540888 0.17934524413296854
Ni 2.4006520037405856 5.215424156888382 2.5158298196015436 -1.744968377686369 0.298056419523648 0.3298776777993029
Ni 2.474341017041225 5.287956838976262 11.474655852162416 -0.7953136844536108 -0.4259227790510342 0.948518779856102
Ni 1.1655818624619 3.09268009922694 3.9212420026599104 -0.6237817657174741 0.7885406273958356 -0.866210825684805
Ni 3.6220178133805474 2.817428101402104 2.6815402128438657 -0.4981466095134518 -1.0768476808422034 0.04638527213275883
Ni 1.1810839277829615 3.3508220086379703 8.26760917569097 -0.9951611623049893 0.5824391982149453 -0.01487588867056793
Ni 3.6977394401411163 2.7364397473209183 7.155300756938178 -0.07387036492690503 -0.13264552608358446 -0.3501161163333648
Ni 4.032135972731097 6.819860816105434 5.906753936728281 0.6043735363941914 0.5443632172788303 0.22660931932625492
Ni 0.6196146600547906 7.352477813307726 11.219631520107036 0.5731526307066968 0.07664869900299058 0.2581089325964329
P 0.20430475423570113 5.434295974253577 8.198432564271373 -0.008423705287320974 0.03151941076451991 -1.1593268704840423
P 8.54702215911422 1.5781030226139665 7.920031370659286 0.12191374148837714 0.5226191407335193 0.5753121002518607
P 1.8152231919305273 3.2337163718332396 10.445209405408985 -0.1701242397553328 -0.3109384176926387 0.39827930630215275
P 3.978890533918547 6.193915242660783 3.7814207812107687 0.021440429261963073 0.5659226886171609 -0.44651448715945685
P 6.957428095073453 3.907080558838642 10.19872566342035 -0.010616599173581716 0.6036317731321604 0.9849963059568456
P 6.381999741486248 7.857207353839789 10.14171311432873 -0.27291000216500744 -0.6481254846691612 0.3336381732829996
P 2.3685728464241005 8.457785911304521 5.96114847968351 -0.6940939809794756 0.4314987304769149 -0.765645725075533
P 6.899620568273062 3.857511891929165 1.4109255341454552 0.189709360976112 0.8539510344808454 0.6798809227038872
Ni 5.294280525296042 2.808701414280807 0.4004356922112063 0.0617643256919904 0.26063812677618986 0.163582324871757
Ni 1.527116043201338 1.2702750064046622 6.9846190428647486 -0.03610445903204105 0.22163706292264412 -0.12235160035674413
Ni 6.826419382202806 0.721106211952224 9.125355794873487 0.1794987389916973 -0.3520156473489228 0.4771877478735975
Ni 2.6879009378978047 1.5872814016152474 9.15399486683201 -0.3401314943168271 -0.1995291752800112 0.7561820085594719
Ni 6.450693042594261 2.0852988008107434 2.6495568142059374 0.006033607788589608 -0.6425395059409514 -0.12571691728455123
Ni 4.2406188768566535 6.900514918195431 10.508158992571117 0.22531913975992163 -0.06122670802096552 -0.2938678353635971
Ni 8.171377124044072 7.321401411964807 0.2867412324841167 -0.5773178178279799 -1.0289403156379635 0.1896085737321896
Ni 7.4397085491702954 3.669255750189306 8.041250113723153 1.1696246528656244 0.19148136527487022 0.06689341938843964
Ni 3.2003634434151986 8.407133183883081 12.372120641735712 0.34696394385762824 -0.7700803638081188 -0.05270530081351568
Ni 0.05347670505510187 4.8738366895690515 10.244671761452352 0.26306807637392116 -1.3125810739569135 0.2936503200361523
Ni 8.539207889590491 2.4814958164201766 5.72288914344563 0.25935488918839206 -0.8985254786571105 0.7830801185018965
Ni 3.5542369298701026 2.8891929072940106 11.811669487505025 -0.2956722355621876 -0.39422287684459206 -1.461340217772909
Ni 1.093889327270791 3.288208480234546 12.717398431714514 -0.2584699154802774 0.32938351177170366 -0.7341515111219937
Ni 3.080502486142563 8.16828755158498 8.043802172845066 0.2648876460811631 0.44792422302278984 -0.255210013782083
Ni 5.7163865871413755 7.894363527887299 3.648566455318505 -1.521910266046482 0.014079618021517689 -0.21773901341981855
Ni 2.9879417860961794 8.31219658454798 3.532808667083647 1.2363974875157997 -0.11482263896955064 -0.07050556221973019
Ni 3.4847125157029186 4.267882998732506 9.458998002023892 0.2846638002668259 0.4307960479829355 -0.7263291868640975
Ni 7.355468013553223 6.187907740656991 11.375834702659448 -0.44763343125524846 -0.2630125405456374 -0.34668317939241583
Ni 0.5240474988552312 0.09210810478263957 0.41142445226746444 0.06988001282058934 0.3628875570664202 -0.11665737818544424
Ni 4.741337393494455 0.6180427723124451 1.5442821414082615 -0.8372938855401386 -1.4003107133644142 0.1393190814490181
Ni 6.066682673906803 5.716476925517372 0.32560299507044643 0.34661247405548046 -0.5446306120076039 0.6095841340608534
Ni 7.901337650514256 8.867696292390278 11.40431477907622 -0.06180931999731291 -0.026955959763553576 -0.4170457882763785
Ni 9.180547122305008 4.867811119890061 5.70157561039669 -0.24981172558464718 -0.13513821059845113 0.8549406520876244
Ni 7.92221484920713 8.732703657138169 2.7659225797112534 -0.12623628012313096 -0.029984462177232232 -0.5737100458720635
P 8.477479677271836 1.6096853188624691 3.5638534499949683 0.2511088471295159 0.36242861515213065 0.8749788016854221
P 1.7332862849013744 3.2177355131193948 1.6573830780050518 0.013352510047506037 -0.14752115764383628 -0.2002539692611777
P 4.5743559393018565 0.9819420117354809 8.261368600677105 0.905354328653486 -0.059401224776452544 -1.717663519223829
P 8.5073274767012 1.613434361466339 12.417855347967883 -0.13101878911343887 0.8845155375312637 0.04521439175310923
P 6.325429850437013 7.848028974838508 1.5005972129274594 0.006846847718504337 -0.6239774266680479 -0.5918082981346711
P 1.8674026379063142 3.4354871346222287 6.024892141170656 -0.14470245724811853 -1.678560125464464 0.14413707166295175
P 6.8162653487407585 3.7989184212576004 5.939478110049383 -0.2691111972442075 0.5009491119592533 -0.4218372961277509
P 2.4916859852326225 8.425833227714431 10.204278763392876 -0.8264050065417766 0.2580508256649878 0.5849491091209926
