# total energy = -381166.41146251437 ev
CRYSTAL
PRIMVEC
9.24911585633708 0.00000000000000 0.00000000000000
0.00000000000000 9.24911585633708 0.00000000000000
0.00000000000000 0.00000000000000 13.53701597070724
PRIMCOORD
 96 1
Ni 9.24139287229368 3.0869201736516323 8.003801047753626 -0.06451334919203727 -1.0122690256298696 0.3555262316053425
Ni 1.0914326707822466 0.5069181440806816 11.657320210639405 1.2145472244099276 -0.7410060721499819 -3.091387226128334
Ni 8.634752610574274 0.8154140801891028 9.681172609083582 -0.729441507240834 -0.032178127394441355 -1.586684839319706
Ni 3.4078922421760574 6.859162837848341 12.160423094417913 -0.6865084553227339 -1.3455968667613019 0.8421257597111432
Ni 8.439383535755342 1.9750007111861994 5.963894665851058 -0.33346179560613537 0.12151084962300365 1.373605436159086
Ni 8.636482195244593 5.209601518158568 12.261477084743941 0.3696477586083892 0.3048775562105394 -0.46490096008644455
Ni 5.945923633688334 7.727210861798847 4.447031336661436 1.040548332190537 -0.795399816409514 0.3164608901727647
Ni 3.4004467038893917 4.707651999130801 5.194003809131694 -0.1119885119548652 2.443420378524224 -0.599782060368767
Ni 1.0729344390141329 6.404078589005091 5.008263063948064 1.0814558690381761 0.3573807683155781 0.9568298708249585
Ni 5.934029270661437 1.0819708252328566 8.374621226335176 -0.5479769027720175 -0.752157203670795 0.08214083246581338
Ni 6.059807997568727 6.139942337588196 2.3391421031878714 0.8259213820371389 1.251979915335089 -0.040352949895749855
Ni 6.3440425778016785 3.5857434915105872 4.777334838201286 -0.826507593557912 -0.8048000266774914 -0.6846868287329628
Ni 8.220086998144353 1.2875694222195566 3.7307881268043666 -1.8051301347779298 -0.8320989716027606 -0.4565772707120976
Ni 3.958112897002717 8.450861688567457 8.562852758426382 1.0533295431156051 -0.5822044564963198 -0.5234010132048663
Ni 5.676533884449294 8.875229623559754 2.294348634961384 1.136471048931791 0.7806625101993394 -1.541794920785551
Ni 7.346082543564516 4.125679129474175 2.127923743390019 0.3306076139867919 -1.1570421882149233 1.4908503114168838
Ni 0.2457989542651649 4.76968581936517 1.5660436530799178 0.8505718335959673 0.9846381512864785 -0.33330264432045176
Ni 3.7530599978531756 0.6106007331409591 1.0207694254280522 0.6151441446471342 1.6968496678022713 0.9138767643022002
Ni 0.41260953396889577 3.183073982382287 13.198685372717483 -1.3744335884873362 -1.366397605556737 2.0357642589928617
Ni 3.75375368154448 -0.03124536327952091 6.278711447754643 -0.3560581928494126 1.3549739371008276 0.9252263849870648
Ni 4.6199518823181736 2.7178064569506906 0.4649882021318982 -0.087432676992372 0.7340111288893875 0.4961961706553003
Ni 7.820673177807241 5.432301730414888 4.630837166802121 -1.3708206743250972 -1.057559779146869 -0.4427552772273407
Ni 8.859922336771639 6.691790836810449 3.227820280117766 0.47144210363907196 -1.1441691889069974 -1.7246970290318424
Ni 6.3730200578664284 3.035032633542073 7.067324364846513 2.420458884632044 -1.937083519890496 -2.535329089010079
P 5.382060532932692 5.632498843725299 4.344218164494259 0.5910153699197306 0.05160229755732403 1.8545089423213739
Ni 9.007260752804665 4.626675989565883 9.808312805849006 3.013765878799429 -1.1736641130423207 0.39766584108786995
P 8.507558768936725 3.305818999279606 4.20613996328435 0.3963733475286916 1.2845125978554714 -0.8484092787270098
Ni 1.789546688594975 0.12310388259362011 8.517219470477622 -0.8104464263299913 0.7956103897584234 1.2872814188498605
P 8.222445522694787 0.8579997844540659 0.9285427913017675 0.3937665060334638 -0.06467250047772087 0.6163044835038225
P 5.452945757068103 6.250718998531545 8.92982807953493 0.16664965094317105 -0.36116414661741025 -0.7249711301743063
P 4.043815204784388 2.543044412321436 2.610924598706118 -0.906704157813161 -4.483543171596097 -0.2668406560424759
Ni 2.1679187702958576 8.251987198828465 0.9563604322346569 1.0884757519994352 -3.2433957301195626 0.9558325399086959
Ni 7.946414908250994 0.008492538204741017 7.448594194553872 0.20228179832448387 -0.058691086083305366 -0.8399410933549986
Ni 1.4156511789819761 3.9076219733916497 11.472161234844881 1.4017183923452181 0.05390626310015233 -2.8475468876357737
Ni 8.305521081565386 1.204049905786523 11.889899403571487 -1.9040152765816178 0.5280184573722196 1.5803876934570846
Ni 3.108877574760383 5.009968600917084 7.503323987974602 0.26879983665137575 0.6204149061277703 0.05335039059668232
Ni 3.2579918210431478 0.8996735258928609 10.141431738263961 -0.048518259315361606 0.1873308334416064 0.2825261850985328
Ni 5.510327272012792 1.7422282117321402 10.926023139769445 0.8999210734530567 -1.4610730801544516 -0.6035176161517993
Ni 7.168083308375841 8.007144603145713 0.5118183256760549 -1.9970483304799027 0.6845387331908727 -1.5256864452594627
Ni 4.331203733533803 0.04892042373395359 4.089397622595785 -1.210115413890819 1.1894753690429642 -0.860312457922499
Ni 8.090923094823498 6.85006170781843 6.309224281056147 0.7201927349490564 1.0683265307450698 0.9286122707401621
Ni 3.118311672962121 0.15527600728472352 12.39967644937193 1.6472410036362082 -1.7377736597101427 -0.5641661109373703
Ni 1.042847065043296 1.5789443199150002 4.563991031573276 0.8678136513955506 0.43382455039661416 0.3116439284000955
Ni 2.0108687825845717 6.122221031554343 2.863525352792418 0.2886266415693158 0.421573500943403 -0.6810376620161497
Ni 0.3354802317001571 2.3147207376076078 2.1399586929783534 -0.8071734120056744 -0.08373234532264934 -0.31580140221189484
Ni 2.4240730347048127 7.70688130508569 10.301668971308892 -0.6400553060665171 0.5101374633267408 -0.7957006354793845
Ni 6.722479403313749 8.022313153195565 9.10695974765368 -0.37348718695913746 1.3060761829588603 0.8475523300433533
Ni 7.855579341153672 8.55713403007527 2.577732296533003 0.0520859220619619 0.4878763379356952 -0.4975544844554077
Ni 4.519931943147983 7.994908022831105 0.1156379962520094 2.008662003459431 -0.8962701069640305 0.432392703046094
Ni 2.322268016168999 3.268443321992132 1.5478090211144995 0.5131076016986583 0.6720316018627975 -0.6069482390999031
Ni 3.8988075659541437 5.209841995171553 10.050733058081724 -0.3185252289009611 2.0133614658176295 0.1062166424680945
Ni 0.020020636242629498 7.3121845338494476 0.6569064318144897 1.4992323648329922 -0.9303073990543977 0.9138613376832325
Ni 1.0995348962966804 0.6580634962115853 0.23172827427074918 -1.6986748939364682 2.059888148624259 2.003972054182929
Ni 8.778206397935996 7.8156971534616195 11.943181710356361 -1.1613832387924385 0.676865275806015 -0.1599007622551117
Ni 9.007926689148317 7.840410791103819 9.417837331102247 1.244850246268843 -1.3033006770962523 -0.15776777507250891
Ni 2.228213756744024 3.5591337851121554 8.863564638606782 -0.5040120671552932 -1.5811867923196123 1.0840555114445525
P 0.4276060504633055 5.420083648332049 7.795980813131575 -0.41613304665412204 -0.306090345571718 0.6676388721117406
Ni 4.081496102896035 7.512381647159859 2.47583941139629 -2.155139036109469 1.7936205914764338 2.9266777296306694
P 8.035622630952723 8.57761157264257 4.792672647071817 -0.17471391600854427 -0.11052683980767417 1.377868582310814
Ni 3.537130138423984 6.917848478132683 6.409438451659903 0.011240348800509673 0.5107699547044171 -1.291321650357505
P 7.637022732813408 5.755900547850386 0.530768839210899 0.2564325733352745 0.5366982445344046 1.1579338467912574
P 6.712777080751374 8.973131515192495 11.53533824580252 -0.5441690989901531 -1.5156437163114802 -0.49757428194974956
P 1.024487570013443 2.035822897239757 10.160397050384221 1.1145071430661904 1.1659965691947338 -0.5752923027575189
Ni 0.16519013460084409 4.373703421021044 6.042544522771135 0.33328156127452924 -0.8132265601782898 -1.0930875397398336
Ni 5.711847008894623 5.409437915949501 6.568010843845704 -1.231529617900537 -1.0853878571027307 -0.5881105375681097
Ni 5.782316022815253 3.96812968950515 11.433472183101872 -0.3712567549667219 1.389551417965381 0.44712846659437194
Ni 3.1173590140260634 2.578635010243287 4.612914230041995 0.4930398844145057 -1.9333644191676964 -1.3743927079470717
Ni 7.425264224647926 4.8511335338401755 7.987949912951529 0.9724115273132994 0.6840389107363187 -0.3733131232751184
Ni 7.002875600454818 2.3840613593903828 13.54974111556639 0.6097036903578532 1.6941299548782631 0.6961565199354591
Ni 6.163573828671961 0.9118379631035723 5.14635421392021 0.7125452457061278 0.22638691890280366 0.8895685265741389
Ni 7.409873695816856 5.918241029847352 10.071945905361808 -2.7809432315736107 1.9574541131270482 0.7943523489816061
Ni 3.9061236166184328 5.944832238014016 1.2415717191049649 -1.654140301859203 -2.964808989284752 -3.4936964795254863
Ni 4.141596857910637 3.034995637078537 6.494329611978542 0.5950000655990914 -0.5111700183563131 1.5753881833599643
Ni 1.622017452587053 7.098492960464197 7.918409510265659 0.79753126093022 -0.17101538411103448 0.008838167116920261
Ni 5.530009390614065 0.7999264356412495 13.074212620973022 0.31677276498622864 -1.5372119294005588 -0.35426073462935764
Ni 1.4546177042015076 3.9596205028918177 3.7961987992480055 -1.2018588303089819 0.5453646619601511 -0.06891430647321034
Ni 5.853386229268345 7.602976737244195 6.941889705050111 -0.2145495599482434 1.820642371480916 0.37484267254576736
Ni 1.7468435205582846 5.599608987641593 13.052769470707423 -0.4640126439442202 -0.06355612748509054 1.2605252338019388
Ni 5.816408263963886 4.628849531798637 0.44899833059154065 -0.5843433572161937 0.7182710924463114 -0.9654263542447178
Ni 6.070610964921305 1.852681153619547 2.552404517596101 0.13795845365606563 0.7395755103510424 -0.06226749058065405
Ni 3.718949258472774 3.0995544659492538 10.719259154181353 -0.9040320102976366 -0.11444005881915129 0.6941168637976111
Ni 1.716376932836201 1.8077027030753787 6.874408155560033 0.9816011642323674 1.5663795521034507 -0.18765324977803166
Ni 4.825115770858323 7.616933653113237 10.686824354599144 1.5417612393341382 1.181769001537642 -0.7584525497612034
Ni 0.7716898097588124 8.680850204140414 3.5929272798177343 -1.29351891511914 -0.22763107572254992 0.05623362568174832
Ni 4.4199582495572125 4.4192923132135595 2.9476719592823906 -0.01893823166539964 1.8727326644182523 -0.38416549260859
Ni 5.317853170465568 3.7450225161499304 8.713654968357988 -2.986386972565844 1.324288335091513 1.9375517177761663
Ni 7.258086455043599 2.795813500316826 9.368102060258906 0.9729612291691825 0.10857614383920655 1.3878881713303453
Ni 1.1242207865912284 8.934340723174762 6.474334873260388 -1.1807032792772891 -1.159828235600493 -2.5498627638498794
P 3.831307518232297 4.73379924973503 12.781109063518848 0.20390339308830688 -0.9216355823120128 -0.5553868220828435
Ni 2.396149953850845 0.7116242013845703 2.7270185763712114 -0.15035579887915396 1.1769427837935924 0.6904440429317141
P 7.772013579141218 3.3268977343793713 11.556753648720465 0.6012545311492354 -0.5111687328047326 -0.07154968721352839
Ni 2.71413455794472 2.31107658594929 12.833361943705826 -0.8660964115941278 1.0963122173247182 -0.6753832919438497
P 3.8076112833373434 1.6732020598894237 8.101146142610148 -0.5594651059172752 -0.8084589635863174 0.21948813490044133
P 0.8495275943042697 6.452553205353434 10.97528485587952 0.1640320108146659 -0.9988272983026668 0.0490767029219929
P 2.505400510673325 8.215601176940586 4.552119791336089 1.3157116491660954 -0.927214361951371 1.3031374120455104
Ni 6.464096101976736 6.505670877875572 12.228244086460936 -0.379656806104959 0.4347691736980706 0.2822423353095268
