# total energy = -340889.18065272755 ev
CRYSTAL
PRIMVEC
9.06261489742794 0.00000000000000 0.00000000000000
0.00000000000000 9.06261489742794 0.00000000000000
0.00000000000000 0.00000000000000 13.26405296554116
PRIMCOORD
 96 1
Ni 6.786992212826186 2.2432327873841826 11.419394886007668 -2.682534258075393 -0.04836116491220704 2.4383378217949945
Ni 4.725673292030413 0.7446079935713082 5.89377546200301 -0.19648164670293902 -1.3692101353048678 0.16635397407962316
Ni 3.0021814625919925 2.095720606521355 4.613422839036306 1.850839978110219 -2.195155942822039 -0.7510269467210937
Ni 3.5102769605384476 4.8180122740794 5.134051026969565 0.6296197125554898 -0.6552533539631941 -1.052899397556722
Ni 3.9848498463935096 2.836326549403407 2.401682638031575 -0.7088032621651921 0.33189753644280906 -0.11540756493874318
Ni 4.886779395071422 4.9711614013387795 2.7299278267762674 0.9992700422670404 -0.03702028597809108 -0.5675232003350613
Ni 5.053667446345549 3.2854516129409155 0.17668473785720298 1.1702368325283268 -0.8417107836609116 0.10963543834165633
Ni 5.678870052549635 8.327836103878575 12.437583282199292 0.2412558655948361 -1.6361968300069045 -0.09761167440790286
Ni 2.3404565188025286 5.6317082052061345 11.446001816756281 -0.6209718070725048 -0.7945557232416639 0.5681099260764668
Ni 0.8478955205426012 0.34891701307031264 0.18047744214491532 -0.19895710482662507 -0.36659714470752347 0.03517269124639104
Ni 7.69505715171385 9.1189842494191 7.296224162666737 0.45828602587308814 -1.2702375759936964 -0.6895693536362446
Ni 8.742314791091294 2.56235464182436 1.4893673328095338 0.7191766349797163 1.0046567605002503 -0.932873102899045
Ni 0.6370102870080536 0.5828104130221698 4.75668827861067 0.9619833900014402 0.5551867902568954 0.3254767205181298
Ni 1.9497943832459812 6.8808084010852015 0.3741418950641441 0.1366801011642743 0.603266933593574 -0.269846018527703
Ni 7.974013497424895 4.161688648702065 3.5238473199181857 -0.15251912507905993 0.17001753897413946 -0.7056752580591718
Ni 7.659921394190645 4.143010599629246 12.972774185831295 0.5454207120090672 0.05775520453259731 -1.1195261935473364
Ni 8.426600479810448 7.333884764669167 9.40225077472211 0.25835395872770345 0.19450806791633599 -0.35695550785270136
Ni 7.12955905171633 0.6128692937425623 0.3924955025276447 0.8750603056556348 2.0316867464893784 -0.31365375974127274
Ni 1.9961949709475035 6.521258222087116 8.974166383931987 -1.2469544370960397 1.5256753895158695 1.5378745026852223
Ni 0.38235987415159345 5.185220362571193 1.3469247786576883 -1.2685810142268799 -0.6252264685838006 -0.17733618412273977
Ni 6.455563327507362 2.49623380434969 7.000090536891341 -0.2214830538432831 -0.48601151681281457 -1.1363802889901977
Ni 3.3063318774066004 4.9017508346969905 0.5725760021449572 1.3711855138636835 -1.3790844569957863 -0.40001454382570467
Ni 6.1838570736246785 6.2382599501817575 4.889156518929645 -0.6671817299696639 -1.883385773256724 0.07603523378870776
Ni 5.266357952745358 3.5942330239108897 9.10491000865729 0.4282676251341269 -1.4031414979449899 -0.39915939491426095
P 0.39808351080435533 5.752802863969365 12.458633017561462 -0.2372544577449269 0.7424037238284569 0.11278426838328318
P 4.031585750842094 6.406380517066706 12.634037207949483 0.911018983138431 1.270026745534471 -0.9069913500362766
P 2.625611693026826 8.708828429459043 1.3199589683635713 0.5239635705765557 1.4469451253935017 0.316099650178604
P 6.3488601010234325 8.121290050303301 5.842430311674543 -0.3729593394801254 0.6265014786414823 0.6009010044645586
P 4.851951766450923 1.2435991887042965 12.351313533272123 1.040548332190537 2.5073117778615464 1.8142704065163013
P 3.996105613957043 6.376999519932265 8.087278963274972 1.0515441690804084 -0.37975270825287505 1.4922525910810494
P 5.054691521816305 1.4225948933317902 3.711626510795741 -0.4500065594731153 -0.7471342965349068 0.7040212673955166
P 0.25380577715845587 6.121633160507755 3.3325663346875314 0.020233296327739347 -0.433622461688137 1.44076753582788
Ni 1.1701920089421225 7.95273447790865 2.7079355794764073 -0.04217611914741769 0.38866415180989194 -0.20485110171355686
Ni 1.8238149751133912 6.997824883194977 4.8610633193562185 1.0345651180239084 0.2463188819400403 -0.6514537777114457
Ni 6.310244299422615 5.938876470744298 9.33510767429964 -0.27873586481816515 0.17350858284653342 -0.00653471579472423
Ni 8.587208139038255 2.418132190128651 10.153459976903141 2.414798343912157 1.1489090175848278 -1.5263402767933778
Ni 2.197946901301271 5.580232553224758 6.857541950146506 0.2784551003529527 -0.6502137346567576 0.48150051631633844
Ni 0.670278239623975 0.24691456487559696 8.946669504411444 0.07686004368284827 -0.5679698009541766 2.025983268346698
Ni 1.5759433981164501 1.3495502181610342 11.285374219775944 -0.5246415704801868 -0.13369864993844716 0.08004821160284277
Ni 4.216182151406998 7.280922843862976 1.7664531548288624 -0.27764160331272186 -0.274356761913863 -0.5950304046163946
Ni 5.605471935402247 8.210593056399162 8.328326391338466 -0.42985219601242736 -0.8274085081056266 -0.37529775780531494
Ni 6.9610941054695346 0.9453304108854483 4.956392058022926 0.8118571906345889 0.892977552255688 -1.1217039179249455
Ni 0.7367217061850065 7.617626170986934 7.04524139001395 0.12697778627484585 0.9495528775475711 0.01268659432873299
Ni 5.252156835376553 4.87715489816927 6.984001676862725 0.3418891004378822 0.22161212322197962 -0.13394110496655642
Ni 1.1277880343609852 7.692129927138147 11.222979929501053 -1.0701170469865893 0.30458110801604316 0.36659508782499445
Ni 4.730086785430928 0.7568814927752481 10.330853411236566 -1.4236558158482577 -0.9987357670301251 -0.2078299818362227
Ni 8.462298119450349 7.805158858742325 4.950648172771905 -1.2979620384921582 -1.2840647116847757 -0.8418588792030016
Ni 7.451916259634914 6.629565531388072 6.977289904352618 -0.4508925616224944 -0.8530663178830469 0.6835010359549777
Ni 2.3767704162478416 5.5712968150463 2.563118620250773 -0.280755209241039 0.08303480503499247 1.6991981134297895
Ni 3.3571640837382097 4.789619101956573 9.614090301593565 0.974809852342147 -1.1109109410744995 -0.7509498136262551
Ni 1.2003523909481122 3.313373529094898 3.9231225645668286 -0.5410899458441971 1.1167365466173413 -0.9197154824711645
Ni 1.7914614403293216 1.4562987577188922 2.392410676844577 -0.44643735406461826 -0.18588330236180245 0.7452008269576199
Ni 1.2390225682376426 3.7264203231715154 8.201176999637076 -0.3684568236240816 -0.2725341068828274 0.01603494197567561
Ni 5.5000827880622065 3.4554843915455953 4.564505563208863 -0.35877147801551756 -0.7546763705482229 -0.014980018348600006
Ni 3.972905320106282 7.2447267604098755 6.195891319798283 0.6526033179348567 0.5399308925390894 -1.6554428227207103
Ni 8.42364606739039 7.567210844935455 0.4815655994235181 0.34930467617566296 -0.6962534505246396 0.40066349026361314
P 0.09922113171705997 5.754570073852528 8.047990715657074 1.2435410405391165 0.2680637298162996 0.08789496134077121
P 8.29447661885332 1.8585882280451764 8.017735176195837 1.512746340159027 1.6026632170258335 0.30762349438679276
P 1.7550569167361547 3.3955351947398196 10.370751572829526 -0.35837372835646664 0.369327399154493 -0.3260757875547094
P 3.988529267996404 6.475618894027572 3.8954933708704162 -0.23962732885247764 1.7219243513827118 0.35880850190104013
P 7.0515752514875025 4.046267186794529 10.299921800712335 -0.32228932392908366 0.6240705006024865 -0.3359737633947117
P 6.719376043911916 7.886341761990418 10.604636816428078 -1.5892826819538695 0.6967789840108064 -2.4606321144168204
P 2.3806310901464443 8.996765826422473 5.870576980675206 1.043339778892745 -0.44920771772090384 -0.03443709863194715
P 6.634903411496704 4.176714464016348 1.5306185427899612 0.0372938513544519 0.9097398593156912 0.9920046189538787
Ni 3.082467166976326 1.6367897937859854 0.37777509733163245 -0.7545339314330876 0.5777641613367792 -0.034651785745914515
Ni 1.330500601882011 1.369388281926392 7.1792484623234945 0.6545663551984986 1.2564801171982878 -1.7619556562729848
Ni 6.810763451408431 0.8584507479832191 9.529810702873283 0.7158899938086446 0.14699151039261138 -2.418644457131125
Ni 2.918787281336249 1.9542894401795663 9.18233192676942 -0.06121436672579134 -0.24074627294826922 -0.08356496650684964
Ni 6.565710347609765 2.245154061718699 2.3746769522324014 0.17311237584937927 -0.21735309083530951 0.7685441296692506
Ni 4.17296254149517 7.083203777088736 10.531445326897797 0.5573210629910789 -0.01313833715417092 -0.889922567479448
Ni 7.516868019802261 6.435788702045503 11.815141148458855 0.06029056935994132 -1.2561037076954753 -0.21734537752582567
Ni 7.694150890235303 4.202089785415618 7.898743044062832 0.09192773664924814 0.3484940073489095 0.972832416900802
Ni 3.397755535362256 8.74352011885776 12.23340982117485 -1.9149514638781473 -1.207107737412747 0.494991865934554
Ni -0.04230247329554022 4.8817858943246355 10.274123255202586 0.9110310673232891 0.7633738983222208 0.150537832982973
Ni 8.850268658415617 3.0637256796000076 6.042240123679789 0.3982422824166303 -0.9589032084142196 -0.5094486647898323
Ni 3.4186086119835846 2.8729667009809954 11.678931860756444 1.0156253436966123 1.156967626223246 -1.1013736910080256
Ni 1.2377719273972498 3.597912445513784 12.67868327342854 -0.8126701734541875 0.05663060400985086 -0.7086127434209408
Ni 3.1445913913306103 8.686670336308609 8.013637061789856 -0.08604556683685827 0.29028551732897745 -0.010413739134156259
Ni 5.652724408893601 8.115000595642197 3.6306892044083336 1.124846063098353 1.0833903670567278 -0.5280292560054971
Ni 3.493973316539417 8.7753933350582 3.8568023495668786 -1.757083158672032 0.08824077471596416 -0.12130130471535883
Ni 3.931915113431675 2.656814275733142 7.009468530671329 -1.0942784747241412 2.107725579822512 -0.7492850243293225
Ni 5.320180821956168 4.624008879367195 11.3762994339184 -0.6581211624292924 0.7185192039013755 0.7743347682090987
Ni 8.172249133241907 9.095693329420484 2.6396397144532293 -0.8374368388759061 -0.6906445889782945 -0.38721224985471375
Ni 4.926591461823919 0.6476951098401034 1.5897366978199106 -0.3332699913103035 -1.0690716364412105 -0.15201081798407368
Ni 5.974102854415356 6.033861736310636 0.48065118159166587 -0.2836281599134599 -1.2360573305675615 -0.9146843478051602
Ni 8.246698513704409 9.357240392128675 11.156647026840405 1.4648104357096965 -1.2230226088707903 2.002774177220086
Ni 9.272323691588975 5.474770904966435 5.596157379925757 -1.3982286340244048 -0.7892147706447246 -0.7397847981483712
Ni 7.2406395211416354 6.516654413776105 2.7437220327412066 0.5341546521769446 -0.6308648978165006 -0.6237293152129839
P 8.659609368559245 1.8676236549862737 3.472237541237985 -0.6997753476349691 1.131188203266297 1.1733170141155471
P 1.9249990691929801 3.545086463929375 1.442983057814625 0.2665310952218571 -1.469408082382708 1.9874136356036158
P 5.031799356868249 1.3582503283550698 8.161994784612165 -0.08191688938046539 -1.0954436986768359 1.2439274773442577
P 8.651353326489696 2.0114654768609928 12.659000180376013 0.021732249470769023 -0.651808075727071 -1.1711937971249573
P 6.3878837202895955 7.918921862144123 1.3037858260174509 0.20117648107544706 0.6803642900982089 1.468677889084903
P 2.1231893919360645 3.331843138027652 5.911430341866552 -2.3242268641804875 1.6516740997068975 2.8787261414520553
P 7.164957625068313 4.3460766091269045 5.530924678700062 -0.35149165652465275 0.6259003547223737 1.860497298694325
P 2.6298529967464175 8.78609628311982 10.148300630305783 -0.5089254452965106 0.34930133374155325 -0.4937466806735432
