# total energy = -340873.1894103372 ev
CRYSTAL
PRIMVEC
9.25020088498066 0.00000000000000 0.00000000000000
0.00000000000000 9.25020088498066 0.00000000000000
0.00000000000000 0.00000000000000 13.53860401980734
PRIMCOORD
 96 1
Ni 8.098883717741014 9.033977256033811 13.42464976842827 1.6505590122658478 -1.1653005715689737 0.8310029103251043
Ni 3.110796243509935 5.095130796700628 2.4314245034949376 -1.2244025199374524 -0.10908265116197986 0.03174258251891953
Ni 4.384567379934221 2.491708061439463 8.288888390184674 0.10771893804523384 -0.23619259213931584 0.9010736990002609
Ni 7.200254470597109 4.630733720891673 3.1032508548011197 -0.5219619667654947 -0.1842560511710246 0.27664452950677515
Ni 8.546639682495467 7.0555998320921995 9.446086647381017 -0.5136017677262573 -0.8435473226490182 0.09440885119988901
Ni 1.310096674562716 2.547708776461123 8.046777337212932 1.3561309335234066 -1.190462158436266 0.3138555913394337
Ni 3.6888320348856394 0.05933078727270023 12.277523129751186 -1.4069451879617962 0.28195025799040474 1.2988166731829696
Ni 6.000568191557773 4.066767484776614 12.594990017683688 0.2679809402945062 0.6591753147254196 -0.22301311733456433
Ni 1.4789128372890614 1.2002875420846644 12.12363031580985 0.3352883072919129 0.7741743313718343 -0.3343256862683274
Ni 6.035663453003457 5.284112396947162 5.773632092830007 0.12348417129929054 3.0371716593178792 -0.802077742650322
Ni 6.898207667227062 0.8560792489562387 8.825341754365652 0.2637879852590812 -0.567070686178675 -0.44897374733322676
Ni 6.1406994819216845 3.046211342241149 6.538211131548428 0.8516815217203783 -1.2886705858879033 0.9953221133628859
Ni 8.855087624748068 3.39026330697779 2.1939579762933277 -0.5639172281513579 -3.1688172833820394 1.5751724678047323
Ni 3.5981800680517657 3.0148994128806734 12.269359827635789 0.7359366280468745 -1.7176866591522806 -1.2548855190176582
Ni 1.5364583358271762 7.529737369235448 9.04910780931444 1.5749120150544942 -0.6582270918795373 0.3703193307541171
Ni 0.7328082994033567 6.244717988763205 6.5712047473956785 -0.2842663077180911 -1.3543098211542677 -1.2614886261564726
Ni 9.04202493064049 8.434536500244477 2.29176034826624 -0.4825104456380916 -0.35312250725985633 0.11158613431012396
Ni 0.5270644104731844 8.768144988393827 10.844083354070149 -1.3651511347441456 0.7614422285171467 -0.24740825834947713
Ni 1.981855499403808 7.362160733402547 2.6581968736703594 0.015674473312463327 0.2487400897870232 -1.4850547877810296
Ni 4.631908496380234 8.545622160418759 8.300450216036271 -0.7153480052622455 1.0177184787802152 -1.1074003568180801
Ni 0.02074450008384121 1.882869101741637 4.260422286415441 -2.151817942156036 -0.4315840911018697 1.580876203057729
Ni 3.3941853920734593 0.1534876551507932 3.9799293756902516 0.6973106881445603 0.4264092317691495 -0.3614374548834549
Ni 5.779849152718685 8.661564175959144 13.003489980718795 -0.11524738521179508 0.5029856827733079 -0.09186294484958372
Ni 1.1854687205675352 3.8210914044561206 12.295421343080458 0.45802608734348216 0.43512655703748937 1.8304321038778284
P 5.1375614672992995 8.277514343407232 2.79118608407586 -0.7840321980025208 -1.8746352807576039 -0.3756602833510563
P 8.63669963648471 6.783773434400344 0.8108448425262058 0.41440295133689276 1.6286082190263693 0.4763973907618182
P 0.957580776188015 6.0552276274783186 10.717104924077775 0.2817903353737728 -0.8071831821976874 -1.7826350389992072
P 9.190037391998533 0.9976433954081685 8.972966632314474 0.06335840965198765 -0.7532015857749091 -0.16785292722265285
P 3.0367761375298685 2.7768732485368757 10.066046198357178 -0.1389724967428768 -0.12814172467595997 0.7871686867489733
P 3.652053236913039 2.469877587793755 4.144248090837553 -0.021604465643653117 0.5171056671144577 -0.42186583537284117
P 4.103990292382686 8.130167896499398 10.464962028449774 1.1075240268801378 1.9583432006002208 0.47520928399098805
P 5.950996366020759 5.127691503155244 1.420876153093918 -0.8462464667477361 -2.273173240037782 -0.09482048481601088
Ni 4.488086375938085 6.677664382201225 1.279435034311263 -0.22109790258972245 1.034384112361354 -0.45906635568253845
Ni 6.390353148542031 7.815744324596318 9.79834816523654 -0.4835167754154188 1.0406856290993496 2.6460032530288946
Ni 6.287962677023241 6.8074076971820325 7.825272031314572 0.21116933062210083 -0.2932805954015594 -1.6003235131490634
Ni 9.2650935204567 2.112052074218784 0.38786184025928405 0.11868443591780206 -1.0582331510648098 -0.9869086924882099
Ni 7.755183260630873 4.990233520792861 7.194658099175222 1.529923366158946 -0.0739338711749888 0.6832015024366879
Ni 1.4659163053093072 9.075464406161354 0.6093671461576439 -0.5551333113111406 -0.9300847415206304 -1.343807636071363
Ni 8.987115739301116 6.836286823759108 12.221730544245215 -1.232347228705826 0.08628930741654818 0.2346566151107636
Ni 5.000103484936917 0.9857568875120942 10.595568387155645 0.2071355268723594 0.06554976087635161 -0.5346837852075372
Ni 4.926471887386138 4.3709603347084425 10.251552498201722 1.52460478215951 -0.28838418654120657 -0.5978431914748413
Ni 3.6920326043269163 6.473059192976895 9.389455068671799 0.6341996186166885 -1.2259312978771533 -0.4785555747554016
Ni 2.172677889589111 8.748479061711294 6.366298001628615 -0.11337767899290796 -0.15953669404747362 -0.49209320423052033
Ni 5.469532669925222 3.708608963976539 4.419487812586726 -1.1513135132612624 -1.7377577188705426 -1.60459205861743
Ni 2.9111954128628623 6.554997470753879 7.177517477283063 0.12125759596161698 -0.1366603036699324 0.648712981741515
Ni 2.6225521503032523 0.45602934425814745 9.73715346252333 -0.09470221407059173 0.7577059014031661 -0.03981070423903466
Ni 5.911747764461971 8.274110269550613 4.7619468927632855 -0.0753304944121993 0.1618414309212503 1.1876537424531932
Ni 4.730571137017999 6.5042231191262125 12.024757695616255 -0.6618618604186473 0.24567250660529305 -0.05275003800852206
Ni 0.41650231165836954 3.4984074033303214 6.141666127894555 -1.041146113675536 1.5362927600203993 -0.8230643722043182
Ni 6.926679784973456 6.886237907524713 2.472527770293541 -0.962956809658303 1.2451047854818103 -0.754450627690662
Ni 6.621450912563527 2.8423369188719083 1.1134882838412308 0.5992590979857615 0.5546016071773867 0.7208789623828036
Ni 6.691049422610268 1.5271618841263555 4.51922625156559 0.4908786150971289 0.38164658284147823 0.9507985770292142
Ni 2.501041513943073 7.257661216124764 11.663763988302449 -1.5061234355258706 0.31874942909662524 -0.5204774118001682
Ni 1.167902589443298 1.198178496325672 2.5278199199417855 0.8262684809639125 -0.631681480180525 -0.89013031261488
Ni 8.203309233413218 8.850360772191731 4.5969788135270315 1.2068051185706636 -0.40259181763457763 0.4991830211977661
Ni 4.834876400081137 6.189457289797332 3.8049165035167625 1.760226075176388 0.9778283274534966 -1.0956118488235842
P 2.94253509282543 1.061192274198853 7.573400166567005 0.28159056065814086 -0.7416889571496194 -0.08795846758885496
P 6.640145568172838 6.064431577172165 11.361352727024926 0.971109006451792 -0.1670592276767639 -0.5408294930939588
P 2.549151807769907 7.145844790095391 0.22727373105321727 0.719122127592697 0.583068347158512 1.708537645663161
P 7.907598817520845 1.0377430154311114 1.957275866110852 0.8825650986731123 0.6004562036176563 -0.26062424281911895
P 7.9913871354372965 7.019265043753073 6.1612969038144385 -0.38431178837846713 0.1997577463510495 0.1539625423938058
P 1.5645141945421903 3.8709222356126585 1.3550924258147576 0.5760988578192143 -0.36692470325027127 -1.5719058812383186
P 2.381861928158622 4.3720148575879385 7.194291791227608 0.1401768014636231 0.2503066629431947 -0.5158779653549438
P 1.3388647987314248 8.957857354495449 4.252773295458815 -1.5527897292341581 -0.14830868654213814 -0.026538412610160746
Ni 8.39208732924441 6.416984476349656 4.061052710785801 1.1858639975426222 0.4723054800806317 2.665703302560983
Ni 3.4935047969607345 4.90044182262384 5.044226942263199 -1.150485103822696 -2.929688234322219 1.5963136206587218
Ni 8.255360112737117 4.809114591139062 10.572010901039743 -0.23294297485376658 -0.09340252142256172 0.30129960905129405
Ni 3.119935441798901 5.021351195938693 13.134964008250073 -0.10727593697054427 1.351340968333931 2.868998115531014
Ni 2.132356264749432 1.9775541560795478 5.731473378131838 -0.31313876777806715 -0.287595372091324 -0.7249443907014289
Ni 1.528947172860941 3.3890052796829524 3.5816101835426313 2.3106869207125236 0.7831677931196964 0.45830890869122354
Ni 4.433861699450313 1.2753529207435295 5.863014007108136 1.0236813812318695 -0.14784331686994537 0.8816305026739849
Ni 2.793847366816483 6.974336818966122 4.746580459364875 -0.21242171497196316 2.426676326296666 1.016928635889068
Ni 6.843492730102332 1.58109980439251 12.698005802769618 -0.6288378400841429 1.0244581114968938 -0.280599143279149
Ni 4.575278767711155 3.2921926791846547 2.2321770305145026 -0.4394976895219915 -0.6356733749487375 -0.38375154499962294
Ni 4.680268545625896 4.831749832245438 7.592922715138728 -0.984275368630421 -0.15872576811040404 0.7355820729209331
Ni 0.8026251141865548 4.848187438884601 8.675470002667446 -0.05542578506847228 1.0468105110501649 0.29085861622362813
Ni 8.45651497710134 1.2104442624503369 6.478655564398782 -0.027194815247237034 0.32857361427589865 1.1243195011709217
Ni 2.894545051607661 4.877954584728621 10.90951557372281 -2.5723252066184537 -0.2111994125290879 -0.8972643525564997
Ni 5.824795877907031 0.9280356351607302 2.46246910205526 -0.7252390391237122 1.0919076604991194 -0.7094259833508556
Ni 8.168380475580085 2.9864735461377663 8.42116071003613 2.2162212481327703 -0.8970638065099196 0.019428283927940736
Ni 0.6361104013937061 2.9929671870272947 10.25880928064878 0.42330256781936776 -1.2898682057404303 -0.16300536932236442
Ni 0.21613186431327847 5.463390536662192 2.264994892548504 1.513658567560651 1.59129097063315 -0.13548633796648923
Ni 6.6736682954999775 2.6526153025695876 10.543066098037714 1.1284252958091792 0.3624921214002145 -0.017234618710731606
Ni 2.6257434695438326 1.9797557038455131 0.7078198072395787 -0.06360652110705174 0.6208455659072857 0.10068928489196208
Ni 6.663474574331515 6.533194747710263 0.03525343987760958 0.30514983603531964 0.22064384577143933 -1.6144558387853873
Ni 8.33126725965944 4.624304831407026 0.24678332934396438 -0.19636054774404246 -0.06977691158382177 -1.1084033441612975
Ni 0.08565870849745223 8.245869406821653 7.53167436126147 -1.6269226037938302 1.7806653168673463 -0.4401682332264549
Ni 3.6142476666630348 9.091948263804003 1.5196544212403993 0.5295693467991073 0.07441543879709765 -0.8704181788979333
P 7.532826936268358 0.19464364809337162 11.235944056090892 -0.36347248303561275 -1.2302744053371975 -0.6938939491535275
P 6.357163428439997 3.7388756206582157 8.657598614920197 -2.242095801906687 1.1440054096356234 0.12176847415976448
P 1.4682566060857327 5.489087594199386 4.081280124650661 -0.8443371655401652 0.5804226820055488 0.5248140915023091
P 6.408206035887886 0.49182114581634184 6.620268736914408 -0.25799091896132986 0.44172632174219406 -0.38737191536102966
P 8.437533565270412 3.0743874535652287 12.097161791534498 -1.104838766738491 -0.14034032362468088 -0.5028884950738114
P 4.655413256352159 7.102803606250696 6.210969556539052 0.7901429388859489 -0.3913206155961325 -0.3455120419024501
P 7.690552108358601 3.689340795923992 4.976899356487654 0.6000201445215021 -0.9929659544258833 0.6355260507375958
P 4.782797770155145 1.7964999778306294 0.19966188197167528 0.18735551603195474 -0.6881799294878858 0.2877038726447303
