# total energy = -340861.41552781273 ev
CRYSTAL
PRIMVEC
9.39814105916890 0.00000000000000 0.00000000000000
0.00000000000000 9.39814105916890 0.00000000000000
0.00000000000000 0.00000000000000 13.75512941875223
PRIMCOORD
 96 1
Ni 4.059301528151379 2.6162263478054033 4.496496477236484 0.6439690392986265 -0.1812658581944491 -0.682859802826553
Ni 3.667493022276228 3.9217597319536623 9.839347257683324 -0.9611966324340865 -1.136384659865572 -0.8247882968739603
Ni 4.01549679210235 6.573482859003259 4.132412487848059 0.4053102450070052 -0.31027121642228495 2.5217163833226506
Ni 9.039019411097408 5.1041116796302095 5.184541911679386 0.16276857072120998 -0.7833644825115348 -0.605120441862545
Ni 9.602174827001722 1.2677904491615803 8.621632924181483 -0.4024894877287585 0.11263411595866409 0.9861275913478115
Ni 0.4045335890355014 2.5274421080595997 3.196101056872392 0.5315804636918652 0.38403642322989345 -0.8782405031558295
Ni 5.364054866581537 4.0760490157376 12.163482196996332 0.2876614494425691 1.2084053731782478 0.526477595247661
Ni 5.338896042637479 2.0000654156349373 2.271302348844604 -2.7850698521474744 -1.7861029429431496 -0.20721625951162376
Ni 3.7117488691019913 0.059873677841914615 4.436084285904844 0.5121969169589308 0.881698894018075 -0.4889322900040353
Ni 3.7143803486329348 8.271952525968503 2.4852218986138443 -1.8131617468331547 2.3171103077403643 -1.5976387672280485
Ni 5.015646976684592 2.174090795900953 10.663209929417059 -1.2401872935755351 -0.6341260850662757 0.20474594359426027
Ni 2.919513761887846 7.861150376764647 12.403990967797522 0.06888473878685557 -0.4781115452394476 -1.123324227137188
Ni 5.495760417105269 9.343434602121684 0.1783832983320821 -0.8692876648379158 -3.2184789122732247 0.5334547978964426
Ni 8.405142982798983 -0.09884870913754532 3.759455713369764 -0.5520083925289139 0.6644015961213654 -0.41414095592475775
Ni 6.687106385892935 1.3263126743015319 7.137275468879709 0.3247089891141698 0.30072111084000464 -1.0425013421518499
Ni 6.955385724072645 7.78634117295639 12.359451297108064 0.8358766934776378 -2.152898062594092 1.132120228162263
Ni 5.545288621134103 8.227442929330827 3.4590986397078507 4.185908927211533 1.3174335169532085 1.676606344172203
Ni -0.20301112729936052 0.8665978993162594 1.605044625103797 -0.5148729211291971 0.15042110489945063 -0.31780043491979465
Ni 8.196927164913063 0.04759876564418047 10.928793880705786 1.3441994721931432 0.32740376233751356 -1.1480186445600744
Ni 1.7969997791167214 8.49544972141626 0.7037741635250001 0.03613068428428616 0.33093337275732687 -0.623565793051926
Ni 5.935809581667328 3.9884865343454488 1.1162754966545518 -1.840031317530489 0.2012872956216985 -0.3367715767056587
Ni 1.5886429891130724 5.5625718027676925 8.653187183199853 0.2540476180428657 -0.39346003053663847 -0.8711609706012287
Ni 2.3749572673825945 3.1244496285012686 11.950924437884353 0.02495744127628605 -0.1889647695006036 -0.5599800978804808
Ni 4.222349879516887 4.572947536309226 5.867662720142951 -1.1606718145477108 0.24189247073757053 0.8741439644889526
P 3.0164367918972115 5.778230948469711 10.375659702743775 -0.2639203970718874 1.9072463819244054 0.5317676400020068
P 4.333576880405168 6.395096741228822 7.25136044450142 -0.1457000452746975 0.8735263855096117 -0.9450848144738884
P -0.17823010863081645 8.165236632847554 1.4602718990806935 0.24452733725725626 -1.716515778772631 0.4151863664701366
P 2.6809043554195267 1.6613846018613017 2.9563629336481214 -0.6495619600053717 0.026160460445451724 1.052407288411652
P 7.156101825295375 2.5942816881455695 11.55916480234335 -0.035995187147686396 -0.5613186141862462 0.0018532511586548729
P 7.823078506836601 6.521050629349206 6.225682089026667 0.40054984750388434 1.6097080396877568 0.7395523704225909
P 8.402417521856218 4.225592238224658 3.1317538638278735 1.9413934601197598 2.0983269122164314 0.8689662769427551
P 7.076086051272323 5.3408038652974135 12.596975218269868 0.6371409606331995 1.1240701041642769 0.27753130298710266
Ni -0.017703278544423707 2.162408906411799 10.979303250674015 -0.8222891846011902 0.1718813316557556 -0.135755789577792
Ni 8.53295770287339 2.3625329247400675 5.278434980971694 1.0205130108062166 -0.11650054089260582 -0.08889512047051142
Ni 3.472716546280484 1.3184276338498828 8.679157066727912 -1.669233191636583 -0.24818190329070808 3.696044869421847
Ni 8.058323378761786 4.665913948880993 1.035366899219215 0.18514205332040373 -0.3911092709162748 -0.5737213587259732
Ni 8.613969679861727 6.485845192481652 10.881600174946547 -0.5059378234230965 -1.6729008702961576 0.1472239381183916
Ni 0.7003898928853829 4.367795512448619 10.593801837346062 0.8001437588524026 1.4861094542977888 -1.3586303029064926
Ni 6.078059846597199 8.431166435731779 6.0131374873123455 0.07005587627682128 -0.44190655607380025 -0.1726313224479027
Ni 1.8789703665056174 4.349187192908373 0.3074601887672249 -0.013286689806577115 0.8984267482957172 0.11739297079988814
Ni 4.194954297971527 5.611272970372515 13.827068783336562 -0.025143589145163146 -1.810075137488031 -0.9214484060018711
Ni 3.5084576771954086 1.2987855187796247 1.0274123125228196 -0.8688904293994971 -0.05803802588033876 -1.2388271800032147
Ni 1.9130104338666107 0.4739839727418147 5.6727114387212225 -1.4306271049597683 -2.346334494712804 0.7665628375731636
Ni 4.258918046855823 1.625211156452008 6.742530983699319 0.4833342270909675 -0.38465400220923435 -3.3043578716252324
Ni 9.429155047842176 3.8031269958140115 7.390328878530556 -1.1835829148179293 -0.7536900953755535 0.5470587618331224
Ni 7.788023440227958 2.312591202499229 13.827206936011937 -0.7980362255910965 -0.5602374653069255 -0.1596300250922283
Ni 5.107513806738074 6.561669395537559 10.826525187992132 -0.666232221572201 -0.3816658661151879 -0.0460433154123078
Ni 2.0071516140861214 2.4402649504559077 7.121072133667924 0.35496855932965965 -0.9994613323422401 3.6667144958888462
Ni 7.208844193608432 7.551152689878298 1.3026124418689113 -0.14935563974941374 1.0509620713246932 -0.6137246385917882
Ni 1.51254623996289 8.629401427682476 7.700878236304285 -1.5018834293025942 0.5263212721754548 -2.591156994612976
Ni 7.801331208141587 6.9760898290964635 3.5480398284113934 0.1514037805276941 -0.7578411414294497 0.4622990036872232
Ni 5.337317154918913 6.407267334059437 2.011990716980703 0.5665587795392629 -1.0950924859850044 0.45367860900806384
Ni 5.011699757388176 8.868593518904076 8.377726725343022 0.7048283366778443 0.08484794698433129 0.20673263500698588
Ni 7.237649496331084 2.5724967968858286 2.8844643341639125 2.5335923088246304 -0.2950765109597176 0.9239711724237248
Ni 3.039894552287338 7.586311136039941 8.86779467690361 1.0970166995909107 -1.471931105914878 1.1474010655807336
Ni 7.36347181047492 8.576987994310787 8.267658515262474 0.11850960090283462 1.4997563556572624 -0.818951378477209
P 8.706823314739312 5.055250743625295 9.041383983418784 0.6059149127393824 -0.8491842092198213 0.24997987573139527
P 1.7272279789819858 2.7776112281817076 9.536913194820201 0.19567406319997915 -1.190352372331279 -0.09610372240380868
P 0.42199627516566746 2.7349718616392376 0.5657634000823034 -0.27519622709602287 1.9623356095890656 1.7231289132137741
P 1.7452066230630403 4.391356652391746 6.4305784834471265 1.0862707739283164 1.3354204404489323 -1.7576716841856501
P 6.8886213291161305 0.6671731026919279 1.5348527280582287 1.1902402722334469 -0.05202550113767169 0.3159960347212042
P 3.8932645678900144 3.3480596016432087 13.564152964329386 -1.4747670327017763 0.00640538930571155 1.088757802016228
P 3.8829548070134243 7.554573613268524 0.5542459780638338 0.21882324762293281 1.505734427617568 -0.7531841022734125
P 0.7265251836982447 8.668854824364269 9.555055366557822 -2.239490503073356 -1.927412058239003 1.0656492410232226
Ni 6.921543017676473 1.5920263199385714 9.466403640602683 0.6719174448824363 0.44680219360320467 -0.06725260250007127
Ni 2.0695834659577605 4.509058972554385 3.910803378963754 -0.8444490085276811 1.5398642794217414 1.166962275542113
Ni 1.1138207021778286 1.3704933359978402 13.072847277575136 0.8288843213202046 -2.4295803873173383 -0.7278528225974754
Ni 9.061941477440165 3.977904227374582 12.488006590707608 -1.0047392929117276 0.6280420836557248 1.7300066141702142
Ni 3.484041306404724 0.9166383020395082 12.095339094728427 0.8903316299924087 -0.49514741767581183 0.8693432006661995
Ni 6.442181428550351 3.190527959151501 5.2495761088443045 -1.3364987611147756 0.25507991596212204 -0.25220799373096564
Ni 3.55149176566752 3.729774503888956 2.396102145227845 0.5195605564128536 0.05558467924383976 -1.8486743379174677
Ni 0.17306958930781222 7.721042888024259 5.2324517557966885 -0.5732963553734127 0.4953744460849533 0.3363355176095046
Ni 1.6383215634008168 0.5192867724952468 10.79878093540892 1.4758263272042262 1.36391623389578 -0.009027657419907034
Ni 1.4939473185638272 9.005167306560054 3.015811815508613 -0.7758306360283348 1.2739039691016898 0.6416190510092111
Ni 2.049180101451765 6.459201462230848 5.892160854761918 1.0494158098834958 -0.512129296945789 0.8401601513443403
Ni 3.5345187226929333 8.401487105879207 6.522737595691365 0.9651072803424023 -0.8629884620927655 0.1661922516907783
Ni 7.031350899246281 6.259143230890853 9.10501503810524 -2.748728337403963 0.005065073227733212 -0.4973122865376145
Ni 0.36248066650278477 5.822627767413204 2.0542597967606047 1.0161254232614823 1.0627894029769245 1.1526718270613696
Ni 1.761061287236976 2.4862782496826945 5.050966131060447 -0.6749168938303924 1.9239194717047123 -2.78142942718141
Ni 0.34421443930156276 8.13510619221825 11.848173620528067 1.9842115837265504 0.24396657965777985 1.517280994804587
Ni 5.430245974925953 1.949916934288096 13.209477454078204 0.979780566083861 1.1874642521502066 -0.30445512396114016
Ni 9.01009193253939 7.110267090751046 8.387093852659062 2.1583405737659023 0.03530510305919726 -1.2296380573047792
Ni 6.160989044386653 5.770618454112339 5.1639233297403235 -0.10842342031142617 0.2869356270201381 -0.3585825019331631
Ni 7.051444125093272 4.095334001442945 7.8011253888497025 -0.7057660180007652 -0.4534382108624836 -0.6067754609674647
Ni 5.968035807780207 4.197181657431647 10.012042800972095 1.5696237700723614 0.4346917834929159 -1.4307834280319747
Ni 2.980507698158648 6.198243276031871 2.2187714387081403 -2.365106890224301 -2.4072848091439316 -2.399446029825803
Ni 8.865886854243678 6.449136053024988 13.468693224902049 0.5926932718427856 0.5623802226815412 -0.19581341699132082
Ni 6.071368370075657 0.23522983489929328 11.540953084360982 -2.339527756203616 1.6525935261973732 0.1311476013818193
P 6.631694945484207 8.11085898796884 10.18128546719062 -0.22419016836180097 -0.7613810362619081 -0.015193162800670608
P 5.565494624675277 1.0173017922392866 5.042148795003549 1.1726320722333805 -0.09621865071511816 -0.009956596992079627
P 3.898029425469259 9.073801931611776 10.294971961626215 -0.054399657796803086 0.5492963929143895 1.0688407513773268
P 5.459774934519614 4.497217314665138 3.353308463493323 -0.5197364198690856 -0.5132685527565547 0.33643887595658833
P 9.34999450466668 0.8911777977635099 6.597387031099529 -0.10431505457000745 -0.41116053314019513 -1.028251517101055
P 1.8407105337539327 7.093275251494095 3.804187106139334 -0.29939313605720047 -1.2695410641473037 0.38595832284295467
P 1.4165818203540825 5.913329227960125 12.178557755266285 -0.43963961441649446 0.21944751147049302 0.32206203840962594
P 5.096245435460925 2.842157661819283 8.215774197239329 1.8778100789411596 0.7290303878453446 1.4742620680408998
