# total energy = -381161.1943470174 ev
CRYSTAL
PRIMVEC
9.36079622532974 0.00000000000000 0.00000000000000
0.00000000000000 9.36079622532974 0.00000000000000
0.00000000000000 0.00000000000000 13.70047147955800
PRIMCOORD
 96 1
Ni 8.819358281468189 6.534528368330212 5.207836779972977 -1.1502236226311933 0.11012677615577808 -1.1603275438344145
Ni 1.8626767311616304 5.078025940222723 9.120937857273912 -0.7372874856478141 -1.806110239303012 -0.11304446402320531
Ni 2.6342871526949625 2.4792442870895206 13.434010774141083 -0.39564906776815734 -0.21006375626274792 -0.4014746733109989
Ni 3.5104295841429223 6.38494284684407 5.351910664722507 -0.7953453090224948 -0.04132971198672237 1.500037634343107
Ni 5.5183765097941295 7.550680226866295 0.3722236317225958 -1.179535227111117 2.2426879269647313 -1.0866970628324573
Ni 7.416764678031456 0.9907279363610921 2.268085321095773 -0.385455157954291 0.5123046461813886 0.525739688640372
Ni 5.887210597253262 7.725951772817892 7.420285273440149 -0.12605656001215707 -1.0280928800360036 0.5092005533347682
Ni 8.947395250359769 4.128850577696235 5.793066262757482 -0.8807259885818445 -0.5426128102466268 0.8030611896095137
Ni 1.74761382564801 3.716713447534042 6.898392809146229 -0.06155400945339722 -0.5822191117843392 -0.27479899165760413
Ni 4.940450320117477 9.120204906940222 2.1394520694933883 0.04267979825671359 0.7886596694722031 0.2598272008391203
Ni 2.4213852064696306 3.2225102180684075 2.4260927508222827 -0.21109425440979132 -0.49271052609954497 0.09814980629956
Ni 0.9086337546693861 9.233985383389788 13.48009958975993 -1.2739438212006897 0.7985067374696119 -0.13201586291938555
Ni 3.72955645976677 3.2879889867039243 10.115016958634508 -0.2988174660593886 -0.01119509738487104 0.856759450463918
Ni 1.4247131645926625 2.0508006501420426 4.166203898405766 -1.3495663929320112 0.3268237214643274 0.03020866237289636
Ni 3.100080366033536 9.123275248057084 12.826805886460406 2.7252127707805256 -0.7507626373161135 1.1349458705365163
Ni 6.010482920936052 3.438978627603265 9.821155359203333 -0.4602362076209235 0.7025889058243642 1.580944080181187
Ni 3.4136857565735053 5.575205902844339 10.630757507739396 0.22751254786681463 0.9459831579184418 -1.5324415045951092
Ni 8.872930117479777 5.077614065194851 0.6350345344502846 -1.0117663749618382 0.432940605129764 -0.435857778776559
Ni 1.6821537786046692 7.325824544036596 9.382452289743414 -0.35117181129138875 -0.16832421043211657 -1.0715344961594062
Ni 5.522504620868934 4.444580868948179 2.3968833227093067 -2.0541988115489653 0.49801651169349065 1.9918372185926085
Ni 1.9622568799457087 0.3030061611295342 2.1345741586519345 0.3121802605195398 0.33759587237916694 -0.6691799913466152
Ni 5.991892379905297 6.600905773390177 10.884449122918163 -0.39121134371177785 0.5899468194459001 1.8763514921177618
Ni 0.4202978721917058 1.8037130766033571 7.630737499329254 -2.091885527466462 0.11989825372024512 -0.6217248831884454
Ni 7.410371254303356 8.124890180496013 3.490044578502098 -0.03987343915617004 -1.4862765760032726 -0.5983802949252339
P 6.776879379048373 4.877480244833543 11.5632116802139 1.1032166577540357 -2.3019335999999258 0.1867525923406332
Ni 8.167697101006409 8.830525711201165 6.025878622261977 0.7687482752602567 -1.5164744397428915 -2.1361666087720246
P 0.7202655189110773 5.9639691251748115 12.718339533949994 -0.19777234048990455 -1.621131708143666 -0.3827760684602311
Ni 3.1217974129576818 1.9475229869032067 8.425912788934502 0.5324932053141217 0.8045650278485498 -1.8710210810437842
P 5.400636416599342 0.4090153046668468 13.694854037531076 0.17074156162435755 0.39808955888884995 -0.4257235185560346
P 9.090643512894339 1.241896816994143 5.365063519305749 1.0041607947004385 1.1618367813900894 0.19508528057604466
P 3.1804428004489633 7.731352952160665 2.047521563272418 0.032235205884621906 -0.5468834125975226 -2.0258508565338915
Ni 1.8277609617534132 0.11768954489591135 8.551491612773374 0.10668304058155174 -0.49207494939807517 -1.2015006756386144
Ni 0.6294695411759721 2.345029192779865 12.638903818347279 -0.6419712921423073 -0.4149217999548402 -2.6246569261426345
Ni 4.624907244787293 6.7477766640108 3.334393261150936 2.6766788277358806 0.26861780254755674 -0.09885608833796523
Ni 0.1478958977922587 1.9732370937569257 1.0763895174419325 0.30958910275359586 -0.978838513885566 1.1249144544424434
Ni 0.5992734851553216 6.974532588446363 3.2685072978855914 0.4625412016050163 0.9389887288784796 -1.4891379567114675
Ni 8.285521441365988 8.289172151840305 11.832959868922401 0.9368218031341479 2.2494645835669322 -0.7901136283099102
Ni 4.58021880426321 2.5428696180996146 0.5149065021734508 2.1846283038178376 0.3698904707468146 2.5304141682069647
Ni 8.630401251635945 3.7666252122752253 10.866049542127602 0.4416134503134136 0.9958345342229301 1.9485310996058054
Ni 5.405597638525979 5.311502916249466 6.600119466518785 1.5051500158690079 0.9059230566727623 -1.5282061263575228
Ni 1.7207015368950278 4.550030236879429 0.8513044951080766 0.5953487071877618 0.7057698746555071 -1.656992426596017
Ni 7.2696597675086325 7.959054317001114 9.651132411618276 0.08502998108815034 0.646913209528615 -0.4216434349493899
Ni 0.8197969915554981 5.929764776269282 7.212763912806197 0.919552474530739 1.1569897377104332 -1.0580891692877779
Ni 8.009920882943273 1.1405381169533455 11.565047332326758 -0.7504762164239462 0.04708589774420923 -0.7170374771495265
Ni 7.844440729699718 5.395431813974417 9.318991708744468 -1.1666642846857198 0.5864362351894804 0.2174489929832255
Ni 2.80852901107688 5.5150159839985395 3.0178710465499474 -0.5569770493880988 -0.004928290539552804 -1.2451767763703265
Ni 2.1130405833311134 1.2191313609081418 6.240263318587647 0.8674891781765962 -0.4273361144587931 -0.37385074094614323
Ni 3.778560227287418 4.363928249854024 7.760480941347675 -0.30501202490587465 -0.7931171910229244 0.6135711437330594
Ni 5.220188350411084 2.1024816053438564 12.110271580870002 0.5110347783300296 -0.49309182069836366 -1.1810241529518177
Ni 3.809450854377797 0.5122536525621133 10.174928861836493 -0.9120615654703325 -0.7283264197997844 0.4106653386713315
Ni 1.3991488304763513 7.8910668550140155 5.734071717572117 -0.18349808995907751 0.054929047937711854 0.904032524518269
Ni 4.192419743929801 9.351922053302422 7.423079471072417 -0.7301027949739168 0.14547173131397526 -0.411828248631181
Ni 5.781246385537171 8.8241042050848 11.618519943899814 -0.42076668877139145 0.050231385351726394 1.7255393224274798
Ni 4.103510902686035 4.579966062768834 12.456550830155114 -0.1586686896202235 -1.7238868744257212 0.8663658632054305
Ni 4.002011790703919 6.973568426449299 12.21505258796057 0.942732255081312 0.432212725824804 1.4285193145881463
Ni 3.676022066939533 1.691336719566991 3.563231962716078 1.1529389646798274 -1.0606641291038057 1.0098254491853835
P 8.998542640184567 8.102536599437883 1.537152238962818 -0.32770072475264206 0.7192396270071678 0.5613178428552977
Ni 5.35823201032073 5.642959344929238 8.981659508360261 -0.31184113201256614 -0.19530305301380557 -1.2380483928556614
P 3.061991286751489 7.388298497127867 7.609652306141048 -1.043569635515364 -0.039141188975835815 -1.2279251883787303
Ni 9.043624234144344 6.472868804498597 10.89319023430513 0.780087868642792 -1.0509438164922482 -0.14869615178854392
P 2.1146506402582483 1.0384118316333326 11.645290884631867 -1.2482878111954825 1.3042453003977086 -1.398572904737701
P 9.233330127663628 4.28215233522931 8.174070867062724 0.3553997333298073 -1.6022508120787633 -0.10170795596446354
P 5.509081239278751 2.3498780851534455 2.6479857416901327 0.9830196418464489 -1.1100365088893462 0.16227877556898504
Ni 5.48304886535804 2.0054663146878884 7.9000616439749685 0.00847564157117895 0.6048041961737068 -0.6492161466301787
Ni 4.248612602846029 5.74178126923019 0.9516306993403681 -1.7232037323157678 0.2175513228890447 -0.24215395192907324
Ni 5.665846491364383 3.529806432045069 4.880354945312166 -0.849587358195511 0.27376437974550266 -0.5839687474855942
Ni 7.19506358348341 0.26846950396288094 7.730121071395485 -1.2067914917239086 1.9964374363687811 2.1615544527175095
Ni 6.1157637945377195 4.637010754129069 13.595374985344748 0.48751175550742487 0.11450176529502215 -0.4513219358504292
Ni 7.897759824216931 2.6902553525050776 13.140766051172111 -1.8321151480072062 1.168138041017769 0.08909283830361431
Ni 7.795549291732127 3.066915065493774 3.7283367480365044 -0.2526011154043262 -1.80086775995715 1.8875591879081235
Ni 9.472563993284487 -0.008817869914890197 3.6146639207419513 0.22246984323658459 -0.168177143331291 -0.0014367324465265577
Ni 1.6461708784424207 4.104886939710971 11.397079079483014 0.4286748878748747 1.3508321470183122 1.3892922507667234
Ni 2.75906656454792 8.259358016300045 3.9657387058629423 0.37131100524342503 0.9812864612054261 0.9760979750259512
Ni 7.390320429082873 6.894591389854896 13.046985851644152 -0.3550379791150144 -2.672779235571158 0.7455368701408
Ni 7.929801829226134 2.2741866879859276 9.501989655787096 0.8426746902360777 -1.8875332197661945 -2.2479075234924575
Ni 6.297054332373897 0.6712589431516031 4.32497891341149 0.5911547237110722 0.656752821326856 -1.3949347937644816
Ni 8.177666348840123 5.1982372835847395 2.949889201040501 0.5323731347964895 1.9706621271768898 2.0653717974466494
Ni 7.819194662650398 0.1682022727459437 0.22476020270960248 -0.585199791679218 -0.6392595496380991 -0.9238117640277251
Ni 1.3179532852090927 2.6078522645424678 9.61426491622571 -0.9910502254604092 0.0355357310127646 0.9969089982340315
Ni 6.075615340116314 0.8880680856640636 9.932841825568014 0.6464969479268028 0.6075444779230053 -0.7019024212803009
Ni 3.0885853084374797 3.9035549374503997 4.842664635943468 0.9218453843299738 -0.6870319319263717 0.3440987064946913
Ni 1.1937355211214145 5.1189700623116074 4.492960271369758 -0.4715408340004653 -0.5799503703548206 0.7666463984259054
Ni 1.8622086913572307 7.373733098414948 11.622425268027724 -0.6330418508631613 0.790985232281586 0.9071461304465861
Ni 7.0451972381146275 3.857275161591358 7.76407080664742 0.15477861053719794 0.3056974810086735 -1.2779737682956893
Ni 5.441749033017811 8.121183305245168 5.154034668377624 -0.2915078197718528 -0.7425744450783662 0.23368242412295237
Ni 7.266542622411331 2.248903177752256 5.943483959015846 0.5512581446264506 -0.9564071814652432 1.2779758251782185
Ni 7.927274414282376 6.598200503320745 7.198926784028925 -0.9393093454426921 0.03263244132304057 1.610404294423833
Ni 0.4007141506960139 0.08278875276143512 10.3396910420201 0.11777169429554556 0.26649509977759905 0.4156221684559745
P 5.09329339864224 1.422635067861128 5.761555014886468 -1.5978015180581577 0.43720375128149214 1.7075040621923239
Ni 1.48631656364775 7.114673066679718 0.6325305214967462 0.7640984351930712 -0.10605723407209477 1.0757076537004895
P 8.847290896994762 8.433103752489298 8.368740790747472 1.8965590774138887 -0.20589522670735505 -0.891599955181871
Ni 7.2573596814490084 3.466518089694143 1.5055033873893109 0.9263075338663853 -1.5852105687670248 -0.6699960594900075
P -0.0061378739948975605 3.5523097858406065 2.414392691791899 2.3466407130993137 0.5875256115989173 -0.4267483602761231
P 6.454802468048769 5.769994708639403 4.419730763573382 -0.27357128989809015 0.25517427544814114 0.09209228725157043
P 4.854302913719669 7.885675036467331 9.401989207258667 0.5579602392369746 0.7526788805022198 0.14776207001004873
Ni 6.677898321213926 6.231847026824931 1.6296434568694589 1.0994456207473777 0.49770772220382026 0.37267189014669366
