# total energy = -340890.206552376 ev
CRYSTAL
PRIMVEC
9.06036389483557 0.00000000000000 0.00000000000000

0.00000000000000 9.06036389483557 0.00000000000000

0.00000000000000 0.00000000000000 13.26075839570924

PRIMCOORD
 96 1
Ni 6.413967344339767 1.769371239165832 11.30942408057799 -1.6981717290478042 0.2605800198447448 0.20038458130177103
Ni 4.713518291578224 0.33391698478692894 6.189418915396774 -0.2025751611951866 -0.38092230308094394 -0.6932984816613736
Ni 2.5302333987126997 1.4395015188283309 4.8211744386893605 0.8655778200864964 -0.03799164875242489 0.10649252183730046
Ni 3.3216289838126705 4.2543571817324795 4.789811989860854 0.47445235122030543 -0.7854000248843248 0.537978396798409
Ni 5.162006293025882 4.5039158385380205 2.8714584728323094 -0.08814050169267401 -0.05552194432670439 -0.4698536761060295
Ni 6.961439818834206 6.187177381425903 2.853847843975464 0.05329948275408885 -0.453169016361497 -0.1776488302671521
Ni 5.239001263456229 4.800235032221771 11.481655251606657 0.29753371425095854 0.008212617717779406 0.867476579771106
Ni 5.516203089805544 8.011907442588607 12.550975680076458 0.6394762936345953 0.13355492527173127 0.07239378038137856
Ni 2.186229511056848 6.33080226625314 0.3735895991695322 -1.4763870848037024 1.3954834671790999 1.2296128604937984
Ni 2.6082431298735953 1.6018813564433798 0.23447405733866813 0.9104528262223158 -0.3526345118798443 -0.8707094848861069
Ni 0.6266355899499662 0.09834571740835553 4.453917127685722 0.19715373306929918 0.26221935522038065 -0.01097295407173594
Ni 8.50421136272315 2.3432637341091875 1.1668760821665152 0.8367536967659523 0.658154329660073 0.3833854199094559
Ni 6.930317469642837 0.5993403383709518 4.606137579522524 -0.0004162616018121863 1.2647940363806216 1.1574463656318776
Ni 0.7507598540597131 7.16204533075446 2.3907418517897128 0.05879135910659552 -0.15825114246683067 0.5940927232934736
Ni 7.433901542541066 3.7871142274970104 3.7932924894805895 1.4432959586766885 0.6243646348041376 -0.7538433331239662
Ni 7.587021688489862 3.920799893383075 12.59049336224038 0.20983852762581928 0.40607077732211355 -0.38608970621449634
Ni 8.22877630728863 9.040992608092171 6.566130715885475 -0.40917101351399204 0.8577655231309291 0.2578150555050979
Ni 6.995742355672202 0.6659231388767809 0.39369998236171844 -0.778250301213421 -0.540145836763373 -0.08297901209639258
Ni 1.9519375670278585 6.108161949898124 9.422882406415768 -0.09413734270605723 0.48712506159196745 -1.5475086833408769
Ni 9.459653892352643 4.8249154628468895 1.3291127660356477 -1.1075037151651637 0.314959880147206 0.41970405183483206
Ni 6.352728346323914 1.972722041276766 6.861619980257455 1.2934548946504238 0.5853165197627404 0.38121360906911766
Ni 3.4910759050868942 4.3305185987055905 0.5580323283467061 1.259765987038411 -0.5270465803772536 0.09742372676681287
Ni 5.987396362599219 5.71616531590554 5.113798816070275 -1.460308691184601 0.026644856281037983 -1.9535419225568358
Ni 5.6040886173619535 2.9735660532346255 9.181722706728246 -0.625463010074639 -0.5512013232465862 0.533103842314927
P 0.1705314468049975 6.021970710347183 12.594710055490355 0.8419969474427629 -1.0243431831855843 0.6829955570734688
P 4.145904628655137 6.327187181150562 12.736016393255563 0.526975360819686 -0.5823039581886617 0.26143054077049815
P 2.298985736875355 8.445137791623377 1.426645768823198 0.3624802943256725 -0.7052008895259144 -1.0353611315626428
P 6.530166508351206 7.759956849775346 5.900944184574708 -1.4600708641421822 1.5236966685229436 -0.09364086268561292
P 4.629990798944974 1.0137278490903558 12.652553229204337 0.09620425253741496 0.4655162250729402 -1.3880300962248482
P 3.8735500968669228 6.141621872915219 8.308302743327149 0.6065378910353619 0.2034907310309205 -0.7676948942950779
P 4.4129769684263005 1.0419961837270566 3.933591314806182 1.7324928709271776 -0.9599725302189982 0.15769938372841874
P -0.15272058391114285 5.47673614567815 3.7486575139183325 1.1840729670804704 0.8334171761935518 -0.7577310982141466
Ni 1.6951849814718236 1.1733805172420564 2.4001437911655157 -0.8163131695234134 0.14319296258212758 1.0165951638090494
Ni 1.6370718089206062 6.637540878152341 4.9721210033947765 -0.3445167678687163 -0.8910047448000333 -0.4143371310959639
Ni 5.790614324145851 5.719019330460207 9.362387264256862 0.21751249923130925 0.9188071117242822 -0.8603350836303182
Ni 8.341559714198134 2.363060628718544 10.059545100834463 0.6690658343662541 1.2181441977325664 -0.3398329892398018
Ni 2.3597717167079275 5.005298243065504 7.170701602200584 -0.16676663613700957 0.7897361903658334 -0.5081692838567765
Ni 0.19194108614683214 0.21008627645994776 9.101176073740978 2.5321895149398324 -1.431899801024605 0.8587106606530179
Ni 1.4886992935325891 1.064339040526449 11.491865375421431 -1.2670828324147987 0.8507019314159283 -0.7154508493886969
Ni 4.215270772879041 6.874070732006736 1.9299045746658299 0.5261202119082423 -0.3114230706385411 -1.74472258022415
Ni 5.651936397880036 7.7337814591454 7.930847993017867 -0.7416156807095228 0.1783898221982347 0.3398651280293179
Ni 5.594883287877694 2.826996550216065 4.730828116361371 -1.7218073661888733 -0.29619185551108346 0.7587955349229191
Ni 0.6402940881758721 7.461762160812814 7.162971299921086 1.004507893627212 -0.822460420071732 0.410532412637893
Ni 5.048552419205123 4.491675287225783 7.130243454288172 0.882492593563964 1.8297682450415844 0.1602460614096724
Ni 7.971924057732274 7.204583738164495 9.00154831487394 0.0005779839906570691 0.19040972947724627 0.35352874155933955
Ni 4.502728930897826 0.10996563380949938 10.561067034962397 0.42896362275988703 1.1083951166311816 -1.3539928041344809
Ni 8.202836486113991 7.447392424039157 4.567641906380083 -0.07334431722010594 -1.48599581153806 0.6182232977930902
Ni 7.348842848448325 6.106558265529311 6.8594192179230795 1.873994047629179 -0.7084268526623798 1.9771150818910854
Ni 2.4108540470546322 5.308693580772096 2.6824792195677643 -0.25591758137206894 -0.5820177944068106 0.11068599109335776
Ni 2.6611918951354157 5.213777211011173 11.650968079498629 -0.8905874547569564 -1.5054012126478653 -1.196408605827688
Ni 1.193530766034371 3.1237143999011017 3.7578066691478647 -0.46633486431949367 1.6249474823453305 -0.1878854203934958
Ni 3.850201539700648 2.5296535354381007 2.5734223402339262 -1.0636972595031746 1.3437868101357566 -0.25093761165897427
Ni 1.197499205319908 3.2239492031337367 8.39431186956841 -1.1077983635874469 1.3436708533831827 -0.10974471022601101
Ni 3.9928297845246683 2.619188049181651 6.942868791428807 -2.121408219515927 -1.1930162923166874 -0.29472169872346016
Ni 3.9252575923065547 6.951255970074061 6.064847069321946 0.261708219911917 -0.33360372050063836 -0.116604927680954
Ni 0.6946571762058941 7.400722490797604 10.970837384357807 -0.31077283864905186 -0.012222767318437014 0.6520718709114189
P 0.14288737122485712 5.601008093715646 8.244081073592577 0.6196600302396167 -1.0620517534799516 -0.4632330854657183
P 8.644628878812764 1.7780329468301548 7.894434391445784 -0.8432801850305606 0.6941723996258948 -1.1098593598815338
P 1.8446809819543764 3.161188064022062 10.510078932397816 0.7100440765508287 0.07178854269721184 0.7164417525470564
P 4.053860394176212 6.046080338061369 3.9384050860217203 -0.027767914141887663 1.0906583614730507 0.6912979062915773
P 7.027643896138812 4.253070610091963 10.309217918222192 0.627654618409319 -0.18064545100163082 2.3508632358210932
P 6.456496691386137 8.017379902242634 10.28784180222592 -1.377504514103176 -0.6738385731645492 0.17701890999263709
P 2.2517631214501996 8.476776581543685 5.938100735967372 -0.06340263262636177 0.20548976373882027 -0.7056932557813008
P 6.91087392921644 3.850844825520906 1.5642391695582396 -0.44878477125087224 1.2088020943960345 -0.36949786329408624
Ni 5.511609485427081 2.7834796235301438 0.24719208981608384 -0.6931177331091354 0.6683083873749393 0.09263453290828563
Ni 1.691379628732268 1.2219531268533872 7.08238480133369 -1.1259506090164415 -0.1012875805975933 -0.48859418993832626
Ni 6.986310517096303 0.5828441342449769 8.755561253425382 -1.7001993010007943 0.05856767313156365 1.0375123735776905
Ni 2.6660210689691852 1.5159075656204135 9.212924787119873 0.8912587697923683 -0.3236306684483265 0.7358818635495391
Ni 6.313687239288804 1.8817197486193868 2.617448459357854 0.2206425602198587 -0.2472110547370065 -0.9700687381127358
Ni 3.8530374335279833 6.835219892608603 10.51417693488377 1.362942300018285 0.7816639548806602 -0.3093916420308091
Ni 7.951293609665681 7.0134553666384685 0.8831082102687335 1.2821299565559081 1.2345601771967447 -1.0478890888263241
Ni 7.4760956561318075 3.9751439546493996 8.263918739838427 1.8413351239435773 0.08016031170067485 -1.6526860859111796
Ni 2.9878180052806287 8.334891286540245 12.308582864894047 -0.24178679839764164 0.09350510843869703 1.0241799181348428
Ni 0.361638073458227 4.827398002491267 10.577563239088372 -1.5208111194450322 -0.2530718843931577 -0.08829451077203504
Ni 8.518753246406453 2.3293560758824774 5.549176471293796 0.36712139264210963 -0.1567889560990074 0.7028768693784282
Ni 3.9854184070462 2.9207531934277893 11.30669238093281 -0.913850024829323 -1.7928968259365314 0.719965963650231
Ni 1.1222438247133577 3.5143066775255165 12.607731610150568 -0.3322397502735762 -0.30834006083784316 -0.16053762450816225
Ni 3.0518294745781582 8.398658126018804 7.975815483926652 0.4957189739085656 -0.5406248332823206 1.2129834794672336
Ni 5.505394075952473 8.04169791832113 3.8873780238933757 -1.1004288105962532 -0.6978781306122562 -0.2993049472187684
Ni 2.9397255949435754 8.01070241422108 3.50125159951974 -0.290770427385196 1.3757001139045855 1.1047621478642844
Ni 3.5194892055422446 4.12000104893516 9.294425476401125 -0.13377604014360184 0.4783933381459245 -0.1730486124909794
Ni 7.35917166302712 6.333311986988514 11.617962080701181 -0.4319928965045141 0.08149548557233062 -1.1061351169524112
Ni 0.4357418818428785 9.137648567676889 0.4916289230414559 -0.021820952529833387 -0.3129690749694223 -0.7769333821742104
Ni 4.371498623565142 0.4846832482553999 1.4883876170224921 0.31417183702827184 -1.2829671077452227 0.4953387077510114
Ni 6.097778773137335 5.824635989710215 0.5027287745681938 -1.6373075465725804 -1.474244584539403 -0.0003586688909993823
Ni 8.01670943533138 9.03137956224296 11.304278700052292 0.5857613206096428 -0.944879640441618 0.25949270031783694
Ni 9.323386022821879 4.719996451599135 5.765790739774816 -0.40584863400897847 0.06051451244528933 0.6000643674958762
Ni 7.999005484728779 8.811239906259651 2.6406810438692094 -0.3195783527558238 0.4981062431938196 -1.3156296309752504
P 8.54775547050007 1.7944140843375762 3.3280926472517156 -0.17303035765853425 -1.255163455269393 0.7044915221637157
P 1.8788929151557168 3.16851789822754 1.439243298463861 -0.2632866201426304 0.9395525718017496 1.2277500962534469
P 4.719887727235148 1.1617560706590797 8.403276193379165 0.40755378962554323 -1.0949665019301014 -0.6742010987102904
P 8.39600343946478 1.8471363405077563 12.177831850799274 1.1414942131779955 -0.1493849503254524 1.9429561766211894
P 6.032426370017296 8.072004834782593 1.6442811402893314 1.8409715699565712 -0.6531620186518041 -0.2504447311829558
P 1.8778962751524997 3.1993593761452734 6.077405639398847 -0.10789788682525935 -0.5273571696391369 -0.2479890705536116
P 7.013301340456153 4.04371278687073 6.010199485872824 -0.0325895039002471 -0.6478532048443811 0.4106239439104347
P 2.293467975402999 8.550473579599752 10.133300991254357 -0.04061725930073005 -0.10377229469265999 -0.11231812738014205
