# total energy = -340859.56632584025 ev
CRYSTAL
PRIMVEC
9.34588702172467 0.00000000000000 0.00000000000000
0.00000000000000 9.34588702172467 0.00000000000000
0.00000000000000 0.00000000000000 13.67865035303516
PRIMCOORD
 96 1
Ni 2.2514054984084595 3.0221514574793 4.8766717126849795 0.006218727216202193 -1.9619864537797629 0.8039924431745314
Ni 6.153135769647998 5.669710416134577 1.0039361214272704 -0.1722178890595679 -0.34336774186593766 0.4157041866468195
Ni 7.33423159139358 7.1367716898154265 9.092649959248455 -0.025422553838162668 -0.08232132390773564 -0.20199537743231663
Ni 3.3962579701767575 8.918069723755755 0.7761133020032679 -1.4722206121308388 0.598880117379788 -0.08725295688139811
Ni 2.7966538947531694 7.298287309801873 11.571782949033013 0.04189304068936011 -0.37200468887634 0.7311818869707085
Ni 6.858572670018149 7.543205625816503 2.224805234688669 -0.08750158255709446 1.243697877831955 -0.08540459081874968
Ni 1.8615698578069864 3.946487724318758 2.5789180912215044 -1.6114787584349344 -2.1295285346302166 -2.391246010513514
Ni 3.0409740739966415 3.9767683983585735 8.5482268047302 1.123558197524865 0.14418283729922265 -0.1928473923844614
Ni 4.331977527442295 6.202351210849747 12.909143871420731 -0.08064265065373208 -0.24197551736968004 0.1718913589580846
Ni 1.525902978543405 6.590289636380206 5.306796537767391 0.5157638083745828 0.38478512847045987 0.7655955885638879
Ni 6.647009824882564 3.9389082099217547 6.901125428342435 2.036942595571679 0.45970013261179543 -0.27813474089905643
Ni 1.9514118700121543 5.532615599008017 10.182414968981911 1.321069571043899 -0.017874052066943414 1.1102414258113007
Ni 4.093190113332024 6.672477367091976 5.944139305096157 -1.4918892942043598 -3.88306511360157 0.38708369469664944
Ni 1.328938408978866 4.613914902059303 12.688261307719557 1.9126464698940542 0.8397120080633279 -0.9024122153060264
Ni 4.919553446233401 8.139295647709544 10.616602451164665 1.4244112059570435 0.18902493331457768 0.4012479020121735
Ni 7.773086409568767 8.57567380581666 13.522098546494282 1.42697562425011 -1.3590396225297692 -1.8956154825536966
Ni 9.153277663126135 1.2786762284275925 0.46098027117575996 0.45569126856271847 0.6343217460168495 -0.9680151980178165
Ni 9.268774135281701 2.583530286480346 4.374035888341671 -0.4800748396134055 -1.825485044285198 -0.5702714525041598
Ni 0.48456835549955307 4.5716808384834 6.641695753506317 -0.28637075565560355 -1.6013740659007647 -0.2282283429869166
Ni 6.8968721151462855 2.66082077237827 12.806978372552324 -0.4264544831847882 0.36272454912599467 1.2166143913516017
Ni 0.5824254004382227 0.17919803828377073 4.306709052627033 -0.28448716547964553 0.030155183427141616 0.7342456134976968
Ni 3.1098065321149253 4.967525884457589 1.0132838776540058 0.3810351745097244 0.38822706427247333 -0.9347302107124419
Ni 6.627850756431447 3.081694103870553 1.7248227076786629 -0.13784789622013036 -0.9794077561254746 -0.8474561707851211
Ni 3.065871517096045 1.00788849706043 8.170024924327727 0.10167453162336682 -1.4718020365361815 -1.6695124134398986
P 7.280427319650612 0.5464530811853681 1.1826724728908045 -1.6846058174379115 2.057191318518386 1.822562214211448
P 5.161649304359133 4.302005267675107 13.395488880048362 -0.9245460710905883 -2.28638613918363 0.9981834940710809
P 0.8868629981264823 2.028702355910078 2.1217500073731643 0.7199693060843406 -0.6191972316705853 1.036499101821828
P 3.373566156420995 1.0893659403564515 6.0722265562845745 -1.3072956571882584 0.3163678162383261 0.1570864327347682
P 7.189557259870019 3.589530914356813 10.195491734141328 0.41482204115218235 -0.9348682789522028 1.4221650902353442
P 0.408714332441111 8.344643477957328 6.652242587041481 1.5815696295803279 0.2786811003208297 -1.7894903713581438
P 7.068799053305681 7.1876600447990056 11.258897604040868 0.2482749772251466 0.36534321769576433 1.3555035843520526
P 0.41566954158321917 6.62170116275299 9.325584044299733 -3.445337114385492 0.6289548252779813 0.0850016989533762
Ni 8.776526264393718 3.7561587345592407 2.0006394608670672 0.8212219196789405 -0.14574169714591031 -0.38102977519308573
Ni 7.1206593805423894 0.40200959307192474 3.388297143588142 -0.5771296130765738 0.013678525928357086 0.43819311177795495
Ni 0.9462523719701272 3.519829288742942 9.637717045384406 -0.852670367996209 -1.596962052875998 -0.058283566232241554
Ni 6.029452300437221 1.5373610360658785 6.586352214166325 -0.43978462463479095 0.19670764667081608 2.0022712694417386
Ni 8.074687530537556 5.838637324551138 3.020998175017413 -1.0501565447042622 -2.2632649797851343 -0.9080989812781587
Ni 1.7419892330108644 2.0601793034922067 12.108587336428657 2.3939227860147287 -0.8589312613042561 0.6777289093578909
Ni 3.2368825583246066 7.975602436040604 4.4495422444018775 -0.3466284148950804 1.623956322076655 -1.0709279729236587
Ni 8.042995627553292 6.355791984425575 13.1942756702312 0.09077485399172755 -1.3868157642017729 0.08394343289219092
Ni 5.446848393556356 8.159828561556912 13.488298211391688 0.64545976491154 0.3193346121761339 0.32933466081163926
Ni 5.197845924901172 5.662813151492174 3.310862731029659 0.9496089275964872 2.5468198632584977 0.6617456465557571
Ni 3.420454471747462 2.0022721873345843 9.927103091979726 0.5708553500320878 1.6293042166521297 3.1920371731419284
Ni 8.10484670804573 4.540231928562419 8.51463114455399 0.9517072048864126 0.6251984435593426 0.7987967579062049
Ni 9.033762459539357 8.918723935849208 2.086007596941723 -0.5303545617045641 -0.4417368632651554 0.5812978855216505
Ni 6.518008545940722 4.890403624526553 11.883341178064153 1.583177597497396 2.139651481996831 0.6350557959693967
Ni 6.006059545152759 3.542502410724606 4.456134833126471 1.4325513185656746 0.2349497208711502 -0.5763053174030656
Ni 2.0690765879631647 9.315886751897352 10.14793051494731 0.7675285439205427 -1.2572326790935962 1.05524655763266
Ni 8.68128232947404 7.281604901418827 4.647266634583526 -0.37193938285604333 1.2440493476341026 0.8576020009698715
Ni 7.77650700422882 1.3007044842028532 9.107122065344335 -0.11282643447512826 0.6354296343690476 -0.05870625559195697
Ni 3.7512427979712952 0.0561061637232169 12.20652662517336 -0.1606399544139814 1.1330352837773647 0.8857578945787972
Ni 1.8853084109122735 6.05413478813449 7.810140047953229 0.8918202987227931 1.224937309395 -0.05722709994326919
Ni 4.787168956179702 1.1813855442441121 4.6301543153962115 1.4469350980911726 1.0184952090452395 -2.3709186118100716
Ni 2.7012417338666035 8.446999632921543 6.895749674111662 -1.38883690839686 -0.5822113984748554 0.20151509536178844
Ni 0.48471228216011264 7.048696050262581 11.734216335127703 0.692523294058246 0.7269218261427739 0.70951468640992
Ni 4.765738837175598 2.0369921577228296 13.517091954801957 -0.01881276183112889 -0.27297479396467184 0.623463720256423
P 9.076351666823134 2.5584739633011044 7.497965924965537 0.04231264472528196 1.3739911016332789 1.119525679326704
P 2.9529918933142896 4.714757023321527 6.385796020208731 -1.8316479785628001 0.8832217584205047 -0.2783450571376496
P 2.843102953388318 3.771523372868332 11.169562138913772 0.08067298967103526 0.1507985428435274 -0.3151514273327218
P 3.991731163524544 6.924461173715895 1.3512059194625896 0.8507836924964574 0.14731726916314627 0.23677186168155356
P 1.7491014530554012 8.93822880212115 12.628663520594714 -1.0378756704543801 0.29884883351795627 1.0098814992342995
P 7.796890383883399 5.1911262321127065 5.177437311351559 0.548299576218759 -0.48716157125685783 0.5969733872753784
P 5.79245929664042 5.401464766044831 8.769546755945282 1.0968580625258595 -0.8378443587269699 -2.3063749236007314
P 6.828002273479806 8.837424064407124 7.113158371596601 -0.20877254825515015 -0.5620673194268125 1.7699294185070809
Ni 7.125360361728201 0.4396641719936579 11.586555992691883 -0.658302425202163 0.2371043053203078 -0.4115603396817751
Ni 8.653982993402959 5.266622307697159 11.022366287064305 0.3941727403329469 -0.8757066809903821 -1.5419376170110024
Ni 4.593251145793244 3.7404015689940775 2.4681618529773557 -1.7613977268869858 -0.7917431934935333 -0.9402688811424839
Ni 4.789524119716132 8.630150981427178 2.6644236118357854 -0.21533297508148722 0.3762801763232423 0.6096823502016145
Ni 8.91163040757877 2.4102295029247003 12.063721471059663 -0.6882856018278146 0.14649477326185092 -2.1288160819442243
Ni 8.895256413468351 8.710291962875147 10.43027163188485 -0.11606165358297431 -0.5933501887004943 -1.149947229041355
Ni 8.74932038719313 6.610916009098068 7.1402689207492855 -0.5191882606750994 -0.6164548930387577 0.17571253247638768
Ni 4.917357162776809 7.369316051376749 8.132080622907464 -0.667460180442031 -0.3103558057162913 0.8519417173603006
Ni 1.8493547834335178 8.446700564535965 2.6729040697443436 1.5829238296153771 -0.5744721208490686 -0.8100893001008888
Ni 5.100368322976705 3.3270329848024023 11.332734784674065 -2.14374056446454 -1.7700070658225517 -0.5569495385842731
Ni 4.89309523999676 5.9615637769109195 10.551738256687525 -1.1378108507891371 -1.4566548964820978 -0.5131875630069742
Ni 5.581896461419113 2.834570158512284 8.936139061776922 -0.24540382632493865 0.5438232856149602 -0.8642984391534405
Ni 2.67800785866198 1.1454973379747015 3.3101515090252054 0.20980561750535479 0.9440900546607869 -0.49124062642223787
Ni 0.9003958425739058 7.531607379988289 0.4382875228312923 -0.04445900164432343 -0.24490117565690722 0.11992756429628379
Ni 3.072787473512546 4.790767122693693 4.003262118966002 2.5636611031855527 3.8221358822163656 2.1092307036131284
Ni 5.227435003299337 0.4039348458040858 8.73359967058746 1.2771044783168586 -0.06466710116108217 -0.3451418030472249
Ni 4.917058094391231 8.733208077920093 6.057426409553263 1.084048569466017 0.48315450697999374 1.033493996446917
Ni 2.6769143898772088 2.443341980740461 0.7353110283233217 -0.8021271078310186 -0.11394692123281666 0.8107526447165005
Ni 4.663130343261052 3.600755324703053 6.311000886152978 -2.7420195579252193 -1.2927167309328187 -0.15745744292094171
Ni 6.266800447941897 6.30250173647032 6.395507331441685 1.955074042930646 0.6663173250868395 -0.11693531443717925
Ni 1.853523049057517 2.5102772237877313 7.08149170250737 -0.7330341096880988 0.5595036724646945 0.03505262072875899
Ni 8.57870187322064 0.8408728225454554 6.367986497847535 -0.2474172572105416 -0.8037301906520803 0.17745394064752665
Ni 0.5530213706036341 4.674223911188602 4.272471330010533 -0.8746892954694614 2.3293114777922463 -0.3485153475051482
Ni 0.6382352995419759 0.49652361421305047 8.243383595544 0.6803815164893895 0.4817910509735638 0.47634314048511506
P 0.5686654509355004 1.3048353662786552 10.418959370200346 -2.040501773677847 1.4814953525645453 -0.7806285716376103
P 8.930163301597583 3.996114384550678 13.470119526492047 -2.0500585641283466 0.198850918266064 1.3205046996793646
P 0.5637878324844573 6.8218713715754475 2.6621525612827988 -0.15286391001298835 -0.5142897949322175 0.36070237648964326
P 4.799150383376937 1.6587734547236683 2.50648933576664 -0.31074404229364544 -1.0780514713423175 -1.1212920271985076
P 5.859927255249501 7.578832147248532 4.481892097834413 -0.037648663590709355 -0.3115526542378699 -1.3473297902920085
P 3.066432270319005 7.538756983581023 9.501025970578379 0.9108606031836959 -1.1094189299100055 -2.13616223789665
P 5.077947539945373 0.8674693479104265 10.866511470863633 1.4340770111815817 2.581264932310245 -0.5197415620754081
P 7.34101670539139 1.8161114631990662 5.043249999686045 -0.626622834710695 1.384432608681577 -2.4567029545657433
