# total energy = -381166.1416820519 ev
CRYSTAL
PRIMVEC
9.33473563533483 0.00000000000000 0.00000000000000
0.00000000000000 9.33473563533483 0.00000000000000
0.00000000000000 0.00000000000000 13.66232917185109
PRIMCOORD
 96 1
Ni 1.490430575223414 8.581375853505829 5.612006696176827 -0.8611290402865234 0.23772574095439059 -0.980786381640556
Ni 8.22560107184742 8.908689026020994 0.39223905971556194 0.20213755943713574 0.8669286776874359 0.544948400358339
Ni 6.569516276927049 5.432638816265917 9.60094275717645 -0.20575613002632953 -0.21831571185889498 -0.6635672731455281
Ni 5.515297900871832 3.430039297499566 1.091870032493157 0.3183365099289227 -3.0869636431393417 0.9418714497429134
Ni 7.624033364524602 1.803237568463865 1.20349013460216 -0.16798045393945263 -0.47886924934107855 1.7312589985200764
Ni 7.704638807276954 1.7454742239645538 5.768371920380691 -0.6602330665659726 1.000305168399774 1.8162642970178784
Ni 0.6954294082399188 4.278594776656138 7.972215272166247 0.11676922117296018 -0.1286844845533074 -1.17172755814124
Ni 2.2167663598858875 1.4640692816122223 10.79774828754526 -0.06893744640166193 -0.268214396461551 -0.670537019595142
Ni 7.744572806593058 4.839285676357352 7.465452074066031 0.8182173285246618 0.03246172007313119 -0.651000235113795
Ni 2.9068180268901807 8.262996023053665 9.856742519509128 0.20640121980949616 1.6683973259988492 -1.0406951421810464
Ni 8.101915823848735 2.346164466131758 8.115819912670926 0.8158148897307562 0.24307260708860073 0.310812947858368
Ni 7.83899365817847 7.136013382232427 1.9626617855559678 -0.3061412534143114 1.2348671669142022 0.4316954198687533
Ni 5.483541130027188 0.8071391238116227 13.596626898612165 -0.5708113841680298 0.253006578372861 1.0262355151122906
Ni 0.6453998922664125 1.4371012301806596 4.929941829035755 0.5777785595144823 -0.5164652053169815 -0.44543513805234897
Ni 1.0658867956777347 5.183476051014527 1.7879071320270163 3.0888891422968285 0.5321209095763675 -0.1363643696960684
Ni 2.770297517306725 3.60811805041058 1.2538230294858517 -0.4138229104637066 -1.2454503417466873 -0.14502461647422765
Ni 1.7333390675571356 6.538683644916508 8.380623027584338 -0.4537423723664637 0.5175998331420569 -0.43875155538458627
Ni 3.680527595220075 8.06560370198346 0.33589926241019813 2.3504577728525584 -0.2289413098935412 -0.5668038056705336
Ni 1.1980106447474257 4.766185361106204 4.28333122154931 1.1980132313106464 0.027349338547230317 -0.7992983801329717
Ni 7.3689803810477645 2.7753289398479546 12.840676664947743 0.1703540963779518 -0.3403256126055042 -0.4994355035282044
Ni 4.243477500960209 3.450379686585539 5.677476798468418 1.761462004466018 -1.303538247028355 -1.4802216280584441
Ni -0.17606058305310346 5.8838519357008225 13.49272475597828 0.26660899964764406 -0.12247938418386004 0.680220308321177
Ni 0.8110802492233243 6.267313543439542 6.260585065948413 -1.0383243279560246 -0.2708243232805723 0.34510143672759275
Ni 7.062763711210112 0.47945442881567707 11.895298506710658 -0.160201324214666 0.16017715584494996 0.04372855123620211
P 0.8605431467399611 6.625272653251287 10.346809609339878 -1.3320674648162996 2.0895535368991753 1.2073072550180626
Ni 8.68026804349059 7.696237545148741 12.089385397870197 0.46270343821449345 0.14931938719483961 -1.7454072649960004
P 4.521325909011597 4.949864955436027 8.681331269886593 -0.5275469170524398 1.310146753483808 -2.8793406351076025
Ni 0.560602219712083 9.08694513891027 10.360881723404635 0.017937301204711043 -1.084946398689938 -0.18653867655761422
P 4.699077946173181 6.283929372982007 12.447926061715929 0.8493209919080018 0.15799814591576017 -0.04741962693454414
P 4.001035745411388 2.579663544881882 13.43655951823047 -0.5077969881190222 -0.5979360082989638 -0.3184671219695161
P 2.258091234820996 6.444412149102265 0.11735909761614209 -1.388181534201048 -0.5662242790179797 1.511144799999862
Ni 5.032430692684961 2.2621051711711417 3.5324637514724557 -0.3767139214265512 0.7782837255545176 -0.3142224877605492
Ni 6.416650645136371 7.609928578884904 13.119401604681174 0.10531804191322507 -0.615367830622166 -0.32138069607188524
Ni 3.852510765720286 6.308554405753369 10.484922624833414 1.2774245806604387 -0.29203052504454224 -0.14505444127089856
Ni 6.871448303079314 7.622950535183632 4.604450796928842 -0.2909079814043248 1.7178712643592606 0.265727111263323
Ni 7.702603834894786 0.1295259921249336 8.915612599488211 0.3880447730583381 -0.36051622862076627 1.0705831879897305
Ni 8.567215059451943 1.6362018078836014 10.579014893722256 0.5685578122471627 2.2196076481065 0.18786485156820548
Ni 5.538093325446382 1.0625262908264497 5.45232110648518 -1.2124229789780734 0.4116770677652974 -1.4812220442985007
Ni 1.9831645990430857 9.135121709847722 3.1976818569253096 -0.2778264656300183 -0.355925009705658 0.3398427594318147
Ni 4.5511690590381475 8.835822079162297 3.1736906527078435 -0.18733751830982576 -1.3625579200956728 1.0786286840020263
Ni 3.545593990705282 1.1128031772959535 2.1622272330966705 -0.5080106467917251 1.4190957072814012 -2.4833164433882136
Ni 2.7388954664186054 6.733667604176626 4.912358920874976 0.9229172772379137 0.43574490734777854 -0.15055428804320523
Ni 6.612950802129909 6.769064921943495 6.937771600213703 -0.2762190119335824 0.2770250527746455 0.04722602286649931
Ni 4.307999194104882 5.376079652671651 0.7238592792817904 -1.4846503532537592 1.3432620479805382 -0.09364549067130325
Ni 3.39528607649586 5.165497350060152 3.0575469376795827 0.452247275878176 -3.2035536584219604 1.649529799670385
Ni 7.395117641002204 2.7940450849224727 3.7036796066982896 0.261224338296963 0.9098079935494653 -0.6515969881575294
Ni 5.76250037162664 6.707754377878939 2.7880988582828374 -1.7302842933116331 1.9685121707134225 -0.04188635582114076
Ni 3.121227571137865 7.028897290097716 2.2798738405723116 -1.4438706002332358 2.3283804813375446 0.07294965288484857
Ni 2.214133964419047 7.721151954726741 11.988106315967453 -0.9843363037753434 -0.16267472545582307 0.35276872346486343
Ni 7.845313274246026 5.604790012008693 4.797622883989976 0.42504526154208727 -0.9149450576657145 0.1567979549600719
Ni 8.087166941445872 7.111388349461067 8.937172105056344 1.0785230116620974 -0.32559319149133603 0.34354386243248575
Ni 0.15604130887514253 4.658770557429156 11.34314889017313 -0.573480960580393 -0.37963932260346234 0.08385190161964913
Ni 4.974265954550636 5.819162217313585 5.173172369751058 0.8327101228241982 0.14522567674144019 -0.11826971697788666
Ni 8.402410300703504 4.970849441285162 2.284642023566857 -1.7464339064883019 -1.3237154933071784 2.2268247346802292
Ni 9.18805899599116 3.448615421538614 0.5785081097280136 -0.01870734660151617 0.5631600382703592 -0.3484988924449159
Ni 0.7547227159201343 1.1028430143061723 1.1986930139269505 -0.6791520149576626 -0.23225314787559356 0.7712389028925943
P 4.617921754014646 8.242440935046638 5.355031690619768 8.51035146385631e-05 -0.416522825893373 0.478524207296834
Ni 4.826282389530019 8.355811300099019 11.496194682362777 -0.1455061840963365 0.40623018571811326 -0.25208046701416587
P 1.2499024404926857 3.107710873847141 9.60816970955385 -0.565656836550284 -2.2299933622161983 0.9773822410550136
Ni 2.4719220254554037 0.5350819857872824 13.562458032063155 1.0032066583172854 1.3315563295078359 -1.3557653226538715
P 5.97923426506313 8.492126445497117 1.275467481148837 -0.06994531884088599 0.47065611740266683 2.4349084843984707
P 6.9603149869244065 8.177993919787548 10.58322299257492 -0.05282434288988322 -0.9806837946244208 -0.19229511942541722
P 8.28637953597719 9.235600804901145 5.246006645034813 0.8139811789561272 -2.1048076348447684 -0.464056095587646
Ni 4.770143289042162 3.9709125533138967 10.373861673392721 1.5106298080366565 -1.8658464788213802 0.5038662856060484
Ni 3.004076638127789 3.659487100956752 11.6304813896937 -0.519039650912377 -0.7228965070334646 1.7360366224143777
Ni 4.202264642853477 0.7016295396905398 7.37332663398876 -0.5049921716803755 -0.13131343753572222 0.8237539420721749
Ni 5.998305130094173 1.4675231338204873 9.51022406176887 -0.24867555509767494 0.8482300728366682 -0.2133858786574454
Ni 9.033671802281706 8.7540124555049 7.281993712972251 0.7674023027553235 -0.10103021317114859 -1.1197192833947491
Ni 6.260835236865121 9.1803485043046 7.100790624023111 1.9276745678717704 -1.1066354536275973 -0.06665867766981423
Ni 0.43025757126643355 2.840037327706588 2.7129561028609643 -0.6569875630454814 0.24564962378715757 0.8450259640770736
Ni 6.010178913902046 3.34221810405265 7.728328499531373 -1.34390148133675 -0.3202190716636163 -0.32958020116354203
Ni 1.343595182693653 1.6025687551636567 7.664922307302613 -0.6385884917130034 0.011643754886515431 -0.08967390761806492
Ni 7.194196789838149 5.642343653721803 11.993407512370357 0.7471288972182681 1.4743489713277511 0.26392168262346805
Ni 4.642602795200196 1.6226384369143871 11.462407606503817 -0.058880576386292134 0.3519788805737164 0.5197045381898855
Ni 5.494462770793865 7.976970386530815 8.933127364078395 0.161972814292792 -0.16563072276035345 1.0289711688758987
Ni 0.6512303681833921 7.5556190865938575 1.6325528596992476 1.7755110263599163 0.7744720651179113 -0.5769100408665999
Ni 3.107533513868878 1.2099217674980918 5.392220344167086 -0.7171030402801392 -0.3876220836986228 -0.10460173257249082
Ni 2.086406775863121 4.997686806416953 10.011003694286659 1.1181395976124548 -1.4761274033844127 -0.7562424294837621
Ni 3.9989727688221266 6.76476160878671 7.41572126963486 1.1958288220648177 1.9384330919398554 0.387898477288461
Ni 5.712372840928305 4.599765693082009 3.04646753987961 0.35651944875654723 -1.992798296954297 1.3520667907563617
Ni 3.0065876820305544 4.965715336651254 6.753754088451613 -0.9572196500642095 1.5890050028124503 0.47915644156419407
Ni 2.5693019882570862 2.595065858783605 3.5998866804720713 -0.04979326937304328 1.071207966057923 0.22845100052068398
Ni 9.189337854781787 3.528455415963728 5.455928048358893 -0.5078121576276738 0.5919011149587936 1.6109894775033415
Ni 5.585868502748818 4.188962644483807 12.61520732584505 -1.4293397536069123 -0.012299386192643334 -0.6979233820278948
Ni 0.4864069399635579 6.905473414698575 4.026643725851749 -0.45544264288702213 1.255463245897999 -1.3856914207893427
Ni 2.2345303619192083 8.647923184296973 7.692177868593674 0.05170514168377547 0.9286025005481491 0.05563764396896224
Ni 3.31735036815314 2.952754261260108 8.066143249706805 0.767295344863814 0.2819402306880757 1.4243808669397404
Ni 1.0920707293106642 2.545769119562393 12.542755774724913 -0.5574082233882465 0.32807379182134466 0.45763399411138606
P 2.0715272071604867 3.2710314096195945 6.25341225503806 -2.099289790350333 -2.6490384403107927 -1.6857183337758002
Ni 6.620175887560171 5.4252177013859955 1.009392041759784 0.7034134586081885 0.24083291912480462 -2.2239726099434147
P 3.859567825907985 1.0245805902140226 9.445861059131062 -0.1000025432375826 -0.5417977705444992 0.16736544606327303
Ni 6.5907808048471255 0.487393621526838 3.27486051820292 0.9529670454354425 -0.026336323901683677 -0.72280317598871
P 0.42226423708822414 0.5287670370875759 12.698165121993302 -0.47166501828315543 -0.9539366084375636 -1.0120306843668183
P 7.391999839279067 3.824002482898551 10.959770361582121 -0.2805893730871361 -0.9694051363868078 -0.9767865164525436
P 6.67522282397136 3.9494706654155585 5.55615510554847 -0.7428161287755272 -0.06060218706308918 0.19650710062423576
Ni 8.901081216427112 9.243684686015625 3.124697292396817 0.2398294175609547 0.0635844096198647 0.03221566550059613
