# total energy = -340861.1675450293 ev
CRYSTAL
PRIMVEC
9.31779648372214 0.00000000000000 0.00000000000000

0.00000000000000 9.31779648372214 0.00000000000000

0.00000000000000 0.00000000000000 13.63753701123173

PRIMCOORD
 96 1
Ni 7.342004109811902 2.070004334028432 7.556245402646738 -0.3563425568590508 -0.3962329652960853 -0.07096141881022618
Ni 8.088080052058146 1.7631693049517638 4.654668755500641 -1.3108792607744584 0.05806682223574516 -0.3328840687257944
Ni 8.877409204294487 5.849824271930796 10.986045121394643 -0.7489996318784198 0.7317974090675203 -1.5169840323894583
Ni 7.572880464214019 0.07237225491470962 5.957148512195323 -0.19774431546544652 -1.556352506884752 0.8522350802310033
Ni 9.17010913652605 2.713938594260147 9.362741528178628 -0.4450229902155948 2.780254690147018 0.13242132588792033
Ni 1.1482506621067705 5.299580452554407 1.8896984549772966 1.1214439793953395 0.33673583837171683 0.7291571432311958
Ni 7.170640519780047 4.365107988811014 2.5860182972609986 -0.4380038785852844 -2.542423276852699 1.0874781639728563
Ni 4.976150428434145 8.775528420573737 13.299816980876741 -0.344500055698168 1.182104273389874 -0.39928743585169296
Ni 5.454973339888497 0.16485231404282497 10.771554111621477 -0.5574367626333367 -1.508817437418266 -0.9324445000020586
Ni 3.33612511814613 5.135764277449733 5.687452355238114 -0.262177960459484 -1.1438408590333011 -0.7115209182066714
Ni 0.7338435393864853 0.808023446765236 5.067394947785292 0.7474731679315644 -0.8926492223819916 2.2870320002977453
Ni 4.708226516315393 3.060104041124019 8.526255941121331 0.132264745705398 -0.5796922315974274 -0.4423750110697865
Ni 2.0241887300815753 3.2435341772431587 12.010373752854429 2.605864990247112 -0.8990754376233097 1.1604666405154402
Ni 5.041337730694101 8.620396431533427 5.398227960991537 1.0477150251423053 1.6375479447181602 -0.739752659358855
Ni 8.278675573460006 7.012629331711959 5.883697256479913 -1.5638467583792681 -0.5505048114001939 -1.587160493404544
Ni 4.005767178111295 0.6608227658558103 8.842824340115202 -0.24953533199480896 0.41954644321104523 -0.17685358805936638
Ni 9.253000251578161 3.67911319650362 11.504039116321069 -1.0119592076989345 0.8015244412500131 -0.1657263677979533
Ni 4.266059815137009 6.847182542271166 6.671046377022393 0.19610575142075903 1.1955999938834636 0.26322748476992086
Ni 3.53929034663042 7.024192716804099 12.37152314779781 1.6364765660308525 -1.4422698314050193 -0.847975533623701
Ni 8.343266536762753 5.956848479157477 1.9138641594385883 0.7119502924346061 2.6874239820675268 0.10167221763052167
Ni 6.8328797250943465 0.8548556222782102 0.7004643980363077 -0.9376936642161399 -0.585765691485017 -0.7280184016410622
Ni 2.981461841142024 0.12194665785122663 4.454469381548847 0.7507063301568814 3.0739536040329187 -0.4799681388322121
Ni 6.370856800200128 5.476273822016322 0.8911512338409902 -1.8723709102034591 1.9905727500578878 1.0406118384386207
Ni 3.521027466065881 2.7904190655222574 6.184772955721406 -1.509900900290432 0.47489432385373054 1.9308257119062424
P 2.2576647496252766 3.2597750960309093 4.529039704588646 -0.5649839788529754 0.6148708363810894 -1.081068918012403
P 4.783626123217561 7.214229170433574 10.673650163321618 0.36314363894128426 0.8644395927169951 -0.46455026161524515
P 4.9263374899147445 7.077593006862962 0.8984489318298408 -0.3610494754164169 0.173343775133895 1.0265651305375676
P 2.8630699225435383 0.640253730730188 1.5463330058734477 -0.1766754106102893 1.0648264880116112 -0.3734673894647955
P 5.355170424721774 6.731362335425645 4.731543369542282 -0.43854715268326405 -2.895486905850162 -0.6689665897842285
P 6.550904576296347 4.629081155338254 10.742709941684954 0.6635803857716507 0.5730582712206777 1.041621767760374
P 4.404158872712025 0.8184332886870231 6.695948187383991 -0.7015401528448756 0.25895945352218624 0.9780813240045672
P 7.3277571994123205 7.558409926705483 11.557062035633574 1.0088276040484883 -0.35864986483598876 1.1299409611227573
Ni 2.7694447062616567 7.8326419868559665 0.6720115755404524 -0.4091774412718953 0.8326124209040692 1.1748169956998413
Ni 5.015005638614823 1.8431998565685115 4.906717938222553 1.6930773452440324 -0.37376280921802724 -0.9257406056193218
Ni 5.7678463009069105 6.165837330270765 12.386810856033646 0.326734761294947 -0.47778604357922877 -1.1992866987064315
Ni 1.5169092690128856 4.019408431757461 7.372642887297779 0.5686686267934141 -0.3707160519719035 0.15231575081900217
Ni 3.0130305346892987 8.568095641426918 10.425214421968546 -0.159383456299061 -1.7380073729875034 -0.4421927198556514
Ni 0.4001294635932225 0.08769071187802704 12.850991782529265 0.3167509106093577 -0.6156406246675784 -0.611736918737798
Ni 0.9875093597502081 1.774732690043903 3.068650323804526 1.6873023904334683 1.1047662616293425 -0.2720728509756927
Ni 2.6054794464176805 6.207124485261312 8.779219199651092 1.5041398294369386 0.6030877277032324 -2.0197640269098636
Ni 0.7757279651138624 6.212174730805179 6.9595756636719734 0.7289082604451834 -0.2772181426220581 1.7444436155311507
Ni 8.226095249467305 5.706852006939833 13.053195414445057 -0.2871909375640538 -1.653309064207159 1.0047752883559857
Ni 7.385322544375444 4.514733160293344 8.75693475824387 0.26061447262710596 0.7068484524316665 1.2353556765148466
Ni 0.4836131904840611 7.165767312364101 0.3474531662995958 0.14858739412482153 0.9862366061218498 0.5729217456428132
Ni 6.114049018955608 9.009889630757046 7.860662463607845 -0.0843236990497451 0.21052964015557293 -0.6955836781511245
Ni 8.360411281782525 3.983292653661465 6.688352319916535 2.5388748973798085 0.3594394506168197 -1.1242508527165154
Ni 2.7704789816405664 0.6939149190828309 12.05556879157394 -0.2687219322255888 0.8787310696390027 1.0786212278028584
Ni 2.0449487800294293 5.411803990064258 10.82332192378498 0.9434539637386848 1.3488853077045866 2.8386976647752595
Ni 1.133286281399296 5.289396101300815 4.960162953703209 -0.42336761672934825 -0.3040866848781279 -1.645582899207495
Ni 8.67842766630687 3.719216991375955 4.184951194499181 1.7208717417484816 2.453892995920774 -0.7954954614471139
Ni 3.7303144866577744 5.128869108257 0.29182965006588557 0.5243296956667228 0.15077797401823712 0.483160934737897
Ni 3.4651859134009415 5.123390244087637 3.047198893378158 -1.0776305817548149 -1.2403675279071413 -0.6565216791526564
Ni 3.6553900873621323 7.394398077880475 2.9472627337256836 0.6683099300368363 -0.34382231290485304 0.3018912198887059
Ni 3.709312174008555 2.5885490107106564 2.804600751348394 -2.060352746965503 -1.029095096048273 1.0013184401556368
Ni 4.59122294935166 0.18376930390105306 2.8445992551235966 1.0389650468638172 0.8151350900549124 -1.1521316382871836
Ni 8.165371171590213 1.9727265416336424 2.0964435807640847 1.0804724220789845 0.7039593038093295 0.8864927158622927
P 8.845169629420353 8.878704377967177 1.4211130062149135 -0.23388579838301007 0.7354159796567141 -0.7539394923821983
P 6.74389477132325 3.4085337124660446 5.2435236587971 1.0569404003953153 -1.132895929986023 -0.24853542997538486
P 1.643566072846446 7.501431602903363 12.12240627554205 -3.1559514831629647 0.9535504287427385 -0.3409979560821805
P 0.8906480728458447 4.816639075176827 9.330065880442033 -2.1871783239332006 -0.626102700541167 -1.849654699552866
P 4.352230794453772 4.9598442850729505 7.8053352532934985 -1.5390019314214463 0.9778974901285352 0.031067153718449717
P 1.9755405160879747 8.409944686415734 8.513668530226107 0.14050693110953222 -1.0448747274800327 1.2130750107397752
P 8.910049444405496 3.9196800589603895 0.9726288392085914 0.43143985221452147 0.42663780284018776 0.18430953011677936
P 0.45313933799103817 7.366295604521981 4.243714808054447 0.8571867678093238 -1.8143012597542365 0.6807388998288083
Ni 2.19814266745881 0.5122924354277318 7.102497612563421 1.5038526372138228 2.8303984008809446 -1.2480157884810184
Ni 4.069752484660627 2.1641233935092523 0.08026349652190763 0.24246299852905986 -0.36072654485935945 0.3358930307554473
Ni 6.420967908198135 7.613934674299405 3.064654852791223 -0.513480925877677 -0.038356231180695234 -0.647257480241911
Ni 8.451949311714174 8.8742225179919 3.6557190055682183 0.30370461894836087 0.35751343723870044 -1.0558019159154979
Ni 7.753123914030571 0.4798348241223669 11.594538211975705 0.8709773938355129 -1.4329056165813001 0.3262117989119414
Ni 7.623047478989262 8.298811331062032 9.583642249962177 -1.389131299708827 -0.8229239899717117 0.21332134396809713
Ni 7.230609856164421 7.768265332865967 0.2102877519044602 0.3051714333018744 0.2655386494016007 0.20384091528148765
Ni 1.419482391878794 5.109320371815978 13.113378128362555 -0.7405281040722989 1.163391527471719 0.8723184812444396
Ni 5.978521673133557 2.367409753344226 2.775102472118181 0.6673825331265603 -0.8745113751307004 -0.10876254881839978
Ni 0.400492857645272 7.17652936698249 9.3166743437342 -0.14054061256094505 0.29376576256809406 -0.9135836585418137
Ni 8.14337185474691 2.559179317068091 13.056440802863744 -0.4603241393490395 -0.9072086082534053 0.5490814486901059
Ni 7.073372045181465 2.530098475107925 10.882372525463403 -1.1009867399822524 1.2855379537961924 -0.9306681248279262
Ni 2.24011933936863 7.757670998579293 5.395473620432925 -0.7064748711423317 -2.484461869846567 1.088797397004912
Ni 0.6461230105605977 1.92170228960741 0.6020125633195121 0.5846228361298254 -1.4264405776822466 0.18864595270860413
Ni 5.336134167072105 6.836811835093445 8.700734470424985 0.930733687958539 -0.8384357124540657 0.23765966360314553
Ni 4.215063516499395 2.6988810355906088 10.815194010154139 0.9334361744913666 -1.233478771207108 0.6608095078947328
Ni 6.157777436552231 3.7034233268061114 13.300226032130203 -1.1101689207021526 -1.653100804851095 -1.656555596168915
Ni 0.4648983968035118 8.479017509693758 6.927882111655533 -1.6625298114744786 0.04490534515312267 0.24847758015425592
Ni 1.5102377269291052 8.602282635708189 2.747404391115044 -0.9880767446543822 -0.12869348341437192 -0.6918946593353117
Ni 2.158793614079193 2.2495303135370914 9.292630702403212 0.6795181400478297 -0.11793058847091305 -0.11058366118753858
Ni 2.139338055600235 3.351145405630843 1.1732763991579127 1.1847013446930887 0.8705886430375266 -0.2595927162308109
Ni 5.445534412331417 4.586023619068491 4.163853840328656 -0.7592164245104216 0.6533972745910618 0.08473841798966052
Ni 6.267801974157372 4.735974913418044 6.773109789548789 -1.9738598081785812 1.7752122641725752 -0.14977730066786463
Ni 8.97925271683041 0.6321314077770712 8.940687290111752 1.125253582949417 -1.6723951343043326 -0.8566679191913762
P 7.5689483542149185 6.940006428079298 7.881718819475062 -0.22149205270434755 -0.3228120292017731 0.6295811460080706
P 6.527041700211762 0.4731632820385864 3.954299398985639 -0.6857355817124513 -0.8549069706362115 -0.5322816035239477
P 3.7707909933783648 4.489593746128483 11.805483800292336 0.33657411598287196 0.6233037976397909 0.497523374107156
P 0.9442934209449367 1.734498446024679 11.137667096604003 -1.0862658888323098 -2.468311228228633 -0.4910377663828124
P 4.913040994728216 3.9028148478268103 1.6560603057796044 0.46853470018428983 0.3257076055820133 0.04030487026663382
P 6.086561520146736 1.4891608719102338 9.198259130645198 0.19946772591445647 -0.1760822571109806 -0.4416823558781361
P 0.2899521141302965 2.1959157141654804 7.255810767784244 0.5514473778191213 -1.2615068809889176 -0.6698538774851883
P 5.91473204030456 1.3465892721561468 12.38866509747872 -0.6353417026409316 1.8117502111976087 2.694926461092159
