# total energy = -340853.4944407749 ev
CRYSTAL
PRIMVEC
9.42981724661504 0.00000000000000 0.00000000000000

0.00000000000000 9.42981724661504 0.00000000000000

0.00000000000000 0.00000000000000 13.80149072095702

PRIMCOORD
 96 1
Ni 7.732836726879633 6.570432590396547 12.889350267477356 -0.984179466482505 0.6488603059526568 0.37156631578734073
Ni 3.9898028065991906 1.2695268598802718 2.638831558540295 1.0971887063924006 1.099084380753217 0.3064364160572271
Ni -0.269221281073036 7.1517902506218975 4.758008522724708 2.069829576107687 -0.07197931855177926 1.4336733479852601
Ni 4.978773745131478 5.877039272012573 12.88322182927878 2.5009814647681443 -0.582092613508804 -1.1032125439889773
Ni 0.8462487692399363 5.090253044075276 3.7344075235054643 -5.352091644275144 3.3035240628700273 1.9061127825405948
Ni 0.9811347604387076 3.23928365561485 11.122938992835145 -0.08570361011640723 0.718910268692207 1.1628084012747393
Ni 7.971731715836 4.011331079267833 6.99178039745595 -0.6772486272873627 -1.1852075949055458 -0.8918182418402641
Ni 8.147135745581693 9.236364500589236 4.135727341812816 -0.495361847679463 0.2853543985759473 0.11210498292807144
Ni 6.69810288547353 8.520264182386562 10.843003553458951 1.0302942585626966 -0.27651468879713026 1.0893031329967369
Ni 2.1030189724114305 1.6482471782850099 9.957181613355576 -1.0386004644355469 -0.7188267078394652 -0.7143324195135374
Ni 1.8894901917242912 0.5184909549133458 6.071551883333271 -1.9733887820794336 -0.21269450901737563 -3.816222087835092
Ni 5.037116024150703 3.430793813138923 3.828782077029354 -2.217746169417729 0.5563792679030999 -0.5409081688506943
Ni 4.185028312100243 0.6515598203375892 5.035543130641667 2.5764433425518853 3.3802054148831657 -1.4755401634223748
Ni 0.4556855434131448 3.818868510206514 1.7771348627625707 -0.2646387632951507 0.2779802175990632 -0.6918293533150149
Ni 8.125541464192647 2.423434731065745 12.209447245580355 1.0157019625708186 1.4690386148584313 0.5044926063361376
Ni 6.6868625433705855 6.041514143622937 6.09339982680501 -0.5432046781943548 1.5048818498092857 -0.24462555339801742
Ni 5.400918371744318 2.522551539659745 12.515315625239525 0.7719107321486383 1.5229628756807128 -1.9247131712506014
Ni 7.557979626531567 5.354325644956862 10.603133521404056 -2.0557227043926596 -1.353956808690223 0.6755491280977528
Ni 8.974913388889375 7.051862477748659 10.729279015039724 -0.7132998644839651 3.949249165627812 1.5496542689289698
Ni 5.070148673803903 7.565881813345549 7.898358308199247 1.6274969882400616 0.9931119930854445 -0.958331909291782
Ni 2.6585012142387274 2.2689366060534644 7.112281202515425 0.6520176206347158 2.2050508333382473 0.842139386557898
Ni 2.3193766982587065 8.545319206688173 12.222862103529726 -1.3388392363224941 -1.368844781545649 0.5653220789186845
Ni 2.6643005518170084 6.639741746819904 11.195272291634687 0.6226656498351599 -1.7293880067496086 -1.0318173800754424
Ni 5.07135569040556 9.662073598103849 0.9888172325119197 -0.614798074161625 -1.0390696907624812 -0.6874595063820934
P 0.554117747278391 -0.3872854213679128 10.983419189464069 -0.5587480252455925 0.8414282194234863 -0.03488472769232702
P 4.120858406051136 5.250248752515423 2.0402607099972316 0.716782680826243 0.13279567850820354 -0.15100191710358513
P 7.42566986139196 7.111383483917941 9.245908418577818 -2.367597003636006 1.066307700542828 -0.7816143325896475
P 0.6926408189713784 1.5318077954937719 7.9747907485358285 0.7741028547039506 0.4480728327855122 1.1368677701495775
P 5.959229558731752 8.637599397811842 5.916823670781299 0.9574901301167767 0.6290743815749811 1.5058670965406904
P 3.8457529190450157 4.975030107702897 5.492179199628617 0.35534779704594927 -0.9041325404312429 -0.3016937591659191
P 1.0325366939983966 6.979837533971571 14.171370692166514 0.40147878707605694 1.3261881232173869 -0.47548387780861334
P 6.766751954692854 1.689427189999404 10.827020956285898 -1.0266319792197611 -1.3103961504904529 -1.706896767625628
Ni 6.534278671249997 2.0449030090050164 4.482255207276916 0.573516956024651 -1.9923110729052336 0.6419378678012105
Ni 8.957694542681342 4.0062766972483885 9.34739116830741 0.29834386885707975 -1.3432934154391059 -0.3265275303801473
Ni 4.366278828510221 1.6851271933559957 9.89137657700391 1.515759415953738 -0.2716984983554095 -1.4273006116896967
Ni 5.794104029734557 3.1166488829229118 1.0782137855356884 -1.1735985499117079 0.6380948399060365 0.9211586426755942
Ni 3.5373884667728843 8.393216255244809 5.8916356860571595 -0.5007956171005247 -4.431260303031981 2.438885723878664
Ni 6.0035874188427005 5.463692664847758 8.13363224735064 1.3471577834905186 -1.0019894980807325 1.1633470473870287
Ni 1.273600540910869 7.449800763607928 9.353877939559604 0.8567139419379634 -0.22856592883199345 1.4850594157667196
Ni 1.0126397797054332 7.927703899327068 7.322381301668478 -0.540863688766004 -0.07893723792685114 -3.2212672736516392
Ni 4.9643932739007814 0.9099509563559008 7.356650200356658 -0.9513531639811035 1.3259415544242197 -1.8218893565141396
Ni 2.9629617221898696 3.840575949401965 0.7419823374727675 0.6161512457554099 0.4092309202176501 1.3711747152304063
Ni 3.2042141654463516 6.079516306940777 7.270680442903534 -0.6148446111288444 0.4456387694227228 -0.269454182405923
Ni 7.3672144245663285 6.964910133343248 3.5959231140629986 -1.1263167341066087 -0.0485794515706002 -1.0373077137660522
Ni 5.700173620600809 3.615288186665856 9.98014793314729 2.0583714548694165 -0.8470352811976185 0.618110940584942
Ni 4.375029698872244 8.546959994881053 10.505432128371845 0.3042234675663083 0.15367226484689664 0.7545159337109586
Ni 2.0521922577009692 6.180783113856481 2.1225038036927337 0.4562993344603626 0.5017734076327616 -0.06307327431140104
Ni 8.938938636269633 1.759377573992391 9.949866904153183 0.42430195561815953 -1.1362908146001849 0.06290589549560134
Ni 6.878900770657884 1.4458738713460109 0.07562996289282208 0.5702182306687211 -1.1489668674059568 1.4717547282380137
Ni 3.229966996220799 6.635781223595712 4.3091152766410525 -1.5500116522683887 -1.501665656864833 0.8141385304695978
Ni 7.956408262885258 2.5823082912590385 2.565365738694978 -0.3652439731137387 0.11604185608863242 -0.008772089765675216
Ni 0.35963436839101387 1.5045744834188532 3.7585874607708747 1.4949975008160383 0.25822360379742626 0.42094512333078477
Ni 3.6295460702729465 0.8959156164347413 11.832845807100561 0.40291089153689313 1.537557485665436 1.56567429850631
Ni 1.1954933650394872 3.640871280730695 5.525992638146016 -0.10165499123934105 -0.4964972468354868 0.004574506744559863
Ni 2.736919574077725 9.555233769222676 8.00126213138095 0.8916290086475933 -0.8090225493992713 2.739605806277404
Ni 7.696041580163451 4.744395638614129 4.6378669937005705 0.1498356647096258 -0.04385633506331802 -0.4685341859636576
P 5.069573454954674 7.880055033013161 4.1334632427029865 0.239983940860948 -0.4290525829292675 0.2292318445507665
P 8.447824326652652 2.8505017222572246 5.024570595347216 1.5558501133270366 -1.7553427789421576 0.9426278682929637
P 1.0194575375413633 8.666162314112025 3.6211657917269005 -0.15913225952020335 0.18980397757244732 0.36420730431910825
P 6.799614867636445 4.456625907107795 12.65029497162858 -0.21374711865160606 0.2738875355869283 0.3265432141094312
P 3.43072780441852 3.725588758459597 10.483405018373299 -0.0995608277144737 -0.26803956144658353 0.3507545212483121
P 5.707604316554769 3.1499738569093254 7.4498516846208105 1.1836726463182583 -0.5557748015498815 0.4361683680384424
P 6.476181567477984 0.9778720436873497 2.49663463006601 0.26297551666011487 0.2871505712444216 0.6796214983949134
P 1.0850796354393408 3.2210746786007682 13.40324890141408 -0.7541690918945012 -2.171302790353525 0.9000951371370756
Ni 2.4972230506593185 4.559014862270352 12.489272356095304 0.735575902273346 0.862695613442695 -2.6423119202202368
Ni 6.593347046193657 5.471538272758538 1.2942028055304267 -1.756933263357729 0.22819517575613604 -2.130671389985408
Ni 8.686049798587788 8.970396506450356 8.91015977715556 0.8303570492109893 0.703544327759098 0.9130712376817693
Ni 1.5494887027446278 4.359102737620673 7.87962974825742 -0.5617765276592712 0.1331260652644288 0.011476633181031847
Ni 7.49175402033276 1.8417281676039787 8.029956122140218 -0.07207264959653394 0.9619065140169175 -0.10640844676392641
Ni 8.697676763195952 5.831021764074345 8.064790809860426 -0.32660723457814717 1.364752099533514 1.14774199385992
Ni 7.686828648758605 8.554645295899425 1.7689233779444133 -0.8724316097835362 1.0122610552100695 -0.6501234889357965
Ni 0.14531442604075628 5.144257607182291 13.332515842593455 -0.14989274319980636 0.14516859825125966 -0.9541716072665051
Ni 7.811189077998227 7.901338130434592 7.081034560239992 -0.9371133662326376 0.2722281456066344 -0.9911864939279574
Ni 5.348639465184987 7.260214288792747 2.12861809716551 -0.2831633044618994 0.46821254095818066 -1.632461017113556
Ni 5.416939631167894 5.703775810771384 3.994979776242241 -0.1465441384425476 -0.8658781249357346 0.1361442832654623
Ni 1.3466910540316082 1.110012072117348 12.5556714709306 -1.5657817706184516 1.2984744593522024 0.23180371904300076
Ni 3.365209434509747 8.401797388897226 2.9906033453495686 -1.5392942658508846 1.9579001995255314 -0.8501517153394132
Ni 4.973832520918438 5.763306246757866 10.394951447069575 -0.9183211732267991 0.9941219224071977 0.048909838326825446
Ni 3.1118302463334784 6.431305067421011 -0.06416990604910718 -1.442920834725457 1.6986332420652552 1.2902351021615457
Ni 6.2733933485821645 9.573339018247552 8.83063529975895 0.6758319494454941 -1.1399152987266497 2.2485806383000826
Ni 8.43164276033667 9.439812806689087 13.111733646515725 0.07599589591034009 -2.222263597672108 -1.7039258579227625
Ni 8.99730920474046 0.7506747429681485 6.395252047318506 -1.0631622129353109 0.0934544577064197 -0.6913819813649512
Ni 4.080131025562364 4.144942159181102 8.44278597532245 -1.7486879926298011 -0.42195736664538297 -0.6517903351152581
Ni 9.220013197563643 1.469250388185943 0.7693033468476506 0.8551833642260498 1.350649341583545 0.6679224647904303
Ni 2.3039306576843592 9.018083092033066 0.8497104551342239 -0.07556575035145696 -0.415343203762975 -0.12994561065391813
Ni 1.9407129587571714 1.9342629637920592 1.8020192073728556 -0.08028732419684237 -0.46967626998790074 -0.054118893331590666
Ni 8.832428850990476 6.478972793369319 1.676150007381161 0.9196733163793194 0.2356529175857619 -0.3060867460272922
Ni 2.4359292388563505 4.052275345552216 3.217334813099067 5.143361005001522 -3.3446665985466075 -0.12135169833732004
P 4.316385665702604 8.576692208514093 12.975374717870242 -0.305968475281873 -1.3317615035401063 -0.3988490627626937
P 0.5438213298772124 5.901830261432574 6.490647850045204 1.6466740753891447 -0.46071983212556133 -1.5967386240112824
P 6.390719134190246 8.2215935821965 13.737686798245475 1.9452447155450499 -0.8953499091426064 -0.5185264587213844
P 2.7538460959525444 1.8825875655335569 4.249533919641688 -2.251286981487652 1.7085093635283866 -0.019101753826457426
P 7.941018801214113 4.780049777449055 2.575772484957402 1.6449802326264895 -1.0598138652883682 0.4938523530134721
P 3.3432191007982826 7.673344010161952 8.976600383186538 -1.5723769073374663 -1.3362133686638729 -0.13432291378600736
P 3.89272283852049 1.9980085280671458 0.07776864543388565 -0.6463650503346288 -0.705511735898114 0.979636327196513
P 0.4706723518898305 5.32928005047245 10.842036997195905 1.930123029412263 -2.0033061384641564 0.42582739112375045
