# total energy = -340889.3232247324 ev
CRYSTAL
PRIMVEC
9.08552960734881 0.00000000000000 0.00000000000000
0.00000000000000 9.08552960734881 0.00000000000000
0.00000000000000 0.00000000000000 13.29759095976130
PRIMCOORD
 96 1
Ni 6.359625512971693 2.11109552074591 11.555633614899415 0.48861321610171987 -0.6772756238705562 -0.5169814828317678
Ni 4.524630155680227 0.34245632995513475 6.162742083373557 -0.25324260564306705 -1.4764734738699217 -3.288313416567859
Ni 2.677251221344816 1.6392657899710859 4.764459975835236 1.1494216955551881 0.4116855524057296 0.17004736377081037
Ni 3.382442783648396 4.2437873456983155 4.781308182196417 -0.5666138011469146 -0.388328365737028 0.49773523300764594
Ni 5.094574522183259 4.3741737830846965 3.0094309086041293 -0.1534300669291035 0.47985501029311545 -0.9464410713914669
Ni 7.208504728209955 6.058885392845809 2.7624017146783046 -0.23880329028928546 0.001951467299415994 -1.0064843006272925
Ni 5.261566558916705 4.323512869220404 11.771745659652211 0.16506687983708346 -0.8911554114452845 -0.6352308880946802
Ni 5.906766368306741 7.929632309688206 12.516968974570114 -2.5800914808274342 -0.5106277726995981 0.8762324715868652
Ni 1.6125815891067699 6.573562481903274 0.3579289871127549 0.5353494438159943 0.6840527946933898 -0.29517575554174325
Ni 2.824500401939971 1.4547295952979085 0.4508975787927685 -1.183404737368852 -0.450651649256282 2.2070123279399927
Ni 0.601769160097696 0.4820064326434385 5.015545858792699 -0.7512321207533643 -1.4721661047438195 -0.6180350930416839
Ni 8.70662681357527 2.5339542461892175 1.583915834204828 0.40882905679354103 -0.10653880169420363 -0.6827908972618306
Ni 7.252006244634315 0.5697326736599485 4.886253319187748 -1.6613432473655452 -0.400661176270768 -0.19057402296925244
Ni 0.7157498564215311 7.62875590661613 2.5910086473358453 0.4111021690984339 -0.40442861373300026 -0.7529814993443033
Ni 7.77711352184031 3.9108844502712126 3.8135366332535754 0.37138479590415396 0.06335352455598121 0.3175186420133177
Ni 7.725643995828614 4.016022200493162 12.92620303960616 -0.5034253414138878 -1.2312761071288343 -1.4344063694965423
Ni 7.934656607637804 8.530803641928609 7.0938925875687655 -0.1859234115711185 1.4022513820305529 -0.1768924117171018
Ni 6.8734485622330235 1.0109741514385544 0.40011128461798007 0.6952334939005574 -0.6783837693330703 0.6354013522342735
Ni 1.6663679252037227 6.448809072959479 9.084355895663714 0.8910088585650913 0.2599824954700619 0.2108767390823465
Ni -0.006819598627427849 4.942973372839719 1.288644294433125 0.5467389165998584 0.24331891877145195 1.216113540455783
Ni 6.486841100476683 1.9004656846419135 6.839230640103237 0.7451748588156908 -0.3688085505365455 1.2927532405977091
Ni 3.7071323601850192 4.753458307865676 0.6436443666975028 -0.7706722317558469 -1.232397365217471 -0.1079020005903174
Ni 6.319885405862222 5.6255692226647325 4.91101320485184 -0.9769101865146015 0.9909478955545901 -0.6278893601279444
Ni 5.1430276523192475 2.7514527427812716 9.089768145733471 1.8348659712794657 -1.722078360462073 0.10487015574252906
P 0.2321071198708187 5.50645792769327 12.4135011447155 -0.5407449037999525 0.4703373006106674 -0.390877871631759
P 4.173874194302023 6.019708588580596 12.301455666227584 -0.7366046006481766 1.6502872466616998 0.5278073698026781
P 2.334681322267855 8.583899477764858 1.3587609616957301 -0.6084813879149779 0.014395092379407467 -0.08622502983751601
P 6.424659734894327 7.763957674767947 5.752058876343007 -0.3651161892866228 -0.6440438584006198 -0.18450107730229515
P 4.873151076740887 0.8423249140794196 12.810819537489527 0.3953490200292353 -0.0061117693246927 0.042588009873855685
P 3.8574978774830884 5.9522303591562595 8.263601846307502 -0.20671592283643755 0.7545460156179457 -0.17259841232743822
P 4.7157170173003475 0.9509914840547566 3.8524317860966595 0.28711791823427324 1.1657996226925793 0.4936379230098209
P 0.12786520288183562 5.66818944270372 3.526747344052838 1.3790613170673347 -0.5892017137497595 -0.6572930101010422
Ni 1.5005570073372716 1.0569923596025859 2.6535343544955783 -1.6963693857317432 1.2619961619205105 -0.612862547701809
Ni 1.9595488845808466 6.519830658984796 4.624582794076073 -0.03314974727909129 0.7372967416191948 0.6402725642836457
Ni 5.684189060586614 5.110492370298439 9.326185440915843 0.3849959589296853 1.511826656558235 0.07327026944906091
Ni 8.681387211940585 2.293142280268654 10.142751061059101 1.0701838956687826 -0.09977654326970559 0.4651832672135537
Ni 2.201932647147487 5.164342305103614 6.904747303655388 0.6166127587728607 -0.4591730564637318 0.7992245894722428
Ni 0.5392252818784706 9.06355184965108 8.84582348915645 0.5165672781124846 -0.4171180362752107 1.1218299019798488
Ni 1.5475564527138828 0.8724325425520686 11.667412887365769 -1.4101390123087456 2.1606108578573178 -1.9856048645296513
Ni 3.785467797655953 7.117349608267264 1.31887730321627 1.8509564490834254 -0.679622526836178 0.3792084057136308
Ni 5.64578452634982 7.837141616872839 8.03456381838492 -0.09410314703401212 -0.4645309783415355 0.3276552162266873
Ni 5.349278263085621 2.915764548239615 4.910454444772454 -0.27408011121370857 -1.0051987490466494 -0.5334511983520168
Ni 0.852092767109459 7.3706905197077095 6.953031442938098 0.11425133984711291 0.25230646698204284 -0.5941865685588605
Ni 4.935332442323244 4.669553440660379 6.768793253640593 0.7681996018456383 0.040023077360156874 0.8408489498812487
Ni 7.913623606275566 7.233317309946573 9.149487332754633 1.2461201141202023 -0.4538806977165409 0.38107708349125335
Ni 4.799576456856914 0.40412254600088626 10.615520235609672 -0.29979885613605145 -0.5718187423866217 -0.48414592435898557
Ni 8.502438618061264 7.385136512004019 4.550528458221504 -1.1112860650257312 0.8362065660132307 1.3034017214504907
Ni 7.155372550254722 6.055478319191019 7.080873931995569 -0.991671403984176 0.3794868561859981 -0.6568273833185333
Ni 2.3144932751720053 5.357455239857117 2.5379918556083876 -0.2078677770526936 -0.18337159168354225 -0.2553285416378183
Ni 2.185206186884904 5.328099893247446 11.320917130885515 1.1654774634664702 0.0704993915721431 0.767989028496729
Ni 1.1764761612936379 3.5725847501749217 3.8023132783582096 -0.44029601705357074 -0.6582859701419308 -0.31354757318071164
Ni 3.51158450345956 2.4788505082790793 2.5250795007332205 0.7630193431962794 1.0192498278230768 0.7489500095874069
Ni 1.1291859789651515 3.3551044246423607 8.394556129303016 -0.13505387841476096 -0.31035811970913646 -0.7500545555054954
Ni 3.9112569569908033 2.6236556813725316 6.798472953662201 -1.0958257646066032 -0.43068291944383885 1.0272428733308825
Ni 3.9052514218286265 6.77007340478182 6.171186174719589 0.45749618298194117 1.2477118840873545 -0.7230078358003484
Ni 0.6743489144744711 7.443138533903166 11.223898210044686 -0.20781995453389374 -0.4479941570287769 0.25285822572045485
P -0.09755314998989914 5.692147984644204 7.9522389248024705 2.1145068644104033 -0.8062717261270115 1.1021079980708892
P 8.534982985611817 1.6527123739953242 7.934845586656523 0.07250202382446869 -0.3456225993383854 -0.054338465541564476
P 2.0074023697535917 2.9931278340277148 10.416974154067997 -1.0042849789831285 0.2627549160088765 0.6671747879911284
P 4.0160585426121465 6.076593090320971 3.917709500216488 0.03925457462524852 0.773851657925093 -0.7261988319338204
P 7.1463415336870915 3.7881480289310545 10.52752960567755 -0.9959142384209301 1.8642038010116346 -0.5852162467394502
P 6.314824765793641 7.8585652960141585 10.318212628621867 -1.0089577018684495 -0.878151800096765 0.22774651825449166
P 2.253102350677561 8.568744814148351 5.87707031433159 2.2251895130696515 -1.1977813178054983 -0.8578981920540516
P 6.804062371562005 4.103852016548777 1.6467340954223857 0.3868481816470757 -0.4621588785649331 0.15114667021156547
Ni 5.264519356084189 2.8276258241726318 0.47902001901589314 -0.13163842497530878 0.49081690862125793 0.858660524141373
Ni 1.7712240240035426 1.1506096581064718 7.083280688825313 -0.665588417340615 1.0201502281501593 0.4702727659213191
Ni 7.118921404913341 0.6166785144110575 9.406928543769496 -0.9927623230555096 0.13693309771534481 -0.8999002475174501
Ni 2.966761626704513 1.4042685630880305 9.177691542745473 -0.4815141431630932 0.03798444966357329 0.7060187574415197
Ni 6.445674565197072 2.2035044437935634 2.8772528047518167 -0.5277816587710653 -1.1627464376885523 -1.1478188698444425
Ni 4.034184174455629 6.960269884486822 10.293837969419009 0.19355264598160213 0.26152361470493674 -0.03572779241891266
Ni 8.13392044602942 7.3984740696713045 0.27894756847687285 -0.5276289352432849 -1.614813479235122 1.134897533797084
Ni 7.589633615529394 4.0925950451933515 8.319850360965651 0.27633394024489183 -1.859113788083237 -0.2866201526622483
Ni 3.1092318186532157 8.51924684809156 12.45389904417859 1.3969484817604008 -2.0004208464965614 0.11592152846068422
Ni 9.302219630551562 4.834555746379426 10.18457175448043 -1.389009429418982 -0.3533549349856366 0.03480399505306264
Ni 8.86912151308439 2.5522615886276236 5.8313392089075355 -1.5767213003490912 0.38474167682703414 0.7120402810452512
Ni 3.597297391084332 2.3103957012565113 11.94726083184048 0.6238460432965063 2.1297308804490096 -3.1765807293775423
Ni 1.3586410327030816 3.2609329088239623 12.585558364282399 -1.503307049122998 0.18196648380589953 -0.6609210937719328
Ni 3.199651010686471 8.336100739469538 8.07972253543497 -0.5954844614346777 -0.837508572654106 0.26036996071646773
Ni 5.3227848583459725 7.837895715841765 3.512079664830723 0.35272861425554736 -0.2201980164832724 1.7911507897797023
Ni 2.9506711535241577 8.635114608943661 3.5158701478407988 0.9390059552696602 -1.3819383815048134 0.9193293027763392
Ni 3.5156275641965777 4.153477180022013 9.48703384243497 -1.2411044060731657 0.9206408224989113 -0.07051224708794954
Ni 7.203643969795787 5.961479428437797 11.404040642532646 0.6038590586516182 0.1548104922163979 -0.10689335682014493
Ni 0.5326001135876095 9.129321999483148 0.240514869097866 -0.2997615751402128 0.28449256479628426 1.2574100852117247
Ni 4.750878017417781 0.4145391058547978 1.731651999194374 0.38726650013141695 -0.5910192265744725 -0.5451276062486805
Ni 5.945007363008105 5.76004414843686 0.39330168007327293 0.5240504738634072 0.5286722889061346 0.6572171625577842
Ni 7.8106209555439525 8.68270461375377 11.693223060268508 1.3117691195785797 1.3650074100774299 -1.325037040332079
Ni 9.29540548324198 5.254098253465404 5.690824222960195 -1.3560113772264066 -1.3262804258208774 0.3212369714051694
Ni 8.047844137214804 9.224084074735043 2.4505063811301495 -0.4047610573717545 -1.110883430270674 -0.8412346153554415
P 8.566682398895985 1.77440395941468 3.642662349659619 0.6047568878755392 1.2328308532104637 0.17048316575664835
P 1.936217244192844 3.3906288459496388 1.3172609874744377 -0.12873230707210734 0.3232465456360304 1.5206157156047746
P 4.860722072048214 0.7835715188702699 8.07977614006047 0.504891384436453 2.025757011268505 2.6556520889725683
P 8.494643233539103 1.5636196693049997 12.313875585390514 0.3732203064509959 0.7606161330714255 0.617773097629549
P 6.391915485689358 7.724680929675527 1.6930757484453787 0.21365970114412233 0.7180139821301829 -1.9474178119369687
P 1.7579682361039726 3.172748757108249 6.08742485888428 1.6930835158916193 0.9623906527421876 -0.09593454381579608
P 6.939791100439097 3.833412138126159 5.978583846737817 0.5218542375430367 1.3136141432071182 0.7142447448957377
P 2.3485185840711758 8.52507975818856 10.333864270715484 0.4938531243444204 -0.664044984112895 -1.7438921139030545
