# total energy = -340869.0530144065 ev
CRYSTAL
PRIMVEC
9.26220546505962 0.00000000000000 0.00000000000000
0.00000000000000 9.26220546505962 0.00000000000000
0.00000000000000 0.00000000000000 13.55617393619403
PRIMCOORD
 96 1
Ni 0.1464854866278435 8.157687592313389 2.9666057286102117 1.5209964959829612 -1.730114600502988 -0.8006019294357437
Ni 8.005092754864211 8.034092720633764 13.091332934589333 1.703247343798499 1.162463873451127 -2.1110615861742805
Ni 4.441931518332428 7.961680797163192 1.3751522573723474 -0.017973810869601304 0.25054474709592983 1.224901571061058
Ni 1.936060314557006 5.679399236848962 0.8426059999906099 0.9409203986835538 0.6699724053409236 0.8039163385209576
Ni 2.6806397614584885 7.828962652956256 13.016868506355257 -0.25155699041052804 -2.4587868336779652 1.172671153001432
Ni 5.0538854430830895 0.7701023806844846 5.33226659005957 0.8179944138805783 1.2184617289729855 0.6300585998651214
Ni 3.895628106955955 1.101063216476229 2.9048981361648303 -0.3901335372665668 -0.18333379646707137 -1.0436560245815831
Ni 6.095476037327988 6.875455634076558 11.303083528283173 -0.5763919635796009 -0.19378481659706626 -0.3909580900503912
Ni 8.483670918809523 6.156375039223486 11.220648972120417 0.22269558609414547 0.3454392796829857 1.2390112709895629
Ni 6.151882869501918 3.0072992289642606 9.976910740404907 -0.19852490238521295 0.6553351150437231 0.6748652146568506
Ni 4.004431236274042 9.078202634804985 11.851864579660717 -0.5919929033416514 0.7340486669955423 -2.146452821189381
Ni 8.52300750604149 3.616807931433491 7.409560720662707 0.30175135187673197 -0.3882890278586603 -2.379245386508212
Ni 3.937113525889786 8.222810159967723 6.433692884995768 -0.5979272665482154 -0.3875899449091067 1.7189611549893298
Ni 2.209517673030421 2.3557864240469564 1.2962993961195506 0.3687771830779778 -0.2454061403177838 0.4864527181152913
Ni 7.627954266775858 1.583049872086566 8.833433105772016 0.3928105698780977 -0.712602067085992 0.10162208111887659
Ni 8.071901043939837 0.4888082700431938 2.564475957340956 -0.7295538644489822 5.354644492603985 0.3754965040796823
Ni 0.1855682894260559 2.576050935693626 11.581581379050357 0.4538570435674571 -0.12362943862790321 -0.13561592156581806
Ni 6.0314371477301965 2.1571769491199326 3.4965307818038993 1.2217144315823283 1.7869786606798836 0.7591539467036023
Ni 4.28933668088325 0.9122096227197802 0.34833951218056947 1.3956868414391574 1.155427792539952 1.7558629131116856
Ni 2.7118997053972427 1.9062360124880315 12.511480888267506 -0.26389082938553265 0.2718599636339382 -0.49453755200595473
Ni -0.057149661063970555 2.909786728286571 0.4047982127059234 0.535701170728458 1.291213921135047 -0.8014007711879553
Ni 1.5930437919413556 7.94006280926599 4.988522984303418 0.7222827847088656 0.0034370507060069843 0.5346948409511307
Ni 3.9912233310720677 3.094178717599968 6.060084223465952 0.9237562281994413 -1.283183851741719 1.1139520418936684
Ni 5.450335629871383 6.930788050399556 7.906448412660798 0.3484053042898451 0.4973675652555822 0.2709441366878882
P 3.276634905940566 8.63832196590445 8.649625561632702 0.3413283428384057 -0.5201305699837107 0.3307238278496821
P 1.3279224185182747 2.9267087779387495 6.075280724212711 0.48235206568335637 -0.3802795272906225 0.21093690289632058
P 0.5345626395433571 7.350773501646627 6.709289812965436 1.8532527013167697 -0.05676687247739901 0.8967578452337265
P 5.891049897276954 0.6342341603490836 2.075206429458311 -0.8931721847649972 -1.7999701878435452 -2.042178390049322
P 0.6501271789578269 7.33467578829387 12.366755220705846 0.40316568786017665 -0.7252554941839445 0.31814213452992945
P 4.207727387240476 3.382372245201253 8.564885642493248 -0.6189691748201792 0.18340450180400672 -0.055987828219529384
P 7.80150021331821 4.379828429707436 13.121590707880925 -0.6190794751457983 0.9712329336241662 -1.171977212258201
P 4.349698474853283 6.007364675345953 12.927696621830705 -0.37670260857264154 0.7554528437029312 0.6728361000419638
Ni 6.521852410446983 8.667849877393856 3.7253313421421117 -1.6772313793507114 -0.7364822161376993 1.1738901130101977
Ni 7.707803741352451 4.252037778885809 3.86706161240902 0.22078525644531008 0.4127430471359666 -1.4003227975492722
Ni 6.938948053543271 2.0918043019140873 0.7888907647673772 -0.6824854502062698 0.27227648234606655 0.36929988835066724
Ni 3.047858427336944 5.190966086133034 3.3022430520151933 -0.4778415794075126 1.7639688300482719 0.9579436727144275
Ni 2.535575097171447 6.588845943634838 7.963127553679705 -0.15308502488485892 0.5175795214270829 0.4586457232053521
Ni 5.720560478586391 8.434442295984493 13.147739766763262 0.9395847105912657 0.5391713886652456 -0.6342194161110303
Ni 4.786828268687208 5.251031489523498 9.647766223133575 0.049763701686688484 -0.18448873600712098 -0.014334671455117248
Ni 0.6281711205558071 0.5247252509634014 6.352328113581137 -0.1709541918557959 0.3732930686704603 -2.300828282750889
Ni 1.744443804866652 4.094413563789597 7.845310445860523 0.8429410565235869 -0.2328730408477796 0.09627907163940837
Ni 5.3798409829623886 1.6669006194873186 7.884636844666318 0.6354190928460862 -0.15140506607927473 -0.24464766488520442
Ni 1.121708672784224 3.760223923121689 3.129646481548019 -2.288203137787711 1.6114723306770313 -1.0508628267426676
Ni 0.19939213130119385 5.888299022210344 8.610773387754216 -0.48287837050047155 0.6866272402887853 -0.024367373100770938
Ni 2.829714960775303 3.5760820133598017 10.916299379271022 0.28747890111811786 0.7582401766400813 -1.0006340124941022
Ni 8.604005494113906 0.13792813486339464 10.731623040245353 -1.2300124099250624 0.7648749083477796 -0.11595135325735514
Ni 7.271424186173054 1.4064566598980368 6.393566231625142 0.9357483675643111 -1.488348885151269 0.18902493331457768
Ni 2.8383473364052048 2.968027477171574 4.0908059347039245 0.7702174036066155 -1.511884506379364 1.0546292357636353
Ni 1.2039848452310247 1.1777820655561402 3.140884315616431 0.13062438188849762 -0.5260335657317069 1.1771487291568115
Ni 3.143694468798955 1.1651669415133008 7.4111464102633935 -1.3018120083658675 0.17681862105637292 -0.35767593095849365
Ni 4.792005841624029 5.699952071100843 1.8398435964443627 0.7367820067663053 -0.26651772548541847 -0.2589630530666121
Ni 0.29908773384151016 0.6482432463364513 0.9420635638467112 1.285869111883366 -1.0185021510237748 -1.6119829517648625
Ni 0.7265061050917966 1.6863327268602095 8.269659322171163 0.7367110443190538 1.7755665621882002 1.4189607243654339
Ni 9.220562735053473 8.83653316599018 8.412039799272 0.09315775240160731 -0.8172616494796119 -0.33567911497242836
Ni 8.839404449729738 3.7029093947978344 9.539290049673573 -0.22964964881447544 0.41446465781276365 1.872592539295962
Ni 6.041523689641101 0.847215799723445 11.221068550034614 3.0051053749109538 0.3291220305802009 0.9498860925172739
P 3.5325496469858333 6.37497235386009 5.243162319635983 0.27443980854597255 0.01773572671686623 -0.30793845452405033
P 6.477143743960355 8.892754754051879 7.980655351578875 0.5230701122280089 0.4783141481685568 -0.3934163217828966
P 4.530607874856763 3.6298583791400705 2.836317987155729 -0.30293817309598153 -0.3362380727996919 -1.3027018671699888
P 1.9029942405240128 5.241435844510003 9.777689033686965 0.3580649388667962 0.23764243721196493 -0.5606938361180537
P 7.207524229659436 5.358658318728929 9.861520330455933 -1.9953305764578477 -1.2524769095761656 -1.8433236151285157
P 6.852318644459074 6.319899279294215 3.09937481494801 -0.672472546054958 -0.29183280721143934 0.10198280689240502
P 8.080329651046286 1.1853678119519446 12.735591993904627 0.4791186463477232 -1.3326657605219308 -0.8914873408634065
P 0.8610007403350146 6.028352833261573 3.0715715261434613 0.08172714196716248 -0.01577371789448896 -0.09159786411365516
Ni 8.811349228932558 2.6291511604642563 4.962183123985483 0.23910770890358174 -1.418543177212041 -0.16976839907781086
Ni 6.4287765062571935 6.2618159879046065 13.569052492074459 0.1735767170803075 -0.9410705511081728 0.16241632958811383
Ni 7.267737828339684 7.954910124861198 1.5680701069511147 -1.3943514104571857 -1.8209645307070255 0.6291962518648262
Ni 6.196239572175309 7.1974562121597545 5.422550865478058 -1.7969612258138923 -0.4557385768608861 0.5805589504730969
Ni 2.517523058434667 7.662974666192874 2.891721722461935 -1.0192277163358898 -0.9381554343439068 -2.7360923938075072
Ni 4.1378810947242854 8.237935341731275 4.185712976943104 1.208337753165106 -0.5413642825515064 -0.2937007136581135
Ni 4.222361672106619 5.17051513614288 6.910707588633861 -0.18389018319117365 0.5520865540650169 0.40376835444118203
Ni 0.6817140787546664 4.969284457027807 5.347124094080949 -0.08348989029454008 0.39597611209027284 0.015045067258580543
Ni 1.1487913619921994 0.15589588752910993 12.115206683385832 0.21387644514061876 0.26911608234021395 1.7164563862896052
Ni 7.516983781344684 7.662937617370429 9.462833321012468 -0.4162387189940509 -0.8232453778668726 0.6033988311857479
Ni 5.559342527712924 4.48911319371732 11.949469702394522 0.5419510082929118 -0.8934971722045838 0.06096985481515305
Ni 7.253733373455123 5.168588597375692 5.8631261997994555 0.7965185033949895 -0.3802342758749839 1.9073517971540184
Ni 7.899114598257626 7.040721168802245 7.206719343991798 -2.4402864608809325 0.06721043640822619 -0.07019574428879524
Ni 5.24366803606237 8.570226230248828 9.866292218786969 -1.3498340447711012 -0.9303194832392558 -1.8607029869472276
Ni 5.337262623766403 4.725558778567251 4.641227322695261 -1.323347054224166 0.7218233285739439 -1.1075895900107506
Ni 1.4010197452040964 7.98359517563996 10.206185525670428 0.17761977680142957 -0.050917869895789725 -0.7953645922962043
Ni 3.165016066116588 6.56612575326987 11.044866202922892 1.439779717993314 -0.2330656164745599 -0.3454094548863148
Ni 4.069424133049817 1.5795024473373678 10.079205317839806 -1.228754112037929 -0.03291449133983364 -0.5494406318017376
Ni 1.2989780259823915 5.235341313217647 11.8371700904581 -0.49913597000991455 0.09493952689237843 0.5490171711110738
Ni 4.265449452611236 3.667296214221684 0.45771319336432403 -0.24017111717108958 -0.10527073361505741 0.10731733173144098
Ni 8.428597844243646 6.918626774431679 4.695167629514853 0.5807926637504578 -0.27261406819114337 0.18200942122869299
Ni 8.824788689274818 6.046877244484539 0.884485062662929 0.2741217630849215 0.21114336248017185 0.0038463703292836984
Ni 6.306589489830514 4.276193611120556 7.947917159624529 0.06681577207296881 0.06883640204742339 0.019419285066876235
Ni 7.0547997213316975 4.545158799872403 1.5969718933411854 -0.4064263608893194 -0.7253300561756219 0.28314350696755747
P 2.9538933514084516 0.8779774370003013 4.898673106328108 -0.7039454198522586 -0.791920599611662 0.9242100279074082
P 6.340655882069547 3.1197609294988835 5.6843887870118674 -0.22257705823841026 0.2788919307800552 0.3190592470275602
P 4.918212655286091 2.2509753053474175 12.245292508757984 -0.44571667384850977 1.5254419333488245 -0.28374180267318877
P 2.5681317498958087 9.117483648803283 1.1245280881723594 -1.6323892833353564 1.19446125229333 1.4965831001356031
P 1.5471403009308473 1.2648653227153004 10.33890089121568 0.28106836960608367 0.5932907962174685 -0.7644671313863995
P 8.380740027849114 9.245246513008075 4.658877381708503 0.9559580097429665 0.43293726269565436 1.0722798589658629
P 1.977545733490837 3.8714444881043737 13.314847554185071 0.2511772384736061 -1.4758458675882518 -0.3087532371158618
P 8.714077545600766 2.685984054096314 2.415873130510328 -1.3604984664634827 -0.6604333555022368 1.4522367128097442
