# total energy = -340857.256908617 ev
CRYSTAL
PRIMVEC
9.40811654900393 0.00000000000000 0.00000000000000
0.00000000000000 9.40811654900393 0.00000000000000
0.00000000000000 0.00000000000000 13.76972955646366
PRIMCOORD
 96 1
Ni 0.27812462755297807 7.248332982800707 9.66776849190603 -2.517426497698045 -0.360891609682314 1.3948635742069138
Ni 0.5610633884221118 3.324461525757483 12.009394171831625 -1.4201645148655477 -0.1815077990019261 0.20464232813686048
Ni 0.9141725877093568 7.826235959306828 3.5257397152809684 -0.6186611566614572 -1.0975239782446322 -0.14222648490380022
Ni 4.358103083400793 8.905732677753232 9.819194011839954 0.5205676575211292 0.9819132961561476 0.06485196347837863
Ni 5.72437801514221 7.10764400564653 8.360883237654479 -3.1253694966110492 0.33224103582515685 -0.13956822134534674
Ni 3.122177608558608 6.6834696560428615 4.481785007993675 0.38018208248080976 0.1406354862675965 -1.1014153428792386
Ni 9.420535415542414 4.788957195862523 13.88980198345308 0.3014628741020357 2.101463400962884 0.24977778702291822
Ni 3.8806693851499525 0.34293902513292734 6.931833588033996 -1.0340586107011354 0.4504909553087015 0.6472993892234401
Ni 5.647937066942552 5.669848570740337 10.498634087846975 0.629717928696251 -0.8168083639922771 0.8224917875302996
Ni 1.027817933405083 0.8274476271432925 10.342691731084662 0.7328101666027509 0.5557426627603655 0.4354633715516178
Ni 7.653615834067772 2.699038151792104 8.769693191872932 0.6917097970180152 0.7171991995383713 1.2341619133170616
Ni 7.627000271919238 4.176432349894896 11.337073217732627 -0.8498344412093106 -0.899166454675219 0.041180845113683924
Ni 8.66008675067716 1.904993102185805 6.219015395593407 -1.6016841409420157 1.5101451550907539 1.750163291623747
Ni 1.2873126082657578 3.3281400993877686 9.80980377056019 1.610104503795227 -0.38866852268526614 -1.3170668776424093
Ni 2.5066327571298004 9.003435969698272 -0.048841297044148614 1.6107799325956969 0.5554043055843402 -2.1527926473644796
Ni 4.975698904270526 3.8008415149377557 1.522560684763336 0.48387724407863114 0.24201896901310574 -1.7688654960189407
Ni 6.795341571740355 5.412433089670692 1.8901574429592154 -0.7601736462173683 -0.21104617478067522 -0.29535984652809133
Ni 1.872506875215538 8.440924672115798 8.893813534704105 1.052515274744426 1.6917874227880152 -0.725406675049828
Ni 0.7376556205325403 4.00840338560617 7.05143709403678 0.1377016004502532 -0.8839797196324519 -0.21779017837272813
Ni 1.342312458502706 1.7705228901713164 6.8815048677393404 2.7361996088093328 -0.4137866579091325 1.0021872159138354
Ni 7.800373046494415 7.6177426850849645 5.918973619372622 -0.9433966281381883 -0.3165218253176872 -0.22294292621826117
Ni 2.763267364513221 0.09727616344679257 3.3156131919997263 -0.11388675741884258 0.08112010451078286 0.4305325099089037
Ni 3.065070340180525 3.514420810077398 2.6983024370660473 -1.1321605944818953 -1.0232057271470314 1.6391453711122674
Ni 6.444371778191031 3.4848416911678934 7.056504305692206 0.5883144260487997 0.7722886843133474 -1.6102986220839042
P 6.868527311561297 2.83562519006443 1.8471265987899108 -0.06161185927452615 0.2338444036221134 -0.26034142147137745
P 2.8081817136461646 4.289771931797824 8.142468163559217 -1.0050773929774368 -0.23445529773323492 0.9295795197494378
P 5.556753599871648 3.6458333841639 12.196951563957647 0.4650621682546571 -0.5062093319169282 0.875410232795886
P 4.077045005060288 5.392685452714252 2.6612758529756384 0.2402433651699217 1.7828376419283167 0.4488410784101044
P 9.1167849597179 1.3516453102705903 12.173983528654283 -0.1410445487805571 -0.060474917456605534 0.3180380048518975
P 5.899039701705491 7.523454539502568 0.6413757766444361 -1.7763623186166182 0.41461532445801497 1.7993945178457331
P 9.09081855762177 4.60742758410715 9.844145278143992 -0.672214407297565 1.8021458553386254 -0.5763048031824334
P 9.490249560300501 1.805840960268734 8.61149288710226 1.273251937339988 -0.7209352695420358 -0.06077367964394695
Ni 7.152426641145653 8.81896161741533 8.043050712751164 2.336520593946176 0.38613752873329626 0.410588462686809
Ni 5.784956878583146 6.4138612557280785 4.144275407009181 -0.6091799566438992 0.8400290250831146 -0.8555754574581459
Ni 5.530617851674891 0.4722451218899645 0.696580723825477 -0.19938005129665662 -1.7089307673365215 1.4195582487401166
Ni 1.934995586346877 1.977332111503611 13.370875668113628 0.06229114472973789 -1.825606914575043 0.8143393336264942
Ni 0.3349487116183464 8.733865201850294 0.7295721666626145 -1.766237314367474 0.26971412093552904 -0.5942179360174283
Ni 2.428206696306127 7.962258510577064 11.440029061232112 -1.1955079483902895 -0.3160418003574751 0.43028542689510413
Ni 3.1081971471401846 5.906265135332241 6.702251079414059 -0.8856694486300489 -0.05389135070181686 0.4969253355118409
Ni 5.804168252887601 1.3273065123638192 8.27545659719322 -1.0326951546947052 0.04064811253866548 0.03349478932333586
Ni 5.600200282799158 5.741303217088202 12.830854473506083 5.059083328698365 -0.4093173092838692 4.330871065878941
Ni 6.117204519896493 9.064522871441088 12.469991104433465 -1.108190456819543 -1.9655906261912535 -2.3056195334919454
Ni 1.059241043188081 5.341505297858111 4.974700703088498 -0.19053082843614283 0.6250261796475364 -1.4647384448211807
Ni 5.094156501659067 2.0534437756187174 10.81879418082224 -0.3945116117296044 -1.039373080935513 0.08881027406618898
Ni 3.0321042992584815 6.406193640616359 0.675268517061577 0.8446888924526292 0.8142413745960493 -0.3689779862348742
Ni 7.290114429072053 2.1119904858521297 4.448339153119855 -1.113926845082688 -1.192303839630695 0.018006463879749635
Ni 1.287924135851355 5.498093992237818 11.288286487765346 1.0384839934623404 -0.5346709296917308 -0.6741219087329229
Ni 7.962211469993556 5.656470228790809 4.2352801198627565 1.9473316799810658 0.48617889562861427 -0.2111690735117847
Ni 3.14934824959253 1.901747301923789 9.045969124494068 -0.5220442420666557 -1.378224422988336 1.12140875528203
Ni 8.136468607538673 6.47209749811034 11.487438442914293 -0.16074665519517478 -1.7105665031677315 -2.68542340669773
Ni 1.4455853555350324 1.7216759482571469 1.9925760829950456 0.4278819596599341 -0.04917594750401853 -0.09576253701430604
Ni 4.716411207977284 9.398520422460912 4.552492649875441 0.5754730513097573 -0.03950500007315778 0.41086948426233755
Ni 4.4714991140039295 7.655770292792415 2.370018435319041 -0.7469196094209394 0.018049915523175367 -0.14566662093360075
Ni 9.224263284915796 0.004392649687928687 5.035892975738371 -0.19472712590567753 -1.2853296944401285 -0.34604117493304276
Ni 0.9515933718895588 7.241587363125735 6.1835721975438585 3.0776217969131254 0.27120973164444906 -2.9602779341836176
Ni 7.761047118682159 0.8800634606080814 1.2744667657215345 -0.4347738016837609 -0.2571982478567055 0.06857003575991416
P 0.5308031218634187 6.980512124659209 12.513489532002836 0.04401625767995 1.82790033859491 1.4431501771274438
P 2.061525347865303 0.1576678053653684 5.721666595908839 -0.2559211809164948 -1.0030012271746986 -1.7011521518323671
P 3.566748755171121 7.77469829601603 7.910765065434763 0.9167178332954212 -0.7278281400071271 0.09977705749033783
P 9.35707766839082 8.03699658965375 7.597998811375205 -2.5024853030071803 1.4995460394186693 3.0828478211987553
P 5.68954916711327 3.586195332393114 9.157297251046215 -0.05309173761865695 -0.07280798510066169 -0.2940462699229904
P 6.673732255256812 5.705749944073247 6.703765786202999 -0.3088941335691002 0.5473050735159736 -0.14004824630555882
P 5.962290470289653 9.446313655304515 6.38470738369348 0.7892085999971377 0.7168495295084364 -0.6455335555722689
P 6.90294220245537 7.968195032215707 10.17588582196713 -0.30827166949375295 -0.1651087888186124 0.5874875592721301
Ni 4.917359172604547 4.852772451448774 5.599666842582184 -0.3443599305758779 -0.8439319596819467 0.29216756484303874
Ni 7.274788606965315 5.927273459926683 9.154047687537517 3.8409216474643015 -1.9334765192655279 0.12462959775764341
Ni 8.813053320126789 8.770368694652099 11.260196673729688 -0.0017306095378615358 -0.24204185183124116 1.3755044529540117
Ni 7.933610795221007 7.273273900176375 1.6770287896385254 1.79729675477644 0.7295386949403306 1.6907044741364818
Ni 4.893556637349761 7.515297702322371 6.206788607128141 0.3836630990508747 -0.5208345380292708 -1.0150962106660197
Ni 9.261030204985243 2.4506826871060015 0.4534787515054896 -0.4529700129768135 -0.04336114059445435 -0.9257308354273089
Ni 7.502549704191844 7.41432038576521 13.246232233993853 1.8469324155256965 0.7493349037306514 0.03150115593207478
Ni 2.236676256497062 4.334244099445797 0.7043612363376145 -0.4620992289715913 -1.2024201021290906 -0.19794409018107845
Ni 1.3336663992540307 5.76424020560645 8.4372780860823 2.336220546207254 0.03997936860641502 1.2604308743159196
Ni 5.05921475622971 1.6966879902979723 2.764851691365753 0.4537724542734507 -0.20478682413452473 0.6523588060242185
Ni 2.8347031946276835 3.5102812387287394 12.103784865886068 1.04993954359745 1.6318699204967766 -0.220297261065298
Ni 3.8571961339797194 4.033814708816911 10.172842296214194 -0.7706259518989437 0.9631995217967284 -1.0619303974107388
Ni 6.528988379804289 8.57144347511566 3.137845886113281 -0.13937178906382447 0.5537176619105367 0.26074251356453804
Ni 8.778026901647118 2.7225772597792486 2.7708277270945434 0.8172259111456699 1.1814237023830816 0.5177726112744954
Ni 0.9582355022808153 1.848083404258453 4.378650410276861 0.22849188106094842 0.26341723218322377 -0.3682323663181013
Ni 4.409349095073844 2.1124702998039058 13.400549809001818 -0.4170910396920171 0.6702354291943231 -1.0611616375655144
Ni 7.003665499861591 1.5735921913755928 12.784230669568478 0.7772745675637129 2.4635498022842475 -0.19838169193912933
Ni 7.092920303008688 0.7474823984272533 10.317644501990268 -0.05102791311109277 0.07027030628047252 -0.15402013510461862
Ni 7.286482896025276 4.0032853701205555 13.749860010765001 -1.3256440777884588 -0.6734629349926854 -0.027368878931256092
Ni 3.709055928397956 6.624998210743061 9.984623513484056 -1.6414015141362956 -0.2116213305578549 -1.7622364207381973
Ni 2.3215845097280674 3.4853779538198784 5.095474578808948 2.388968527333247 0.02068632470475792 0.7237539699377535
Ni 6.374422430515405 4.0826898750811855 3.756202823624165 -1.1728853258947671 -1.1303896186244016 -0.17135194151484684
Ni 8.82574486955711 5.829287924480597 7.461183155867033 -2.457614410636419 0.3280691638356543 -1.461494483962586
Ni 4.206670036973506 3.0358863621724828 7.434882765628 0.6646234823241844 -0.5256586988907915 -2.225626086386438
P 3.5009389788441534 0.9922928847402324 1.3637131015635997 -0.7044884368399221 0.884769819633915 0.27335763122538725
P 4.660592851587306 2.6749721892696767 4.708559193778216 -0.48264440011279464 0.7629422101014408 0.45125611560950024
P 2.065128656561976 8.128434075875596 1.7291196501913708 0.9096087330544657 -1.811288955290474 1.9727668322247187
P 3.299595873315428 0.5358929129989283 11.600914442509392 0.3567991847804952 0.6761733919453129 -0.42109681841730057
P 0.3060808463314747 5.336509587889616 2.380786024883904 -0.3834165302577074 0.39468953206836543 -0.102420665760772
P 8.998440259729778 3.83293260100656 5.06990425842595 -0.5668009774570562 -1.9743557739783935 -0.4503611145990566
P 3.9842433419167267 6.005257339265387 11.9766765051905 -6.64089078532111 0.8447038048509646 -1.8856856250344944
P 8.534431944011972 9.239871350523579 2.8973574886129687 1.3463363160304875 -0.7700158291187705 1.0180010430176405
