# total energy = -340891.6887242097 ev
CRYSTAL
PRIMVEC
9.07887748003930 0.00000000000000 0.00000000000000

0.00000000000000 9.07887748003930 0.00000000000000

0.00000000000000 0.00000000000000 13.28785489903609

PRIMCOORD
 96 1
Ni 6.578236846385161 1.807976736146498 11.461983832754328 -0.32757731180090033 1.3629713534840073 0.7108858557258337
Ni 4.463339578845486 0.4594438569359521 5.752019958404801 0.9122184027631709 -0.9437177589230328 0.9240315933480152
Ni 2.702119061615005 1.7488823227631285 4.806855249502095 -0.6935720470377345 -0.2611844861979631 -0.13718403738388632
Ni 3.4603505915159842 4.571732296833511 4.991928166512386 -0.4939055748489107 -0.3731362313776219 -0.050019012230604176
Ni 5.072495940862778 4.602791136622188 2.885178283604797 1.1603581399620337 -1.488476926088701 -0.7302586038254908
Ni 7.018199248068687 6.247920047779057 2.835827321510877 1.615960705465688 -0.5961935716865603 -1.8285176604639348
Ni 5.1612782835384525 4.617862073204827 11.267662263276124 -0.5835010638205563 -0.653309857083578 0.4721309021759804
Ni 5.771306217791848 7.71635584582068 12.404344984297564 -0.5645363497925955 0.13931728167680524 0.7078627526287938
Ni 1.946202645466178 6.405039101091791 0.4649538276660745 0.7154475069545871 0.3819283757479552 -0.3392550052491448
Ni 2.957371701386618 1.6253097216629535 0.452095413520297 -0.30944460675593155 -1.0776961448854279 -1.0090973127701073
Ni 0.5906499782040081 0.10569992293355958 4.661684906813704 0.03743089115294844 -0.3482574658580712 -0.4019981499146367
Ni 8.823379689957683 2.3296581138422705 1.3062171392599318 -1.4900460703480338 0.1498778308014709 -0.33342400038966447
Ni 7.125402633109527 0.5644819297027199 4.991343486803999 -0.24285252065799462 0.027114853938921043 -0.1552789472123842
Ni 0.9928932755946261 7.524964030098632 2.412462923598663 -1.0039674477427096 -0.30155363404362906 0.7567047138321613
Ni 7.771973049137091 3.8996865506548115 3.847099876634355 -2.073963909991035 0.22781182427478833 -0.3736298831845888
Ni 7.693495232377859 3.821789782052982 12.66102663938129 0.9900572654195208 -0.5022431481803286 -0.28249533186059733
Ni 8.000388527138657 8.556651349077363 7.358468312145808 -0.6077475950727469 0.1494793098114716 -0.35707994924570763
Ni 6.907246286637108 0.5961908171174927 0.4161993478212394 -0.3216684025156331 0.22982782626355255 -0.39219401934002135
Ni 1.6751164434053354 6.384366497116691 9.25460548786201 0.9833374301971839 1.0609353804873214 0.21607936632920852
Ni 0.2360953004444894 4.719590895137636 1.4593523811434728 -1.1847537951975788 0.8364395079596435 -0.3267959535501856
Ni 6.387852786061107 1.7847620464827592 7.138754030301351 -0.16872890206970295 0.5668734825662044 -0.8942571902990598
Ni 3.349052632740946 3.895201585189857 0.05252402976598658 0.22168488544144405 2.304707820310953 -0.3946856754136235
Ni 6.025841626244167 5.931076303322733 4.813831458941914 -0.30776696194319253 -0.5365108111139469 1.0572394196929726
Ni 5.2687086405157775 3.0354772841700144 9.344763280472788 -0.897036809926726 -0.12997080746489875 -0.944537940831483
P 0.053405588767296334 5.670521599114819 12.667232052124803 0.3917211934686609 -1.5805041644302908 -1.0566295540231156
P 4.12930951935848 5.9269000196914 12.659684781292787 -0.35990559161996083 0.9407514772058574 0.4692957467200305
P 2.466740084602064 8.5607822383214 1.262345279712773 -0.1204942354330312 0.07062434718578159 0.29916893586153637
P 6.334750431800956 7.808261322342395 5.952254600772324 -0.3412764065545478 0.8762206445123233 -0.5442657724690175
P 4.788445101789882 1.008490787069911 12.39645271612209 -0.11481364010848613 0.021923282435652565 0.9821230981741085
P 3.976875166814806 6.090646653549512 8.325624785918468 0.722973125907671 2.1784314309785064 -1.475081992839034
P 4.5098143525602605 1.2501977416720682 3.581421961876089 1.22157353512909 -1.5802653089466074 1.0321367110880741
P 0.05632898730922979 5.608186026478436 3.4644760334335447 0.7937106016325493 1.0870169080657215 1.1524885074059699
Ni 1.386389982440838 1.1851657424302375 2.4080251682964984 0.9043066041152619 -0.5962581063759086 0.8561943219890675
Ni 1.8692137646102907 6.697578690589245 4.608121345578614 -0.5302576311153836 -1.1689901046054187 0.35682206759863067
Ni 6.391484337044877 5.700863207584203 9.301777519365668 -1.1983353905367555 -0.1658585225004434 -1.6989037221178225
Ni 8.872723388949634 2.2627740235987184 10.243660214066793 -0.17466403660721533 0.36365785957354146 -0.01638306934371372
Ni 2.2327320180854953 5.407497440237941 7.092565241226548 0.6330261671338776 -1.3390613796356294 -0.41303332468287574
Ni 0.647105161909924 9.00600131005393 9.104173935685884 0.7000023760441106 0.5320990551994964 0.24226142404121506
Ni 1.5410214233296915 0.880211695894772 11.545683819828218 0.0956254972158095 0.5245970903954966 -0.43698417907151843
Ni 4.480689313670439 6.749473554147294 1.6292236257357096 -2.2173432775523554 -0.7184667533968851 -0.9518856394458057
Ni 5.592497726228558 7.756493563068779 8.05795405755786 -0.14538559935807222 0.464300093277652 0.528984935050547
Ni 5.126769470315194 2.752234465191007 5.166876319379932 0.2105880041973341 0.381504143726343 -0.8100368495963984
Ni 1.0442797220149473 7.407855589749564 6.945588201923733 -1.1704728597985326 0.523486373829821 0.06904723250664882
Ni 5.134622699317593 4.9298395393428995 6.822077337190281 -1.7953026071645468 -0.21711629223415513 1.393790652857709
Ni 8.535134409498536 7.181864172029664 9.628791422352034 -1.833015291223972 -0.29298517564832766 0.03269723312270498
Ni 4.46640823942677 0.20966124083364007 10.260496084427542 0.09564092383477721 0.9757889284259644 0.12912748562799697
Ni 8.389273164235481 7.166039688617895 4.941846354782983 -0.47105078173792425 0.0967783798733301 -0.3599107338262834
Ni 7.218524679210804 6.106226007269878 6.987962954577832 -0.10789968659747223 -0.31607033960256536 -0.013133966278796736
Ni 2.4942490833041084 5.2471372276721935 2.4722455158934564 0.014280164068097987 -0.17404877162071958 0.7849104868424159
Ni 2.2945864102165285 5.377600696764069 11.527998166537266 0.09208508816271882 -0.7951961850391402 0.2520948651918691
Ni 0.9515753042768025 3.429591354683467 3.775677255548838 1.4270015923920392 0.006084258520866941 -0.12820908757878566
Ni 3.59362851262028 2.8274348071873887 2.6087382675061335 0.014821381283548669 0.46003437602276254 -0.039663637138209105
Ni 1.0720520081633154 3.352375501891094 8.243957559507741 0.40815954153034223 0.06929277285855164 -0.5430987487441098
Ni 3.5267535012541873 3.0512926887043252 7.246770882762555 0.2019413842659296 -0.3069796901552068 0.28897965403336034
Ni 3.9235730772505475 7.042240115581233 6.090395168643886 0.7245479265939586 -0.3565927251966439 -0.8781291743889458
Ni 1.0224541006024999 7.352183913168396 11.65235881420092 -1.9829710264512301 0.4014623320158247 0.1265113881613886
P -0.045924593740733675 5.864301159608694 7.946469073907156 0.9356115848761306 -1.6249518532207048 1.401640487919431
P 8.32115434665745 1.5390149914111595 8.150836421294208 1.481544460634926 0.28074955281408426 -0.8320154107500186
P 1.8067329299345571 3.382608163830965 10.401227763926023 -1.171961528528917 -0.73211288342541 0.06086006871016616
P 4.114547264609461 6.222326692220951 3.718008225926598 -1.5023727102341866 1.7449640068109948 1.3442722344126075
P 6.966622145221718 3.7652011388484126 10.3071760407729 1.5488909084003841 0.6885961910896979 1.294698280139222
P 6.445076950687837 7.894991838712242 10.239088999265974 -0.719518077479535 -0.8642189920657567 -0.8289470562373401
P 2.3322092784083677 8.649800631811019 5.911992502903032 1.6998658289207755 0.8440011223569852 -1.2000891400030687
P 6.842368628312087 3.902010743284423 1.624360978968444 1.136982441350571 0.14912295491331737 0.33876469587628755
Ni 5.416921315040821 2.924596953758109 0.2778499657681111 0.19585378331095304 -1.1071270485520353 -0.21857307928533973
Ni 1.0171429572887387 1.0069746145341876 6.913577895777307 0.546212354672427 0.8717127293396407 0.35025469879375803
Ni 6.7113150321853485 0.952837268243662 9.37127269476655 -0.50865650790584 -1.4747739746803117 -0.35823745988891853
Ni 2.4901091151826127 1.4784770365117423 9.225146346281681 0.5709142282944814 0.3119830569070691 -0.2838832133470595
Ni 6.430886665218763 2.055793775278845 2.5476274354390265 -0.2605255124577255 -1.0746943819446266 0.8018563706681351
Ni 4.285829366758892 6.966585829711881 10.45533605780868 -0.12986282113212474 -1.3255504896333878 -0.3624975207168531
Ni 8.072193368965214 7.170424786430795 0.38600118561571434 -0.8667962658746298 0.23559326799242009 0.646605448480209
Ni 7.783875457486392 3.748259953509134 8.273882447501737 -0.6386828511990227 0.5000191439458163 -0.9984233779960289
Ni 3.251227728115688 8.372513556445393 12.452819834716648 0.771222190722046 -0.25543138576426977 0.8281039915107544
Ni 0.12087980604571098 4.879469927198033 10.311296035363986 -0.7566355511571228 -0.8628185121738043 0.3807536387135636
Ni 8.45719224650941 2.595396857079515 5.845606843032001 0.5794109529115827 -0.5513301355149666 0.35693519613772723
Ni 3.616253075249156 2.623659402610691 11.18611487804786 0.5327526296230954 -0.5018811368552195 0.8024256129080438
Ni 1.1024480898974556 3.0680432176169563 12.585564825714075 0.22775757399808516 1.1700527415419784 -0.34206033590842383
Ni 3.1752738392901745 8.290685633903633 8.008045652387931 -0.30187296505626077 0.8510318039515216 1.0655787927966036
Ni 5.577744550356999 8.077068726160924 3.6505721399335127 -0.6016769633986347 0.7744638375877952 0.25923687555328906
Ni 3.0415510531903664 8.519300847209307 3.763664992782279 0.590756459831389 0.4650487985182184 -0.9822974189684438
Ni 3.295578044504958 4.6156286693498085 9.500576791206857 0.8616964827542193 -1.7355278010987596 0.22489799306210304
Ni 7.173057660894026 5.9336728622761274 11.37633007125117 1.4182976368601379 0.7413966227201811 1.7020240129143591
Ni 0.46540777153904556 -0.13792539847577334 0.23270615548888765 0.5822736191713584 0.6619917011282922 0.7551062589967898
Ni 4.551767845300244 0.2476944742866453 1.5401153513592412 0.4244521080427786 0.0686422837587463 0.04255818507718477
Ni 6.184794612803705 5.367668404823464 0.2894209950901428 -1.1082164249614719 1.5013069879738339 0.23378552535971994
Ni 7.890597662021882 8.884180932303424 11.428193158738111 1.3555683761517172 -1.0804832207122617 0.12786198865201204
Ni 0.09133804668050197 4.980799278522629 5.847559709573523 0.4066220218398932 -0.3775150771716079 -0.3729110027406933
Ni 7.925151869632437 8.891189825702096 2.5336613982431997 0.1829877259815623 -0.2980461351110028 0.16780998979985937
P 8.550977050665225 1.6507396574267907 3.580120050848408 -0.4268735730000778 0.5725419937058913 0.16231219991008175
P 1.8978485441173034 3.3461110764440933 1.4788320206204058 -1.214347963914928 -1.0325532298002025 -0.058002030436080744
P 4.574737405272578 1.2594672755581366 8.201808870902381 -0.6725897883591127 -0.9880255797014726 -0.0649344958898559
P 8.662910530862423 1.5660791251176926 12.383961996513417 -1.0249975289401316 0.10193755547676638 1.2658828985694264
P 6.193192574453669 7.77715708816642 1.4923323114025642 2.9244768653246087 1.5234506139504085 -0.7089873531515403
P 1.77502948984626 3.2354667968461333 5.970977061869142 -1.2068907363059345 1.1747000105060028 0.6011478303680422
P 6.74514292959915 3.9453986986629945 6.047847917318057 1.703623239080679 -0.401840798401166 -0.5987826725699752
P 2.370749113223609 8.311567052060301 10.431630200874386 0.9804613942009696 0.46488013415083806 -2.530242675626107
