# total energy = -340889.385683294 ev
CRYSTAL
PRIMVEC
9.09832533995350 0.00000000000000 0.00000000000000

0.00000000000000 9.09832533995350 0.00000000000000

0.00000000000000 0.00000000000000 13.31631880784430

PRIMCOORD
 96 1
Ni 6.504128870511125 2.0063080944000946 11.357382091380337 -0.031225276562868803 -0.004983055036888191 -0.1681257212680653
Ni 4.7054627549894645 0.447527512613904 5.533076444294198 1.322223225032368 -0.3597757509103159 1.6754701736852307
Ni 2.951787857834022 1.7230408360353082 4.483045095903398 -0.866602918916901 1.4568338452621235 1.0586548119832606
Ni 3.561239174772586 4.828508505684055 4.92317657992076 0.41261706308106355 -1.6205190142603318 -0.6158959352114942
Ni 3.861811447764784 3.2062589167793782 2.4545034240874224 -1.2102339417465544 -1.0740320657702793 -0.35710848849079785
Ni 5.445202089522417 4.726952999232338 2.6926129647338963 0.2711264279020234 0.6202580688349318 -0.44953733314618066
Ni 5.029790755212036 4.468314907322021 11.557299592120668 1.0790472595966836 0.9270274427515454 -0.5112414950241969
Ni 5.637649865231673 8.220427847535438 12.54280015883619 -0.33170058994065454 -0.7729201472497592 -0.566624856890508
Ni 1.9783944325300118 6.62948559581947 0.5121119744081623 0.9907540343762292 1.1191418136247242 -1.1626063125662622
Ni 2.8560279845671954 1.8866833139998822 0.07153103312340053 0.8137873177777663 -1.3385792977928883 -0.14048816205645484
Ni 8.499446188008006 9.03229870465836 6.444019874907836 -0.9416217956259524 -0.751873610992105 0.6117672577551012
Ni 8.747239076219124 2.3683122594870776 1.2073586787986514 1.2475419341683933 1.276415422669634 -0.1064848085278166
Ni 6.808922766419789 1.067360928496389 4.516349515484701 -0.0486774106010452 -1.1069496424339065 0.6268709461657591
Ni 1.2444234362061954 7.621339523057769 2.7051968583885615 -0.4258032227540344 0.49989136011870045 -0.6168446722780085
Ni 7.768877965328065 3.73828348583189 3.66096227851875 -0.5436142549279476 1.0660202512093964 -0.8079874232665376
Ni 7.704980427090257 3.974648877527746 12.379781825983834 -0.8758010404764014 0.19700563752720912 0.20966574949338085
Ni 8.113167691151341 7.0912256023079685 8.983694541334966 2.1886952747983597 0.026928706070043943 -0.9164710073919378
Ni 7.223069433520281 0.877264160031993 0.25871906700505026 -0.7154649904560839 -1.3301208826128899 -1.006595115173544
Ni 2.130800478809595 6.568444931710479 9.206330560227055 -0.9663961743571551 -0.9741948444659674 -0.3194765370706369
Ni 0.04279670231567686 5.141327124464104 1.2325355644332323 0.7384298267823735 -1.2742929770099924 -0.20691903998617914
Ni 6.4551161923839615 2.23496720460835 6.91238073268149 0.4832038721606904 -0.3180112653790201 0.013112111901925806
Ni 3.298188395115532 4.32978380705022 0.11782786116313898 0.36873244588297144 0.1716923555734011 0.33046671753355344
Ni 6.123382155407072 5.825921509650718 4.741408418391134 -0.22823914162019404 0.22436140383234263 0.007060763501523324
Ni 5.148314638256877 2.9635246974078187 9.392212984435186 -0.3702599382710914 -0.3752345086675473 -0.8724436939683943
P 0.49351044843248276 5.8842053812086546 12.467216731645992 -1.1247085090792242 -0.8038160654976673 -0.19783764651020122
P 3.898295732021313 6.436837656954692 12.477031095094251 0.9249893292755941 -1.0278306275135523 2.2685537389878996
P 2.6974350771169293 8.696379438066007 1.3671598438422516 -0.1868891179184975 0.21823189389583705 -0.18356776685474838
P 6.64215956289412 8.004824834062374 5.638142994460277 -0.6172653047551949 0.4298799639265693 -0.6696425328053306
P 4.730010036516675 1.1592813085072915 12.351870893611327 -0.41421963168149306 -0.41871340578678856 -0.49505922883737963
P 4.147062141034289 6.0800559305617865 8.321154496556789 0.18606945023067956 -0.45220048180064054 -0.02145919831504046
P 4.6929980493955865 1.4562142513990874 3.356697905139694 2.9639319859964375 0.15769809817683808 -0.08723315938705621
P 0.3049713132510588 5.761441678596846 3.48160517318064 -0.3699339223902403 0.14099981158555072 -0.5825021902423968
Ni 1.0084765674718852 0.33366197209757764 4.8386576875015495 -0.035162149723429764 -0.44655202526561155 -0.6047707718326101
Ni 2.0172442813518026 6.82621868272195 4.808549509580924 0.6708679205719994 0.23825924486035743 0.02491758917728612
Ni 6.16374232622053 5.74328142139584 9.45811488372579 -1.175522506407298 0.3649812063706553 -1.1766530204673156
Ni 8.585188805173477 2.6344018797779674 9.964574978488027 0.3535228280220685 -0.012590949291133153 0.2740356311290184
Ni 2.3774196830633336 5.129453810011543 6.907534054820281 0.7860654263824656 0.7608357052813994 0.7125768702750115
Ni 0.4265913563788166 0.2639506040243781 9.168485166512975 -0.1762473219339352 -1.0143896715172982 0.7517627964458538
Ni 1.4371350633477302 1.3674418919250328 11.249279430077996 0.5709481668562103 -0.8861589866719577 -0.5155308664281701
Ni 4.360636227976379 7.188432109289705 1.5157964539703432 -0.2424018062738212 -0.3434721286542859 -0.5605827644614861
Ni 5.880347691302228 7.681033635029613 7.83773227116262 0.3224191646387286 0.561430200063446 -0.03793251337971531
Ni 5.477583029090744 3.1833948254236026 4.710914471479866 -1.4345007289825618 -0.49714362217023406 -0.46783381746252334
Ni 1.2925899700850154 7.414352623597408 7.183421661573977 -0.7301632158982071 1.2766830745087239 -1.0893668963551368
Ni 5.317752749406341 4.756367884768836 6.978816703664329 -0.1824501083105374 -0.38465014555449234 0.4230035485217102
Ni 0.7884845218977374 7.422895951008102 10.936732851222951 -1.005763620411184 1.2334396904390565 1.3281311058763707
Ni 4.792843070700115 0.08736848788782477 10.33675198103816 -0.18459132302325632 0.9487005568496049 -0.835301280590142
Ni 8.623665622659976 7.455222300624922 4.544646216847852 -0.8784006828827776 -0.048337253652807076 -0.06794525769172169
Ni 7.598575513279755 6.330359956542182 6.623284177328386 0.5678188771986091 -0.6669626719803222 0.7178915976197057
Ni 2.697207618985654 5.349178364823311 2.24578420349927 -0.3473987174022017 -0.430087194841369 1.5975233246961067
Ni 2.4449747480520454 5.233929878868833 11.335688954484365 -0.07898146090122525 0.2779964155489793 0.22348645742655704
Ni 1.1264090593754108 3.807057726404236 3.6060456971362096 1.3179821903678268 -1.5796433590918926 -0.6030162510353485
Ni 1.4714539461945209 1.1870766921491116 2.57010310539659 -0.012392974347714142 -0.17078475615746716 -0.533467653412249
Ni 0.9126530059283016 3.429568211740042 7.760896914417883 -0.36844525365985575 -1.0268929461906315 0.36554813461771885
Ni 3.727492872084198 2.6835874260848995 7.087104970801788 0.03877737787851386 0.7891481790728474 -0.8181024002133523
Ni 4.1202675731700795 6.7734665929166225 6.29208057271363 -0.01626094194355264 1.0710411014627554 -1.477107765019811
Ni 1.074785161901209 0.3252150869345447 0.07359089396022805 -0.7807013338570749 -0.6142992801483357 0.6921461132244854
P 0.36170392035369986 5.624739341700497 7.942930747044839 0.004346192783837676 -0.5608527302934211 -0.0956218976713837
P 8.540115701879998 1.5696521706286166 7.794640783108811 0.7496984577176573 2.105630130746064 -0.7717006730203613
P 1.5661129221059757 3.312281700929338 10.34250485209437 0.39845362709648796 0.5928601364379531 -1.263796705464359
P 4.060973787509281 6.40512089512969 3.6568744009834733 0.5896290310951652 0.9665452983405097 -0.5601580182192417
P 6.811952508728374 3.957589517682112 10.253165666957177 1.2049539242945377 -0.34793504952164594 1.0656947495491778
P 6.589462063040299 7.901959168774514 10.04318086932661 -2.4758777277219814 -0.38170186155944585 0.797263094870498
P 2.7635617050412327 8.766482034125 5.913630274902929 -0.4315804915574438 -1.0795938761287731 -0.14711800866814664
P 7.0013523454785425 3.9531131416586174 1.228766128281741 0.25557613887225017 0.5315807208021813 0.38846283443236324
Ni 5.3168975068327455 2.7286878243541306 0.34749870513930586 0.10934670345664395 1.6703091983095815 -0.3297329246913224
Ni 1.7222037901122158 1.0091407452152086 7.291616215961352 -0.36432737483674027 0.32357333284782985 -1.5475760462437025
Ni 7.114517314950541 0.7724942152690962 9.129840939841857 -2.0432554251635846 -0.11150540167085957 -0.14753812692470075
Ni 2.8877265497416964 1.707537289807596 9.16861800206164 0.33255985261715626 -0.7701297289888156 0.5347362357120274
Ni 6.644042916221078 1.84130086764787 2.2168870126695532 -0.3883239948616538 1.5229032260873707 1.8221788627301005
Ni 4.169953527365817 6.78403884685829 10.446372242992366 0.7928379692196088 0.8778885191330494 -0.6597404432002703
Ni 8.643117842046625 7.558206244141047 0.21747453897719485 -0.23879352009727262 -0.25131453538241877 0.14647934664288323
Ni 7.610230467926293 4.185493466894534 8.08953024214923 0.3409665886236128 0.06638022719744698 -0.03944946424487399
Ni 2.9651078060014937 8.40768047952637 12.050961982584841 0.43662576729083513 0.7052862501508693 0.6403268145603488
Ni 9.341341518459242 5.216834125722194 10.366674553123664 -0.9739354201569937 -1.7642513942856972 -1.292435452246974
Ni 8.717123619638299 2.4122298754736784 5.509906649209989 0.473851484411513 0.5006796603479506 2.00188663240881
Ni 3.480855471179957 2.9173052051327133 11.264433600616071 -0.08423139644625492 -1.3198863493690753 0.30087486280904957
Ni 0.8939614065326371 3.5823199943791635 12.479174660523388 1.0012994139922433 -0.35290987702841803 0.6343382010770816
Ni 3.5107434696295083 8.194233769137796 8.158029713298996 0.06914313465456479 2.3636863557276904 0.05859544104570554
Ni 5.941169995605197 7.775765397543076 3.3312635369005097 -0.24633070901458226 1.04276565155683 0.6309877965476102
Ni 3.5948028966235426 8.783186559285845 3.5252953310359656 -1.2233823062030544 -2.20519944310097 -0.7288213571583319
Ni 3.0320532831983873 4.310659127372608 9.014681617474839 0.7111547931165043 -1.146547973551819 0.7138292546248738
Ni 7.432239931040884 6.333589862006289 11.478720086425314 0.04824675082152981 0.2685977479428987 0.46502308748660554
Ni 8.084098541974381 8.889582374771095 2.487462107309188 0.96299486198509 0.1122296814313938 0.09782199064649605
Ni 4.928371723639084 0.5200939351508689 1.2670236761296916 -1.0979620942233155 -0.835203064449381 0.3996455905220601
Ni 5.829751904581391 5.698144629825604 0.13854929692230264 0.32605650428099975 0.21600737544069248 0.5857394662327718
Ni 7.799648501326963 8.915348831881941 11.372029485201928 1.3827361948157606 -0.3268535462609984 0.5092586602662132
Ni 0.4299613760517888 4.972271142975183 5.619140232341028 -1.2234951776318348 -0.17305966823457292 -0.0875738305559266
Ni 7.3391640637231035 6.148957547687647 2.3244301269689562 0.5104771060543467 0.10705482209867369 0.40508064549470235
P 8.624020457344765 1.7010046922773745 3.5260013610754433 0.3808567399503312 -0.5319684431589031 -1.3138679110891371
P 1.8652385613832638 3.064234059611192 1.4734373810992398 -0.8074330934249642 2.112371820345272 0.4117436593371747
P 4.929963930558009 1.1315223181664755 8.004519130333941 -0.21691574618757484 -0.9800320199730348 0.9197872162493642
P 8.676808940451096 1.592179623950105 12.21146371867277 -0.44050221952710583 1.4738316653717005 0.5001047616810871
P 6.702599737536546 7.932001838753331 1.1072397979040687 -1.144414215038268 -0.5938512967066288 0.5036788521855907
P 2.072953326863706 3.228204077284802 5.720810377690908 -1.1864491806221307 0.676301432882745 0.44603523353019314
P 7.0359350797576115 4.0987773289272065 5.783463265034378 1.6078630160592178 0.6403975198972842 0.5366038850483856
P 2.285517499702933 8.635957460074083 10.009982900150742 1.1960262827876047 0.9270269285309132 -0.5939289440220997
