# total energy = -340862.1753086986 ev
CRYSTAL
PRIMVEC
9.29632851585552 0.00000000000000 0.00000000000000

0.00000000000000 9.29632851585552 0.00000000000000

0.00000000000000 0.00000000000000 13.60611647024362

PRIMCOORD
 96 1
Ni 7.240835933390678 0.767399836196401 4.711389532774662 -0.3150773795616767 0.07903442562634776 1.235192668574421
Ni 2.151532982220905 6.59086453048132 2.110213590735126 1.813549983410509 -1.6000134381078122 0.47527099046685894
Ni 6.914655653717914 6.503339597226294 12.0087722438085 -1.1037077384578409 -0.238462362010099 0.47593896306816097
Ni 3.7359992195004086 4.052288205600858 4.930979038978622 0.40321248193771203 -0.138621026940729 0.8279983191708256
Ni 7.670865499244207 4.948593722306463 0.5289229792867338 -1.0957920831551904 0.9282991103751174 -0.251220947227348
Ni 2.896959086634523 0.2818191294869273 11.520597861434856 1.0318461764308486 1.0910476264916693 0.7271475690003347
Ni 6.072278138904226 7.869797633787412 0.8616655372797023 0.3620303512724474 -1.946152057850668 0.4185473125225695
Ni 8.447415711627853 5.206176393642655 4.866704223415664 -1.5659828308856645 -1.8492278964280926 0.8381431209143114
Ni 7.1881164542096645 2.2134372340047834 7.148177567512878 0.2351708357430208 -2.554194558456014 -1.2227325884341975
Ni 2.673131384246711 8.82933677725889 6.607347850625184 -2.3487521030153613 0.53849236032035 -1.3721345080405143
Ni 1.6267831248182054 7.285811570893367 8.017444712644162 0.8794396656702532 -0.8803567781678839 1.5524945665912424
Ni 9.017745467888693 5.312981912300858 11.9249584049088 -0.962320975846517 -0.5797215421734662 4.639845674976989
Ni 4.692303240638084 6.43016819524538 10.80510686457031 0.43126116054481206 -0.6181844741353547 -0.15951329700870592
Ni 1.020801948585722 9.395892224130293 12.644885609755217 -0.7360798384929581 -0.8784881003902612 1.4744114491345703
Ni 5.839916406911729 5.268452498568349 4.60980669149327 0.022645248203341645 -0.7955440552968621 -0.22213045761929484
Ni 3.5294533918785125 2.509729817404058 11.301417393686897 -1.2248581194176322 -0.15685657611214923 0.5481481382425591
Ni 0.696255033838386 1.3453181854488583 6.463667515158761 0.104462121670833 1.2016305163482595 -0.9366983901824062
Ni 8.651944235955396 7.769332211197177 8.914755162465525 -0.4130634065898628 -2.6035327425695094 0.9828149820348107
Ni 0.34313027550960845 0.3793608567496308 8.449534344903352 3.6309856750286693 0.41438906737982184 0.22386440959126608
Ni 4.326000006963334 1.407036510661828 3.9073640213750593 0.1446003844526155 -0.8536574144998267 0.4690707751934179
Ni 2.922914435933304 4.888623106860029 12.38215091313916 -1.7756745485209744 -1.7499118377345733 -0.566551066229779
Ni 1.900625074780317 4.070955233320039 8.808967591783043 0.15146214456945525 0.30802895735532754 -1.19554111562107
Ni 3.440859380840765 4.443710119005303 1.0814577034459518 -0.719728136607812 -0.08049429800132588 1.4151212960146853
Ni 7.143326743277883 6.754424134909245 3.2082810443931598 0.1879281007059731 -0.1635915808431376 -0.3930414549419811
P 3.3304004050642155 4.689997751158821 10.30793921396184 -0.9811661335774778 0.41715197483693967 -1.1486462508417445
P 5.564577748053807 8.484080431410945 3.718537925593567 0.5428169558376329 -0.8104109451063656 -2.1702504378296106
P 6.669715989203478 2.5752410446635547 9.340068700847967 0.09356295825982595 0.22485736963215466 -0.5377608814709642
P 2.7996265267640905 -0.23600124461802463 4.311383389591387 -0.9523502377870503 1.0264733421547096 0.5401234681658698
P 5.713802413864711 2.829216740524128 5.14991501328584 -0.30605409301714387 0.5422883370276725 0.3177886078452527
P 8.32084619848211 7.266698319404005 0.5983860758108841 -2.0570594209262123 -1.5277687817097882 0.3022000093783763
P 1.189149162214533 7.793558443386513 10.408284713913838 0.39216805119809234 0.36120477004735857 -1.737718380992175
P 3.1473185106909316 6.668414503207121 0.16326119228161765 1.586522859820545 -0.47938784084870983 2.0475319410517514
Ni 3.6320197847200095 8.313548580573965 2.445494976053846 1.2031060724525215 1.4219730288291963 -0.711148365358601
Ni 2.2306261454852443 2.5898083914942105 0.26802523719124943 -0.9149833671028177 0.5884157275133544 -1.7333637035679048
Ni 2.0320193824411272 2.0874626858859466 4.225801389002353 0.6495737870799135 -2.118700590776777 -0.03593605177497682
Ni 3.8903368660112885 6.9954314524489725 4.456873720225602 0.47290043335215326 -1.2501438905676148 -0.992449419800781
Ni 1.0254222238727904 7.287289687132087 0.04043159210969267 0.3652552859676484 -0.7205205506021204 -0.40496391741117993
Ni 6.419588973360705 2.08731394462922 3.0156053389610133 -0.12376107910976104 0.6062512130328784 1.3188645929727802
Ni 0.42808477392182825 3.283844391708808 1.6986418852085075 0.1209945721082174 -0.355019210061937 1.010994272682504
Ni 5.1340089951446455 1.020708985300268 10.079071042236707 0.0827920928965671 -0.30907256812849354 -0.3090111187629388
Ni 0.04805551114978256 5.3496001504412245 7.364514288358799 -0.2609420311698538 -0.263195860201037 0.23834846214005403
Ni 5.408761985304207 5.136881560665176 9.065605756139021 0.8734034867785022 0.0929446079495367 -1.9204094016689248
Ni 4.9265335346682075 8.376038501056202 12.082816571039828 -0.2802600147721754 -0.2964240261265476 -0.1149977310948342
Ni 6.532669513787059 4.201587242040126 6.908682762627488 0.7141280168122153 3.5563444933740107 -1.294470223288816
Ni 8.724641525180493 3.104713436967322 13.18363294904874 1.0180100418787048 -1.5018577182709814 -1.108468393071278
Ni 2.0059896625139824 0.9991043177607375 2.231266662522023 -0.37203991298964956 -1.001334895215869 -0.7266577738481098
Ni 7.32160243579319 9.003977605312942 2.62947768466318 -0.5596473971314103 0.2538319024876338 -1.1015634384213286
Ni 4.615617826467005 6.0782277891732885 2.2555951543253587 1.1887359197737783 -0.0427967834505521 -0.01687183605467417
Ni 8.697737950370081 3.2899985612058686 10.632322513326777 -0.14644849340494778 0.45772064028792137 0.5832218420172408
Ni 3.715259110515601 1.5601377454761685 6.255779297694908 -0.291648202004459 0.9077891633472236 -1.9310874502080615
Ni 4.776509384602398 3.0203771444033722 7.622785817640206 -0.68686069645583 0.2815054571435023 1.0348584808946113
Ni 9.419690825206539 5.610092572612128 2.2805214000541634 -0.3635722418382707 -0.3808672814732924 -0.18987776823317623
Ni 5.170785270870283 3.9083624470608367 10.88795481493414 2.7938733093717176 -0.42760350918756684 0.6205779140681957
Ni 4.919905252415331 6.099358343957003 6.930955836189433 -0.7409253395107175 0.056921395777392296 -0.9023325111080266
Ni 9.23714811788889 7.776862237318959 6.582108318624399 -0.7355800160384042 0.6349897186181517 -0.537572676719558
Ni 4.928141799506563 5.424602929145583 13.106146191357047 2.5347199946711703 1.758284892289617 0.819971335101291
P 1.1018845261587789 4.693130613878624 -0.012541676840611232 -1.0046369630059084 -0.41717022966938483 0.8591294933579913
P 0.07706656364144031 6.914999617874094 4.607561628149553 1.4158653732695616 2.481141290113766 -1.5045396359785186
P 6.742032128958215 9.05651115792305 11.151110635233305 0.976797572196137 -0.8373015988496225 -1.0957092936333968
P 4.009236908107069 7.869528040259596 7.7927673258273 -0.06264569985567921 -1.099846712840538 0.02212794224729092
P 8.959745674093886 3.4184831180319657 6.056994045142719 -0.8684134897630786 -0.7504821299612172 1.5113723426296357
P 5.82369431359999 0.370965342440272 13.52887442077101 -0.11334991107876607 1.0862651175013616 0.3475570973569369
P 7.059260044241751 6.243916252838112 7.822060986706737 0.5501577124734203 -0.18107199701608814 0.3840099408673322
P 5.8916225862812945 3.6893037612168196 1.6845458622351037 -1.0689564510195848 1.900745347581094 -0.7152914409926971
Ni 3.2927316817982186 8.328004371462075 9.746482803297592 -0.021731992360452895 -0.3589339717353109 -0.5319098220068259
Ni 6.879441161187905 1.9322976661345257 0.8465125217506857 0.15827196840243712 0.7342810947213225 -0.635940255456879
Ni 6.379168536845267 1.851205792232923 11.977233519585345 1.1539386095889352 -0.5506022562100066 -0.31381882456422727
Ni 2.1331262517009955 6.0758200400800275 5.4539161123149675 -1.4890173719732034 1.0567233992885028 0.4868247567427293
Ni 0.9381854768026725 5.605686112881605 10.325287092660428 3.2824782979433214 0.7426510639525725 -2.6514748176664273
Ni 4.19667878056815 2.151811872077267 1.6303259556268608 0.7273028636312764 -0.3989969011944677 -0.1741567579534936
Ni 8.000160048979682 5.648439927861941 9.984875993250352 -2.122651347894409 0.013389533933028554 -1.8752767709963445
Ni 5.68922292119065 7.852915501148949 9.060231548606922 1.5342595316404546 -0.7873504637424763 1.1015598388769028
Ni 6.821366996764735 7.30735116413308 5.637762164894683 1.019535734494612 -1.3314701975519327 0.02909691736595634
Ni 5.235078679090331 0.41845935534591183 7.624378278720034 0.6035446127349928 0.8895906380613261 0.6707272812290771
Ni 2.760126426774648 7.112053894051128 11.797156198597937 -1.0160374915333663 1.3348527408709205 -0.6414066778880889
Ni 0.3372828848545462 7.91270948635302 2.3128084787252234 -0.8957864824593927 1.544540344741172 0.574672666895649
Ni 4.8781275519322636 8.622893209250993 5.618700043212323 -0.07808517433920101 1.2531086296228933 1.6289118663097173
Ni 4.789245354709608 3.0937065839695577 13.03589755507081 0.3746511253602516 -0.12494584344648159 2.2877267123719243
Ni 8.810641860554073 7.762397150102302 11.660619161985807 -0.5188326771078935 0.9912769967592346 0.14785514394448732
Ni 7.514631401710062 0.4057931077027921 8.604794187205936 -3.1035506009637457 0.6648060306486357 0.9990365860999956
Ni 8.200272817248155 0.07569442554813793 0.27546508892614024 0.2845185329382132 -0.005543298415732389 -0.10293360084144854
Ni 8.591620360024237 0.9985651307051038 10.60194025237467 -0.03363877110036787 -1.2333391603054502 0.9160262065450353
Ni 0.33423090019308843 -0.11823907313620206 4.4898282752862215 0.7316721963435656 0.22784679127778176 -0.3279542355243449
Ni 7.6048615665718025 4.364338065884601 2.866291428396073 -1.6549838808064206 -0.7183376840181886 -0.3378560680190891
Ni 1.8959490215219763 2.0622696355278882 9.90699414159548 -1.0096642410171708 -0.7991741958502818 -1.5815655158152697
Ni 9.067945642033902 2.85211359773147 8.455670851376176 0.4405675255474025 -0.14818758758324155 -1.2397522629206454
Ni 1.3591325296673358 3.9766253875697744 4.843790632816941 -2.0748594252221104 1.5417668957610933 1.497546235379821
Ni 8.657689366996458 2.5603483263338096 3.8315636176815038 1.2414962421949458 -0.5654143815221746 1.1279457850695993
P 2.4437351810602 1.7197185212866586 7.910800020469794 -0.6585605639595561 -0.11349774951054001 -0.7280489977686816
P 3.1200895643814284 0.7063508466387002 0.2576440271045912 0.05242505056893552 -1.1783198666467771 -0.02788078557066811
P 7.33873556930238 9.118480484006744 6.600830194681998 0.0007839293538760693 0.4968119498624282 0.5830135826611766
P 1.0242322938189778 1.8777839955442472 11.728213696472329 -0.9601162548857142 2.2322880717876457 1.354990649271376
P 7.0816084180649135 3.95731691318096 12.01146631982096 0.02936148388125266 1.7918352174412364 0.71191018322529
P 2.868233431429209 4.912458893250458 7.0534377536737605 0.7647615226983667 -0.1280440227558311 0.1959255170891529
P 9.065565781926276 0.8453337472911279 2.5070087820388167 0.9045143492506938 1.4982496892047488 -0.35655313020796015
P 2.4930522039935945 4.414473165729992 3.170905155476343 0.5117911968800799 0.6681055273355138 -1.7892674567140603
