# total energy = -340871.9928276916 ev
CRYSTAL
PRIMVEC
9.22880218912283 0.00000000000000 0.00000000000000

0.00000000000000 9.22880218912283 0.00000000000000

0.00000000000000 0.00000000000000 13.50728486540000

PRIMCOORD
 96 1
Ni 3.592080598010438 6.284362194863655 2.0365742663973068 -1.4695281529003401 -0.9235448835195837 0.30725736929662567
Ni 8.704071114056807 7.214948480689032 6.630456126513185 1.621209612569453 1.2804965347175432 -0.5928341682960242
Ni 2.931953594105014 6.096925218961306 12.610131257269458 0.4110741440739759 -0.3044895767435014 -1.6387291095104553
Ni 7.261932313496461 0.9341578323381402 7.8066706786325755 -0.18614401222235685 -0.05184141015132362 -0.004692777489979014
Ni 1.5366048215025654 7.982563345664603 12.202130519398711 -0.42361804217725757 0.47956190453272896 0.006849418821665623
Ni 1.3854001236599216 4.896350320136261 0.5093486767317457 -1.1433186679812437 1.0503509201032555 -0.08426533500798392
Ni 6.615703885943027 0.7103990589932068 0.07298506057243433 0.3317101030223513 1.5394097083828262 -1.0401755222321505
Ni 4.732345273422295 6.262037721958299 7.639612744098397 -0.4172838724291136 -2.0727827451987397 0.15308990998086539
Ni 2.262210178141971 3.6599399817529283 11.994955903892107 -0.5742762027881788 -1.9457023719077586 0.5131058019264454
Ni 5.063751566118177 1.1007838589219372 11.547350683579836 1.2835088391813056 0.47540340227966515 0.9169242928792725
Ni 1.1139810462946778 8.820907751916176 9.850012425799415 1.8034298642573714 1.5538312831247951 0.740566413509402
Ni 0.7723870786751813 5.171340944014267 11.157679270073421 0.07482707241321952 1.1774156096649528 -0.8889800010605206
Ni 2.1679010468398485 3.9893067091275696 2.575420964107717 0.4893192410298089 -0.6140779081661489 0.4703856373500996
Ni 4.355847052402489 3.4522826998829745 5.269988535305148 0.06023169109754788 -1.696121788497311 0.05933129077046555
Ni 2.0234426035213118 3.1658945050921465 9.574720020084282 -0.2801857098908142 -0.41446671469529267 0.5660535577680703
Ni 8.804923466231148 6.754449700601615 13.23711209462388 2.232337436968342 -0.5029008363689855 -0.9208169430654592
Ni 0.9448632430740695 6.799357052878367 8.716183917152417 0.6744196424789999 -0.6927834896981682 0.40583089339716555
Ni 7.089805920706961 7.807732913784045 0.43943127006329663 -0.4177975788407385 -0.2772572233901096 3.4537754749608327
Ni 7.806948465583568 6.251120048768122 4.396229522882839 -1.133965508901118 0.17253439185872224 -1.020535893624352
Ni 0.43947741407508945 2.8325224774938906 4.108483771265067 -0.9052928792879311 -0.1234142372933036 0.3143818961565489
Ni 4.504006245466808 3.143754608233962 10.088280722212474 -0.2880923663324006 1.4415085277589625 2.119834961491536
Ni 8.164573785780119 0.932293614261711 10.787796254584233 -0.6027894797365232 -1.371373975725406 -0.9011919697456802
Ni 3.5775636919004237 1.662531829685114 2.805706346480624 -0.3905749956793596 0.1273994471932967 0.6152850411003725
Ni 8.699345967249224 3.130751225710751 10.62023811896222 1.0288811802652538 1.7435565849405068 -0.6206751017676922
P 0.12783921603124207 4.855632844130295 3.045920074430869 0.9841221308820083 -0.19530048191064428 0.8151075792510865
P 6.5281410091650125 6.89930498242157 9.829859490089028 0.9582681459333819 0.7759985290647667 -0.8959170944999861
P 3.607335808309138 4.494980476760136 7.063539826314265 -0.4563070477698464 -0.3333494383979872 -0.799716698617313
P 0.9146619873556826 9.025076546494594 7.531554543042493 0.030343902399179997 -1.7461544275746703 1.4960642515176557
P 7.2152438023645065 2.0688852263348605 1.8070724093446415 -0.5052130294419299 0.5191288681920737 -0.6317838100863442
P 8.676763087877829 9.065692505674615 12.527021277629448 -0.18862949764837192 -1.3602300432934444 1.0459993280027793
P 3.1749110449964597 6.597790780565063 4.814563750754468 -0.5341813916498219 -0.4909578050744963 -1.1971706808046931
P 6.652222256875848 6.672036495539676 6.132861252465301 -1.5937144924729778 -0.879937431242278 0.684919256458743
Ni 0.411265888145208 1.7217161392105578 8.792662079417566 -0.6155681195584303 -0.9135695174744266 1.5386764297612274
Ni 5.047859568456737 6.192111086487491 0.32701245989297206 1.04797239256875 1.1313072453426645 -0.043521834542034725
Ni 8.87585604115904 4.7716138274579665 5.936924549590718 0.6697065532740466 -0.9600229238409597 0.5315604090872071
Ni 7.442198509966208 5.84070597908061 8.042223861391749 0.05769812604241677 -0.6530067240208625 0.6661005810903431
Ni 7.813408627234559 3.1479629421094653 7.810843943059116 0.9851050636205679 1.5075966776372876 0.3684740500152622
Ni 6.357371250322221 7.3528913895424255 11.984878974596798 0.3006424350832693 -0.0929903735858076 -3.0814455415345896
Ni 2.630125612968316 1.5375830745525727 7.40569305935669 0.5528748542942672 -1.2845658196909102 0.03153972247949407
Ni 6.54007385061463 4.264371163424444 6.033785444744983 0.41790068007750614 -0.1503408864808185 1.218563287547856
Ni 0.31391955798688337 2.005954023051841 12.698536723702812 0.36092554824404294 -0.2511438141325094 0.30875889354281666
Ni 4.9212034848878625 7.398352469960691 3.5499843389321035 0.15010845875503825 0.9110542072517407 0.25962845456475286
Ni 4.87033432628748 5.78034038285327 10.644767352751035 -1.0660642170734544 0.35439597465564127 0.043625449999434546
Ni 3.7617336717678436 8.068391207599207 6.197088179599462 0.8446842644669388 1.069022785481146 -0.01862558552098728
Ni 5.852758794960888 1.518894749776489 5.813089710902855 -0.7307661395895285 -0.15462460145783694 0.2810837962250514
Ni 8.876077532415644 0.4381743071820608 1.2127301544115034 -1.4270129052459486 -0.4485307462585372 -1.2935466830332818
Ni 3.6586571782250887 8.798500219789592 1.3385528771274002 0.661633546457925 0.8719320444392983 -1.6281639324000992
Ni 2.1552760452133386 4.01249868945463 5.11331761782553 -0.05373399918834616 2.0603481189798125 -0.06729451148160023
Ni 3.297607972353512 8.210523992723388 8.617053659498183 -0.21242068653069868 -0.3089926068201775 -0.1332610481803963
Ni 0.21176317603927733 7.087471033710246 2.237738162927778 0.6502150202083382 0.8201109460029489 -0.22400736292703355
Ni 5.70260618058712 0.5092766920733489 2.3112991007673864 -0.4095957597562365 0.5048217075407821 0.37934544551212734
Ni 1.2671237926326193 0.6396390626694212 2.718273595815864 -0.11999209898563204 1.3653460243637712 0.9144141248629091
Ni 5.984509177431689 4.051176600139354 1.6584785396892343 0.5714922122851384 -0.42850956594160394 -1.987563273807603
Ni 5.351930148566566 5.339323604544773 4.540852238883358 -0.6634402606493606 1.0766419925893007 -1.4109062294920733
Ni 8.33341472492997 8.289356422470206 8.852674212514573 -1.7867323489970328 0.12093569384582399 -0.47203345736616764
Ni 6.5596204540100596 5.015761793853666 12.524684544872262 0.9011492894332028 -0.5277968282797167 -0.16464599024958096
P 4.444812707139005 3.7189766304406358 2.9434803682508552 -1.835236467245007 0.06059267398139241 1.1034238886688352
P 8.862492735343846 4.191149845511631 12.823816792840024 -0.8363484909077339 -0.2357796729716133 -1.0879612742568616
P 8.947443861054387 8.456877642882782 4.218865784754858 1.4051554430512254 -1.0413533445903356 -0.9162462929756413
P 6.486731372982154 2.2204313898647707 9.742426739424266 0.9350379717608477 -0.8043750233249308 0.019553496651895357
P 4.627386104198394 0.828394834428809 7.470109176939202 0.7413662837028779 -1.2613461870413374 1.3186689320222065
P 2.217404342691163 1.8720348720267799 5.076321194930535 0.25212443287822384 -0.07358342981410552 -0.574406557718456
P 6.542261076773608 6.097386659079233 2.155330495147254 -0.9917081707593823 0.3903785633978374 0.09036322037560567
P 0.4139856162002756 4.7387131470497 8.762189496909837 -1.1571620016222395 -0.9412975795173144 0.5917077680010648
Ni 2.937998459649871 0.6936377081495904 12.581266332132593 -0.7985900412120376 0.49450875565054836 0.38470362450024714
Ni 1.9247405622965148 6.130102763440328 6.657930271134617 1.0365042440281502 -0.3032194517818262 0.16107369951729036
Ni 3.599325207861908 4.361227444177529 0.5395056341988115 1.0784659331719169 -1.8312368591673107 1.124681769606347
Ni 3.9233853738803766 8.23728751956321 11.211276462650993 0.23973300119240648 -0.6179813569856131 -0.6050687626890032
Ni 5.732950482742066 9.218632218360668 9.594980932782265 0.3759243356457203 0.015543347051237746 0.6942873279372043
Ni 4.532929312058534 2.01711164510334 0.2648250980800527 0.11078780677854468 0.6286995147340656 0.8404923378727783
Ni 7.305593777454806 3.9157070103180547 3.661865109924924 0.8788349422067188 -0.5598865097254099 -0.295229234487498
Ni 8.071436712377533 1.1337399121443543 3.5491205230313425 -0.7731350914740427 0.013580309787595966 0.7599425040431687
Ni 5.826622826681447 8.114184524902383 7.661021719809785 1.5652387536307881 1.0605258037537286 -1.0356768630308484
Ni 3.5966580839802837 1.1976955124891737 9.754690894878557 -1.4086143481341031 -1.5278261173102847 -0.9531166836394295
Ni 8.272587688584702 5.123037392469565 1.1989035627179092 -1.4338834071135371 -0.6626097943282653 0.6319486177989826
Ni 7.034359276136733 8.614865510458968 5.192105749321027 -0.9121659522586807 0.3537213171861198 0.9027217761266454
Ni 8.885324792378922 7.330853009510184 10.97496651809842 -2.0594317778131304 0.1652676829939799 -0.6910737060959131
Ni 7.035106809127777 7.991579885568915 2.883332571759178 2.126989056037814 0.7398069096355582 -0.5023585907122703
Ni 0.856505766412982 6.395301628015902 4.550428967090835 1.6231597943172884 0.4906857823600323 -0.7343631129121675
Ni 6.695514568739852 4.424223249077058 9.94714280198255 0.9656364133729949 0.4203846228416244 0.9017807523696146
Ni 3.0216667818325744 5.086611309560329 9.102761836108241 -0.03595816326216388 1.1852104231190235 -0.39340166649487734
Ni 5.4070076410424495 3.736280634862935 8.168881790721095 -0.5215670453199212 0.3763503674395454 -2.3304751590830444
Ni 9.288789573890439 2.901932300032619 1.5556207687623778 0.5008899765865438 -0.348932894658541 0.12195719313180287
Ni 6.880145988725199 2.7023040762146127 12.095558155522532 -0.4250375482326035 -0.028731820717053748 -0.0028230712710919123
Ni 0.46205383328483424 1.5907040609284429 6.595188258299949 -2.3885764341011506 0.8886205608385729 -3.596238758465787
Ni 1.6598554770011313 8.974650370407423 5.355989898724096 -0.7346215087798768 -0.28605322441518477 0.14986163285155482
Ni 1.514935593564667 3.5713434791107543 7.2989453482357005 -0.09003386206064494 1.6253408611290072 0.40595507767985567
Ni 2.676408056796493 8.235617106336312 3.201091311527222 -0.5345662857930664 -1.5803095319209817 2.058396651680397
P 4.958607820847106 8.451303446258214 13.143155503571855 -0.20924820233998803 1.0974967245511227 0.17849472320721516
P 4.237746068619999 4.204642354559845 11.989255272675226 2.224666036466014 0.12371582769412243 0.9589680002138838
P 2.0376088151417013 1.7578930444561123 0.7878462455060048 0.06150310161080375 0.16230782903470756 1.5105845566210179
P 2.545811274620514 6.763660045355458 10.451639897314399 -0.6166011888086348 0.6539428626818867 -0.398909483686984
P 4.930644549700669 0.19913079137088066 4.40638674275867 -0.45410052703683085 -0.014062648740653202 -1.074477380837814
P 7.657257291327728 2.476918265013865 5.542511377432477 2.5742337364950765 0.44359628507139726 -0.10334034936156396
P 2.1925142627301275 7.3709429269557685 0.6646398882587597 -1.4691689697887085 -0.5690370658764264 1.5400038903233992
P 1.698948683791991 1.611145858152653 10.970360422841262 -0.5700480236394441 -0.6619832164878598 -0.6184374706864253
