# total energy = -340890.4003987916 ev
CRYSTAL
PRIMVEC
9.08241408882236 0.00000000000000 0.00000000000000

0.00000000000000 9.08241408882236 0.00000000000000

0.00000000000000 0.00000000000000 13.29303108347676

PRIMCOORD
 96 1
Ni 6.670578926094645 1.6001851019048066 11.309165727343368 -1.0586540406523122 0.772120019945967 1.3349936373241589
Ni 4.827657228943321 0.16079687306605597 5.93830294362936 -1.7105801300144863 0.5687318759311818 0.3633457276497613
Ni 2.5860811362537395 1.6338990224898202 4.741916516524489 1.643787497869969 -0.7298328291419818 -0.09385992067495448
Ni 3.3915550174719344 4.324627732283573 5.0176404392399645 -0.9644632190005004 1.1372215539445705 -0.23439410547799633
Ni 5.014019280797819 4.482552746058415 2.776954423117552 -0.3114492958907862 0.44431902217003477 -0.0251135072381761
Ni 7.188612570600957 6.099040781004736 2.7073649674272566 -0.1341766180161302 -0.8263584695745575 -0.46640814075959025
Ni 4.927427546191805 4.382291978456593 11.301229514033242 0.07340885190945422 0.799540578050765 0.7366573082629829
Ni 5.410975264927292 8.056473553246539 12.726096779447609 0.10574330237610176 0.029557401942142642 -0.4312606463241798
Ni 2.052053360780238 6.491273909879845 0.46944636283562446 -1.208821120559428 -0.4430311565965467 -0.9899806465453144
Ni 3.0195484244650443 1.5048651674921667 0.4612358606241879 -0.4612685055401798 0.234683354583641 -1.040122300396712
Ni 0.7258147531807547 9.090497299120253 4.632235469172995 0.34291882725397715 0.01166020994674766 -0.8248993685305277
Ni 8.72038893062906 2.4176023574681778 1.4148965913792817 0.32614752133290925 0.3410329230851739 -0.09563063942213208
Ni 6.768823397799412 0.5565003923117284 4.62076347211186 1.046888929696584 0.9031724905108186 0.5365645471700178
Ni 1.119207706317368 7.556177863185952 2.5074773847173706 -0.35829196727593776 -0.24660401728062692 -0.033354407090729656
Ni 7.417389495605242 3.8036423032432825 3.856108683912315 1.575935828333318 0.3134501283708989 0.5393392817016776
Ni 7.384002541922454 3.7456056780982827 12.711966359823103 0.1589150013030747 -0.1753273812228271 -0.04531929276208969
Ni 8.353123357704437 9.198850497552153 6.538496104733741 -1.7202757600356953 -0.7896503155202464 0.2218977727831985
Ni 6.857113543814206 0.8224116749948636 0.5563877703787397 0.0636258043807614 -0.4610327353802899 -1.1008877525105427
Ni 2.0551141342816255 6.519910761066415 9.328916114774607 -2.103088852381449 -0.772829901528798 -0.9047372638947773
Ni 9.543346458702361 5.068277621739324 1.4622995262707965 -0.9299890964830306 -1.085912362147633 0.029320603340988214
Ni 6.495987682720259 1.9237915109683945 6.918131925459222 -0.8089117348530198 -1.0595097037843884 0.7941528313762903
Ni 3.3971043723958148 4.42456153298317 0.6708379932957476 0.3968425738556262 0.43088860769674175 -0.24426765583796642
Ni 5.887865574236915 5.459593426805412 4.877186356940695 0.9155752350505459 1.0511839575275121 -0.2452361903988228
Ni 5.389113894547949 2.586526174537324 9.352311504870224 -0.3681961137635272 0.8035774671243 -0.09565969288785461
P 9.191493742252083 5.666672464881467 12.609795560567447 0.28866572233736737 -0.5099163484548702 -0.1515559898348422
P 4.134650879676694 6.166595775970073 12.533865671698164 -0.6195260757649137 -0.5046430158710729 0.20060415351174482
P 2.7661309104124983 8.468915053161963 1.119762641809756 -0.9843905540520467 1.1569521996042784 2.2856572314374057
P 6.512326945417577 7.870483880364019 6.0042630667049535 0.4149038022327112 -0.339253462587248 -0.5866905172921315
P 4.7844612681937715 1.2024480301755713 12.510602884846227 0.5385077869393178 -0.13967183680274656 -0.41503698537646583
P 4.138492740777842 6.072093258812997 8.38213349610438 -0.13029090980847885 1.9860303821028438 -0.446648698744476
P 4.727968653420392 1.280311564974958 3.8451552926877657 0.0327900499468274 -0.022846051360238075 0.2991889904661944
P 0.2105775839298653 5.721775470320388 3.599845649569013 -0.16075899649034894 -0.36330176178570334 0.026327839261251432
Ni 1.7230519978299317 0.9933254489606089 2.3601642634025297 -1.199267929653354 0.3859184707439547 0.9530884015046553
Ni 1.872630273184078 6.569573400548864 4.912199970962054 0.8472620524964442 0.3230195172268889 -0.4071758374608342
Ni 6.067343156316778 5.721012547548529 9.517823059018092 -0.9400745057434906 -0.27412793373250854 -1.2407714482137793
Ni 8.63809317782173 2.560114514768676 10.261528351198944 -0.13459082273541337 -0.16550653847766333 0.046679920555042186
Ni 2.499707379582543 5.2201628302369505 7.137812812891878 -0.24075090093395957 0.9613686392355766 -0.9362551319974004
Ni 0.36994488504008044 -0.3748702781255473 8.599873471675771 1.3742965486888397 0.5917625324984002 1.4123504181377675
Ni 1.3656317616278724 1.2621194898316974 11.4286966526244 0.9683787520048226 0.10634416918489428 -0.5121827758915437
Ni 3.944683109483767 6.738279239683194 1.7071441497952735 1.9032789126362253 0.2712369853379587 0.7730702996743783
Ni 5.833906952955781 7.761158863639394 8.120632633635708 -0.8267829587064859 -0.5934885140505715 -0.047097467708435016
Ni 5.220389890585717 3.164803470778655 4.9781873412795 1.1801769744601738 -2.5150217449112944 -0.17885570609105972
Ni 0.7277193353862174 7.397017641113813 6.729742678810927 0.10488018304485808 -0.7509577840460551 0.37720294524782777
Ni 5.22686565173257 4.686234961316906 7.10192183768288 -0.6991022328273443 -0.7977804008265487 0.7223663455616075
Ni 8.05830820086458 7.055337228288324 9.351780183654109 0.11298198621638608 0.4809287029732685 0.15961665535578964
Ni 4.498383393574493 0.4522197482953239 10.362050692322548 0.0583180190146028 -0.7983696976711153 0.6612185704076935
Ni 8.142683826466623 7.37375757898606 4.532551434857042 -0.18010551933776078 -0.36873398854486816 1.191062768134742
Ni 7.264877600545019 6.018034730978407 6.898458508600602 0.19383341044681457 0.6898526892046184 0.7916097532394625
Ni 2.343580683769939 5.2771186481218155 2.9971266691449414 0.7332297706386728 -0.20535889458791082 -1.315224682227348
Ni 2.36900236041796 5.30865278935866 11.565960082902787 -0.34778438287639457 -0.881756743839204 -0.39283988045413637
Ni 1.0792178376924177 3.281121946245323 3.748794513636375 -1.1586383290574496 0.42720010310156104 0.10083840887531666
Ni 3.3060440901260555 2.8560922205942223 2.7390289871835964 0.6753853488263788 -0.21766290876624447 -0.09943612921115133
Ni 0.9380589600705742 3.673736536506361 7.853389869067399 -0.8155809193430792 -0.8875635803289682 2.0724155916673084
Ni 3.8237780149719938 2.712562832931245 7.28463366737059 -0.33810443658446926 -0.5720722531583244 -1.0230802573127606
Ni 4.269106935802918 6.782773985627693 6.166424118346405 -0.31201108193152716 0.8092377507338708 0.14610396558133548
Ni 0.904596622351995 7.295285522451976 11.340510954370037 -1.0234278704601665 -0.5284097792733674 0.17702225242674674
P 0.10044423236362707 5.752383205334261 8.059219166983835 0.8890303946824819 -0.37252533726650033 -0.29757228079837783
P 8.582572381341075 1.5742729749034476 8.329400092465198 0.2801926518693497 0.6091753286582089 -1.8580650351037484
P 1.651001207958996 3.338123176199942 10.086871714444111 0.5373780442102488 0.4414627836681622 1.6152027442537409
P 4.121890088075955 6.293131967131282 3.9443080057876023 -1.6675442339699347 -1.0652291227666686 -0.26069314838384133
P 6.827677440199975 3.9112870733870277 10.491258929668053 0.7634168357450143 -0.40027911034100094 0.03236478948395072
P 6.419786229673853 7.784909376120486 10.67514148251401 -0.6059244258210791 0.8472504825322182 -0.8347004137813496
P 2.545709806242859 8.54381772101342 5.8340985918901405 0.023339703167204965 0.04381648296431809 0.08212592006747792
P 6.800375703864158 3.943656796707337 1.6903280603655448 0.8922573862602117 0.6231086509098495 -0.7536019065371213
Ni 5.210862438351429 2.8744386967746447 0.565176822358836 -0.030126644182051344 0.1301690395186339 -0.008910415115752397
Ni 1.4458476416404913 1.1893693540865575 6.794799101698426 0.9645382952128098 -0.536572774700134 1.7926055199483577
Ni 6.946202942256663 0.5102027871980142 9.243308913840849 0.1696179895428756 -0.468521073337535 -0.2823189541837331
Ni 2.7434157931217866 1.7085564651646081 9.186056101019796 -0.11879936422911154 -0.8024634081245148 0.07937226858174072
Ni 6.650488626435688 1.9484775120864082 2.6319536843945603 -1.1935827063431186 -0.2947088432076537 0.08291036364198624
Ni 3.980958270802879 6.986610601923346 10.441143985970859 1.6751978938604504 0.4813387939274937 0.5707306515287655
Ni 8.247640202080959 7.124245502932316 0.7747099286843704 0.1591901093413323 0.12456814839208868 -1.023296744198941
Ni 7.485471270579721 3.7987377997099023 8.266843149896934 0.5685824948375111 0.04152280183413495 0.8294193678880684
Ni 2.8363470526653916 8.170693991090594 12.353586112466452 1.1648179755056003 1.1744812096269772 -1.5507274473884904
Ni -0.008162365417497798 4.946909324116065 10.218273354758717 0.5805602360246775 0.0369899469607879 -0.04569827336806324
Ni 8.656630384695116 2.3939971636102975 6.103893514778598 0.34833511317354204 1.2894928246788824 -1.4264678313757562
Ni 3.2842099669885627 2.895155682996201 11.822210401866556 -0.625665098783116 -0.43091920382436105 -0.7132034481154169
Ni 0.7646375316130395 3.3773410396390826 12.419107554948228 0.23161140052653661 1.035809789064287 0.5918345233869162
Ni 3.006860292175911 8.25772168156624 8.05920554336291 0.8786685918321835 0.944586020460599 -0.4863848409918334
Ni 5.506031809335362 7.870165995875745 3.6865827027982374 1.0120674511420247 0.0031778835073493655 -0.1053524946955863
Ni 3.20368528490162 8.502483655123767 3.5160730962532982 -0.16410528725476253 -0.03457799508518561 0.7707740474410338
Ni 3.469972579522314 4.282948534663792 9.150071576947106 -0.1771675197553594 -1.4796762970779354 1.4102125458591583
Ni 7.273287915863372 6.036635514749448 11.522425348112877 0.5116191900785899 -0.4601220506405624 1.7219163809629119
Ni 0.805947074985027 9.237450756842644 0.2596898291269028 -0.9241447218871116 -1.0049825192707853 0.04723373617598317
Ni 4.742791152987941 0.5615465815027396 1.7861184638208312 -0.10953130866362427 -0.8165957337608388 0.03184696930726773
Ni 5.894032533309443 5.610960937707847 0.38253492725854654 0.22805067975847176 0.25802331486116203 0.3805482075709769
Ni 8.451985433557851 9.017674504063507 11.049938193086556 -0.40048582703516833 -0.4212631687918358 0.1355822401144052
Ni 9.02623013800507 4.997870748793466 5.69961256379788 0.8400727338368565 -0.7377729099246648 -0.18836750223623688
Ni 8.054366433209974 8.72142432581944 2.544764326950591 -0.08007906484077822 0.932863332707032 0.11805862940834508
P 8.564543789648926 1.6174144411692921 3.7133948970221105 0.32981982797817394 0.17467586368175725 -0.17837079603484118
P 1.7546951280341851 3.1817785024525214 1.2096594668524303 -0.6475786110267556 -0.3416453598581923 0.6966424584329421
P 5.063799991661628 0.7269872928217906 8.180106096667709 -1.763317312507202 1.327953699758242 -0.5219413979402043
P 8.502410995812161 1.5433019433315465 12.537362401069185 0.009061595981636006 0.4951247919679924 0.20620530174860616
P 6.206903529083298 7.874325741465167 1.5364083911429622 0.8715942014839053 -0.4719655802427098 -0.12590332226374448
P 1.8198705305444378 3.2355918051104435 5.9922061621853935 0.06525742644691343 0.18642014870187895 -0.40418615870489094
P 7.003458479801902 3.8474921977972816 6.155909407715675 0.08262985628708995 1.2022524662029745 -1.5303172591632548
P 2.1391355457395895 8.732559365323002 10.19047753510398 0.6038197207732504 -0.26890139522624656 -0.9282191490668014
