# total energy = -340895.089222414 ev
CRYSTAL
PRIMVEC
9.05456629329118 0.00000000000000 0.00000000000000

0.00000000000000 9.05456629329118 0.00000000000000

0.00000000000000 0.00000000000000 13.25227301982410

PRIMCOORD
 96 1
Ni 6.585603161467294 1.9043563211440862 11.300398074277526 -0.6689498776136802 0.3575987978636551 0.7103988887870862
Ni 4.58176432367995 0.06293376098379598 6.122138862555232 0.29982662405019334 0.9533503969167904 -1.0579852967200618
Ni 2.8019173396034383 1.3956979669556526 4.943812956107728 0.1549796708044105 0.13430028807818808 -0.3203301433201838
Ni 3.7036706221208435 4.251743502107776 5.117338280760324 -0.9213597029428069 0.26990798211389 -0.1778267506059131
Ni 4.896003036713925 4.592122747184081 2.5435615970089707 0.655555201474329 -0.7073043090221626 -0.18688937502881361
Ni 7.192539775020971 6.090236910167028 2.7196846766469984 -0.0965554652292466 -0.4813580772012033 -0.25685577691562217
Ni 4.990858670131123 4.80243315166874 11.418767510140423 0.0030202748835625403 -0.6871360616044038 -0.07181811038356664
Ni 5.7535881462827705 7.668728455532993 12.345114804827341 -1.2077839375441652 1.6004461547698565 0.6971101420979801
Ni 1.7445160675440645 6.559073283086958 0.40880460033917054 0.34845518369117406 -0.5157882338546149 -0.591830152511542
Ni 2.781028455841174 1.6885588496633568 0.27043543909522044 0.48400965589143746 -0.1437848305298556 0.7802318504198239
Ni 0.5282750714276816 9.245617342716937 4.767505163323299 0.15944156323050604 -0.06687053657030419 -0.1763902752697027
Ni 8.553939045968189 2.5120263545437718 1.407736012452805 0.743355546218765 -0.24482815632712673 0.22563667100034043
Ni 6.874163125324944 0.8490448429175387 4.869321947081386 0.6271643090364619 -1.1257395214469 -0.24601909131143435
Ni 0.601603474179609 7.444084673070152 2.4103761748000863 0.9559559528604374 -0.7318724852798298 0.52128088153807
Ni 7.807498734050749 3.7914274757939537 3.6643068018919456 -0.6255054332768001 1.026008486703149 -0.2071874631562174
Ni 7.835160433181098 3.80538961656613 12.611883144692513 -1.9749756669505794 0.35699998793739157 -0.4433934250319718
Ni 8.129008263582815 8.86001054047006 6.962903304865667 -0.672714486862435 -0.045696473595850336 -0.562945865377024
Ni 6.81691110450622 0.5800255379447361 0.2567385971068472 0.632939263847026 0.04973361977970145 0.2306976304630156
Ni 1.6803191946032525 6.62873005932584 9.532903329138371 0.6425770440471062 -0.43087318107777406 -1.7528750341279555
Ni 0.02550218513932255 5.055318125485939 1.4811929900419338 -0.10300019241332582 -1.0646907337646954 -0.3670730559026775
Ni 6.482272454273987 1.7277741750098525 7.090840700620884 -0.0018108279564936556 1.2432618187358009 -0.7576133416893598
Ni 3.55633472416698 4.385877842833472 0.2408840520406467 -1.5013473542934659 -0.01175714053592814 0.5569927331173826
Ni 6.047055684912483 5.394701368302231 4.933940762797804 -0.6365732610551875 0.9360895529538136 -0.7320681462304037
Ni 5.3374765111815075 2.948737127295295 9.245659899177138 -0.1577641755280831 -0.7568350687624386 0.06482933777055933
P -0.04000035621870592 5.61280775411299 12.583231781498352 1.783888451790334 -0.12991835696040852 -1.1620064741987344
P 3.855742058092767 6.456485050305661 12.590613063701644 -0.2613184406726661 -1.3451415243914382 0.3408532029742001
P 2.3935473584322735 8.473362463133169 1.3595774922679957 0.15151022419857132 0.8699759491541921 0.8240976985648387
P 6.3206212874739425 7.559150097799607 5.957122113572945 0.35120240741900804 0.3639075136905023 -0.5416064804692995
P 4.806571088330793 1.0012176900286633 12.514650687700284 0.005933591875615587 0.4551096850276356 0.015701212785340698
P 4.117120214818073 6.081761836390922 8.324414852431286 -0.054567036612602794 1.1542486846301865 -1.4471281879385853
P 4.722979335017736 0.8963884521623374 3.6897111977184673 -0.2866605189818805 -0.46210977049455254 0.43486070497061236
P 0.18783425530257572 5.615252486933021 3.6366360481955957 0.012187800315443526 0.06420096015794104 0.007225828324477877
Ni 1.493315243002887 1.1015060630459317 2.5702653230565087 -0.4678428163235878 -0.4036853078090725 -0.6063041777580009
Ni 1.898253543660009 6.2964999236496375 4.803008116609748 0.522674419451487 0.4736846198163455 0.44960983825532885
Ni 6.069746427308769 5.683858933515889 9.280182242965775 -0.3820008808571034 0.16182728985386322 -0.3154694727937728
Ni 8.713000606892201 2.2778843323468103 10.251282635564857 0.3107867226061228 0.6558094835769802 -0.391067619045062
Ni 2.3771133211420654 5.307179933345124 7.1850380670898755 -0.7023528785541582 -0.6471060422657114 0.07316459710913206
Ni 0.5379362933498038 8.93267343262098 9.062725974993823 0.25971972872697846 0.4274595274105348 0.2028880644499151
Ni 1.4452264429762791 1.10927488067403 11.414036499405364 0.061857656736745086 -0.21077929427253378 0.2332481647990112
Ni 3.954400609230015 6.91106048177541 1.5628135643367662 0.7857977745433757 0.01340650321389304 0.34415629920550406
Ni 5.4930882824594764 7.907497360956013 8.008785358059695 0.5934766869760295 -0.08261365833717385 0.9750690195408045
Ni 5.395978062108248 2.676783237481856 4.6720492121802915 -0.2474684221634512 1.1942594206951689 0.7739223632620283
Ni 0.809466429474438 7.286942680138164 6.9225235623315555 -0.6139395828160716 -0.3834273288909848 0.5390790860617555
Ni 5.156258427255215 4.363313864361187 7.2369868286023324 0.4962439931741002 0.25524755188823783 -0.2848797729323739
Ni 8.001800665847206 7.185884669010886 9.023339518349927 0.6751796605734759 0.37806040815211667 -0.21072427266488222
Ni 4.691134426395333 0.4833571804143134 10.340085291610981 -0.24983949349878906 -0.8914397754549228 -0.45424759413765636
Ni 8.259638487266466 7.289242539902193 4.7992441335235 -0.6514648334550394 -0.37427265897491024 0.23451391888531223
Ni 7.276720075124035 5.858584893620099 7.014812226287723 0.0007345641731793801 0.504391561981899 -0.11988256999096127
Ni 2.278165023892814 5.311390306535177 2.5993666981808765 0.2561312400447718 -0.2575214355240791 -0.4110705445295501
Ni 2.3574468037898164 5.3429092507815765 11.440382570095897 -0.6037641849449666 -0.653537656823668 0.6214965692277232
Ni 1.2636190127119822 3.2321269339668794 3.6034257110203756 -0.31836504917401304 0.6028002783698005 1.1036732856754798
Ni 3.617561699459755 2.471950845427265 2.7354278505513974 0.000591867947728013 0.6876148010130352 -0.4853854531930415
Ni 0.9884869702325023 3.415110658263194 8.335242302454223 0.4833416832901353 0.36239699058324687 -0.6571217746305005
Ni 3.384334188428805 2.810917578207552 7.345973017719311 0.2041684738242355 -0.2001989476535262 0.35366989512289415
Ni 4.011652630048738 6.765435896795569 6.1031224630417915 0.6937021448576955 -0.4033726616646602 -0.30634797010847886
Ni 0.6714503963044924 7.501074111474873 11.548441571654465 1.2782540185402695 -1.5711690030722942 -0.02107301862021532
P 0.15148741646491598 5.610833858724965 8.183834566170109 0.7957008925897007 -1.2087843537842213 -0.5685637257844337
P 8.596133323528724 1.7652510236843266 7.9428156010960596 -0.8095668519385153 -0.270437886475431 0.8631180456920943
P 1.8473125553433647 3.2743031023954132 10.441439387046461 -0.20590756800252924 -0.030705142393340667 0.6006158691239721
P 4.056182985637302 6.080213505604902 3.8055091368373315 -0.3960229061678083 0.49436631653541313 0.5851712524341278
P 6.84064312199252 3.9832937293363804 10.487371389451843 0.5561843782834743 -0.09218484696537672 0.8518668982583071
P 6.479293502059949 7.884888109653727 10.284625169403679 -1.4285537673705073 0.20318245576188232 -0.12776222984935418
P 2.301109294137104 8.298473520840957 5.828999099214725 0.8311427783370782 1.134864880786936 -0.5419098706423312
P 6.917543551031493 4.063354201909393 1.4837110648465657 -0.42633646954968507 -0.06520549016305544 0.7710165024691431
Ni 5.395969007542248 2.9283009718330373 0.2960906463999449 0.1975442836394985 -0.40758849951822057 -0.1077356502157822
Ni 1.3801603316994562 1.1541583643365976 7.065979578754369 0.4076617759583173 -0.016898061306919284 -0.9156917060237519
Ni 7.078099115345522 0.6286286373201507 9.127887159213648 -0.6376173860489858 0.07148078164880592 0.5057485902304257
Ni 2.455806554249061 1.480023140114719 9.336412003283085 1.1749118694064926 0.472697830423044 -0.860184674095383
Ni 6.356993479096403 2.0089908858414094 2.5186868932934563 0.006902897767420369 0.014538817046123347 -0.3857960862334775
Ni 4.210509008543254 6.88498333169508 10.443532802705688 -0.18627436715263404 1.4540534543035089 -0.5744582368919977
Ni 8.10801072502855 7.280722193296086 0.22106903980599607 -0.5212507996310829 0.9216211841343095 1.0286564658489574
Ni 7.6174071754443435 3.960711641732095 8.469699891186124 0.19573474123458548 -1.0662426516328476 -0.8916022691747162
Ni 2.9176075293869013 8.48607507379733 12.439762183226536 1.4991786287769213 -0.1408712564274864 -0.32579013799349055
Ni 0.2119257390590804 4.837401885561183 10.311102531301215 -0.9612341705402412 -0.27183322416106087 0.8528413463564344
Ni 8.756860924596756 2.4983086870535987 5.554849477146257 0.1833340535773875 -1.0593778061922143 1.3532880647579726
Ni 3.7821737093418366 2.7006510734581575 11.414685711787572 -0.22030137483035608 -0.04594304238901765 -0.13794894057436885
Ni 0.9995878681486426 3.1837031149982673 12.645940989245345 1.6716274029003726 1.123102598044685 -0.045831456511817845
Ni 3.018276194176175 8.51600041442771 8.017611748996606 0.19801248152516865 -0.6065959979668069 0.10016889361211781
Ni 5.817504327677579 8.075133595882134 3.676856430368104 -0.7297616095844142 -1.039516805602229 0.05929349555399466
Ni 2.8371124376458834 8.270811821710607 3.491734923039163 1.1641908834445627 -0.22816843628325864 0.8148047032986871
Ni 3.4794433496940074 4.480570494062669 9.444549779565854 -0.5404173452572048 -0.990523663532978 0.1854834958202225
Ni 7.184463102148869 6.129832527285529 11.44221068697132 1.0469832891826032 -1.3349257602007008 -0.3226068551695025
Ni 0.6944960776879839 0.06803329255506048 0.24659205044711888 -0.8562920239091962 -0.3340333518388892 0.6347511202447842
Ni 4.728230983297802 0.2899770034366676 1.3684690760801081 -0.8279893203097611 -0.35880721634945945 0.8734446244290829
Ni 5.703552614566139 5.529397092119935 0.3131539760271608 1.2916957458674723 0.692995091488342 0.9783006391042248
Ni 8.217833556043939 8.988666868765687 11.212231048764611 -1.5507246191750133 0.7779733934029505 0.10686584601631918
Ni 0.09928784347425577 4.8491003848333305 5.722569919536179 0.1625014331027524 0.05782385298700365 0.6448144180180573
Ni 8.021603001689456 8.919589584750813 2.4711775854908553 -1.104265153623208 0.7981820071403415 0.10893121318578014
P 8.454818711964936 1.7325821495559135 3.522652644103154 0.48437166721654645 -1.0445841928228075 -0.2677513407822034
P 1.8790125909097657 3.3747454030346833 1.514244872312152 0.365190494167984 -0.2407159339309661 -0.6065052380252135
P 4.629608650424555 1.1678398135627708 8.128321022023407 -0.14108928597556344 -0.6845688150978598 0.3004300619621471
P 8.55641094248622 1.6119934395663882 12.597941829422137 -0.795759513741778 0.21082583123975304 -0.8905589155118663
P 6.3160577862098854 7.635443870916572 1.4859910045653948 -0.32868777125625975 0.7079594261076582 -0.6553222595279166
P 1.844188730073325 3.2214425460867444 5.9502306833902585 -0.47617858988279277 0.5028306452526825 -0.4814048712787387
P 6.946246525251856 3.716220250597002 5.983255401962476 -0.018452036057600478 0.4496707734002514 0.17859679600271822
P 2.4406039379348687 8.465910555315077 10.235869953319463 -0.29692487702236603 0.9290732695369806 0.3182246669414068
