# total energy = -381170.4315938619 ev
CRYSTAL
PRIMVEC
9.19843299643091 0.00000000000000 0.00000000000000

0.00000000000000 9.19843299643091 0.00000000000000

0.00000000000000 0.00000000000000 13.46283648212813

PRIMCOORD
 96 1
Ni 5.677042811832916 5.6396143884500045 7.66503848037848 1.451472838060526 1.89369126894779 -2.0469966373735717
Ni 4.105407768632915 1.416908203749534 7.748225427959136 -0.059253900565310845 -1.5869409211945702 0.4536199878559865
Ni 6.039543853144574 2.3392902590812588 9.462785721226394 1.0514084148334923 -0.581746543023295 1.816592884001891
Ni 5.8959103237456665 0.5514129367120519 1.7522554712036476 0.45816004181818515 -0.805085162018078 0.09138780498537809
Ni 5.239896487711641 6.163879070364237 1.6121339034777784 0.07401306115235641 -0.3025530218424209 1.6408633822446386
Ni 0.2928928203463506 -0.2685436486734817 6.895691672690851 0.4045803088195162 1.1298720555580348 0.4153396042185492
Ni 7.619172334516054 6.916402864160244 11.20249361014038 -0.548395735476991 -0.8591894000616493 0.5031530615891077
Ni 5.028654476655226 4.347933649909354 5.593324194831876 -0.15153156435481 -1.1545806140483084 0.9076300120615401
Ni 9.229247628715607 8.452642337643498 12.261520225569877 -0.3218643205765231 -1.7890064897431897 -0.1291729941539517
Ni 7.0986238194847635 4.935483550028166 3.465670559577523 -0.2224772994357523 2.11845402198361 -1.111157766977983
Ni 7.730142228763151 7.428203669524012 3.021194924138602 -1.730666102131084 0.11614135778097417 2.073682374194874
Ni 5.382757348748748 8.100931058098404 3.6208839961272656 -0.7895839810586853 0.24832074286141753 -0.09869308039753971
Ni 8.720215551648291 5.778703892006897 12.837420310447975 -0.8747751703150483 -0.15785827790378618 1.146785800594238
Ni 6.317649272795332 6.602947866957133 5.090177275120269 2.224612557520259 -1.2042057332746037 -1.1551300587938753
Ni 1.0608368670199966 0.8267165137079965 0.10058854290034051 -1.5344582779148217 1.2272173636784285 2.343757735124563
Ni 7.37009716903007 4.285733846784448 5.810317985967262 0.02313632890714725 0.5393822191244712 1.0350132613049206
Ni 9.145302730265756 4.913076167535963 4.3747351237876515 0.18641114984081444 -0.9879800711755178 0.3340922301012827
Ni 2.055812954629415 7.915141110816999 5.433062658318373 0.6817724832996452 1.0038484056663421 0.040179914652995315
Ni 5.254935925468106 2.263182425443951 0.23453612247811167 1.3384535708483014 1.57070903271674 -0.31676299479421577
Ni 4.143884813363983 5.744393737369822 9.560310266134882 0.8355517060380513 0.1443029078168547 0.1851572228290553
Ni 8.491634494615766 3.7957609226415325 1.8656390342380824 1.2328231399009801 0.2581179314574974 1.0573548622249145
Ni 8.912269631720003 1.8088258334068676 8.455375192051722 0.04904533546342521 -0.16990338199377836 0.0028266708155177123
Ni 3.7325032997355905 1.0111101388784343 3.4306944384000393 -0.18463606021826268 -0.25583504896059167 -0.0041420471928315765
Ni 1.5127742712100152 5.345411711261745 6.260326478782645 2.1799468391817682 -1.419345104288046 -0.2643590272712028
P 6.659122696546574 2.454721393274464 2.2678552293462655 0.7614545698123208 0.09670587476418184 -0.8516617242260365
Ni 2.7684707403296898 4.454111160626716 11.34173948705621 -0.6187863693854118 0.23836877385502817 0.8605191746166664
P 0.7754996394401054 3.459420224436533 11.511667656681805 -0.39657106536179443 1.080491448242378 1.0584617221358479
Ni 6.129927654609427 1.1595728455385927 4.284332005613754 -0.4376945748749817 0.693342961746064 -0.18608461973933113
P 7.219886760122984 8.82924457655801 5.3146972240369035 0.02476666542171864 -0.6077216269308179 0.15184241072700946
P 7.520813491745479 3.5326765438814838 8.072828005967791 -0.5959567730854058 -0.19249926501642334 0.2811925538887738
P 4.812077374529238 8.655642552840712 8.94555692062098 1.7810599812026038 0.8520731007318423 -1.059055132745473
Ni 4.172694305139672 5.217452311487924 13.168848125652529 0.6619158535850342 -0.33496563384517153 -0.644936031197586
Ni 1.2969054484156786 3.0009243376040926 0.8696713555643537 -0.1484210437502863 -0.45401388086029554 -0.27133365881682303
Ni 4.056269740195581 9.137953182395776 5.793489453015915 1.2343190077202162 -0.5927866028875404 -0.030987449520449857
Ni 2.8550187952841775 7.485785859343875 7.709991221856063 0.2637712730885328 -0.1606967757938458 -0.6381933131571138
Ni 6.0356713129026955 7.2314123965198345 -0.25195795435012774 1.0259771192445815 -0.6690712336828929 0.7514524642942865
Ni 2.1226303710593646 1.3062142624887936 5.399270375452361 -0.2857264372033853 -0.5054943081277746 -0.12559890364944823
Ni 0.3365283462357223 6.071738368219577 1.8503999904881514 -0.04214192347537258 0.740516276997757 0.31736848958869857
Ni 2.802532537279043 6.141572870633699 1.6563728465639844 0.8419131294797048 0.4245055869885334 0.8857684361017584
Ni 8.492296781783024 8.187184763200777 1.178558410999966 0.4522598742836662 0.8082836143507175 -2.94961325538092
Ni 0.5660117695336342 6.6517087596464455 7.567702503344002 -2.123370742558937 1.562624970157025 2.226958432044616
Ni 3.3545856849194435 3.405112676721442 9.332276515858634 0.105257878099251 -0.4484189032710213 0.38474964724683414
Ni 3.8966033422893216 8.407901160122123 1.649830001257456 -0.20350512920862368 -0.6314850478990027 -0.1931816357954286
Ni 7.544379876780382 2.020058646030404 6.365983358199079 -0.208190450499435 -0.9873429518121513 0.06239887395219576
Ni 8.895933214927659 4.835027464561277 10.02757777856033 0.27180365647470606 -0.3343909922886241 0.9587031765882714
Ni 2.1310653340090155 0.19890691256624937 11.809075067884958 1.9178758366137933 -1.3458274947148694 -0.8460106965878462
Ni 1.808319919598546 7.965024212317497 0.5136377324096187 -0.5969016534971784 -1.0668342624702596 -0.13302707779271927
Ni 0.7078516045212204 9.280114962534114 9.988387855281172 -0.2181719871921791 -3.9172057640390214 -2.675414102090844
Ni 1.622980695528191 5.288280244652931 13.432531322392972 0.8833461998135108 -1.0724212696397337 -0.6557300364892965
Ni 3.998926709630561 1.216915876103613 10.652200122709653 -0.21293259317011073 -0.15465982557114655 -1.0790755417314577
Ni 7.515414011645757 9.12383358792717 10.365616507474714 -0.24370895512101898 1.164221736682498 -0.742751851196495
Ni 2.5320158247531075 3.1600572264033944 7.0663060454091875 0.44638567489107644 -0.01087653770318772 0.6212844532169172
Ni 1.532486512868796 2.0073004196278244 10.147464633639917 2.424658781646005 2.2213230881357098 -0.899470101958567
Ni 0.5134418057893051 2.90944592262669 5.841268872917083 -0.8439211610486692 0.6788252277458633 -0.273656907633361
Ni 5.967014209897031 7.900368427614012 6.906462117748371 -0.543174853397684 1.0379633450721801 1.1310174820163876
Ni 8.992461569555397 1.4324443568814427 11.509769100135667 -1.234076809802423 1.8997413317966119 1.6498267620855136
P 3.6273468150677504 5.1674864240915195 7.459689905267365 -1.8165692298528069 -0.439678695184546 0.0382047932044955
Ni 3.6779657911985346 7.347763374000897 12.59262517578039 -0.4993912805538303 0.25188557739454037 -0.08220973803053584
P 7.806286856131973 6.235608449951345 6.646049883739548 0.31102763497233527 0.7122865927281022 0.6868036179656495
Ni 6.748375090767363 0.5781858954484247 8.025182883186648 -0.18770235784841222 -0.3513409898794014 0.6374250675325216
P 7.429362672066713 6.077708151157771 1.4119014967337271 -0.2013708564744403 0.04696634144720943 -1.2246542309369426
P 5.890887979393965 1.5175206625753588 11.604386020411239 1.1661305236694368 0.10170049976529581 -0.08400642491964243
P 1.5611212344197918 1.6392067311259928 2.9373217734652037 0.16200058220693392 0.15968710358240884 -0.11639024056698664
Ni 2.7406086871404938 3.7721025532778443 4.839768336866894 -0.15655884236607231 -0.7773830681171192 -1.063220576977072
Ni 1.662414377278631 6.781176702412353 11.459553015364964 -0.19434068910053626 0.18437894990213408 0.6879876109714217
Ni 8.003133319733422 2.77355747371154 4.0714177194600145 -0.20698563155805647 0.3817609969321554 -0.3246148867384668
Ni 9.196004492292447 7.266246861830989 4.782457500816948 -2.530868996356196 -0.7351421571700371 3.0658098918798617
Ni 2.6515310631443985 2.3628290488175256 12.552923819633186 0.7300840259208394 0.6854694725352581 -0.9603620523479331
Ni 1.5443708881479115 4.320917852544988 2.6519633894896915 0.8974875243108995 -1.7131376063290173 0.7769356961670555
Ni 5.5377049505883 7.997853419261122 11.151644673187633 -1.2790592880503842 0.3755564107833403 -2.1451572423064085
Ni 4.653937916480822 0.23485438825571026 12.922182029737444 -0.8237277168199298 -0.5648284271117175 -0.02130236102220202
Ni 7.134847248160582 4.041110722811694 11.720731478832574 1.9725665432884543 0.2524599618407717 -0.23420075852026762
Ni 1.9110388195535641 5.5025025479620036 9.502365658059603 -0.9882433521392335 0.7229209325134969 -1.9245866729750662
Ni 6.715168748075716 4.207491976719311 0.5820694738097579 -1.8448223111612292 0.7322841188959518 -0.16469921208501956
Ni 6.681980802249828 5.251900442618178 9.532737963581361 -0.522566433118713 -2.700913531913529 1.8187927198666871
Ni 7.967011073819268 2.212388679088474 0.2019157199608304 0.12495484230754608 -0.4357431075755657 -0.25719182009880226
Ni -0.21765607830264347 0.7319662161556858 4.664711121068207 0.43252228664542286 -0.5912969057158913 0.7177597000275316
Ni 3.8619344487699827 3.8781972780992984 1.473601824953327 -0.6495231363476361 -0.45984565705072417 0.6824661669325601
Ni 0.4602895812437624 4.147996512860705 7.888253171669644 -0.7832001890195286 -0.3429141992682868 0.7520726143767887
Ni 7.391796272190623 7.226776386349035 8.881958035855243 0.3129482490338159 1.5894775715734948 -2.119744715770575
Ni 0.8401848591288021 8.294042957951154 3.0821143054068116 1.8788107522915318 1.0200512406784499 -1.7105379639226415
Ni 7.14259232864434 0.12875322453124133 12.718947254501824 -0.5313377515534398 0.313004556193048 0.5301694422769515
Ni 3.3738472033671743 1.522055489984495 1.1655785023650125 -1.5339481710476226 -0.6248893969593561 0.5898200640600487
Ni 8.60481201275372 1.1060379661853015 2.371626430022592 0.18650576643714975 0.19044263959771074 -0.9197939011175836
Ni 1.9072030730431995 5.930937956147271 4.236134976859898 0.7554623567846279 0.7650122052565922 -2.05022105784814
Ni 3.1580519680358656 7.968648394871654 9.914705648393943 -0.9206950727756145 0.3825526395955154 1.975896893213268
Ni 4.2533093708874805 6.574901845110366 5.902995876592031 -2.337000361796072 0.4682210255986129 -0.5334833371415328
Ni 4.157599676785935 5.404704809597022 3.7752888904269817 -0.8941283780306795 2.354463294467526 -1.1277958897552964
P 1.9310822047959735 1.0491548572642098 8.07371657458386 -0.9498431550944804 0.04526889914012849 -0.31828663052759376
Ni 4.982257581215706 3.5234873094357897 11.589886530664746 -1.8689608560806459 -0.5623627391800444 -0.5341752210022349
P 0.13614324550588638 7.088422757422427 9.937431296663746 0.6480113276888001 -0.12985485071232475 -0.7104780787644538
Ni 5.14564014600491 3.4761153801111417 7.844538539257516 0.4413977347581818 0.21971722019211193 -1.2335492194337272
P 5.416451208382958 5.653117687915747 11.304528146689233 0.6970834026251027 0.7916760877010237 1.3258047717360393
P 4.21458396846869 2.082230853856675 5.310294854061219 0.5208975300567222 0.9403503851126966 0.34273653603984194
P 3.2322373292015523 7.394325841232231 3.5110271122584757 0.7320239232560296 1.6302370128790442 -0.11377568576227502
Ni 5.343710001179209 3.7070788312592162 3.4057344907840332 -0.1663287772686426 -3.8766029029159954 -0.6610326796491325
