# total energy = -340897.9875244609 ev
CRYSTAL
PRIMVEC
9.02505546080393 0.00000000000000 0.00000000000000

0.00000000000000 9.02505546080393 0.00000000000000

0.00000000000000 0.00000000000000 13.20908093347955

PRIMCOORD
 96 1
Ni 6.228064363330254 2.0141847833675164 11.460013509829041 0.8877435575502582 0.06398550171302528 -1.3083588083454498
Ni 4.499387206742519 0.2829038983041705 6.143120542143236 -0.09425149968641831 0.1988930843579091 -0.743291782860365
Ni 2.7560533602262125 1.6331018201692777 4.736564759485051 0.33522608659540976 -0.655359026303123 0.06286990005134334
Ni 3.428212409370446 4.154621066372219 4.7066467009178 0.05117549443255058 0.5637423931363903 -0.39049272037819843
Ni 5.052984103428843 4.62785887000189 2.6190439945823414 0.7197607896179604 -1.0939344611211612 -0.6314685928387705
Ni 7.24762486901421 6.082544370468006 2.4526228759777418 0.15020924599896066 -0.33608894881633733 0.26308658831668236
Ni 5.0508993156372775 4.517662943876361 11.348027012717163 0.3182940867267615 0.40955025123028177 0.35657575591577945
Ni 5.3604045646584835 7.817963243420669 12.386709805729112 0.19866657016939981 0.162794538863139 0.4654447484050565
Ni 1.713542138724302 6.448609641522684 0.5279666419276093 1.4506925082510758 0.036260010773298844 -1.140285794692191
Ni 2.6983652062708985 1.6243655665665329 0.394995086058395 0.11587139194903914 -0.6084860159006682 0.374907978566064
Ni 0.45666148442289295 8.864373288844465 4.56276024307838 0.6459644724621004 1.1353773016469801 0.8966370033851462
Ni 8.556375224070841 2.2365531227456437 1.3996073925251757 0.7894137740294083 0.7276345359390823 -0.014236198204039997
Ni 6.775903274687495 0.5754149680547477 4.814749716701929 -0.2580235719714782 -0.17477202293998934 0.22800902788725894
Ni 0.8439581982466379 7.300782445171407 2.597077009800233 -0.45169731691197695 0.03687758975263972 0.6132055328635245
Ni 7.524008164810134 3.8077430630442306 3.730653747549846 0.09003771871538686 0.3772741648053954 0.14487009317423438
Ni 7.651920274636271 3.869907644465414 12.381320945164857 0.31779632115473655 -0.136749520949629 0.46524625924100516
Ni 7.9455594763086905 8.639234257466295 7.094412821456076 0.755952409047169 1.181356853700888 -0.005523758031706616
Ni 6.878987457177733 0.7110696728868712 0.19744564896079278 0.14209098776720047 -0.7017003325718237 0.4949671833442056
Ni 1.7699758099825278 6.652485642437977 9.153364586998896 0.05424616293807432 -0.7248137786608355 0.06753439540654821
Ni 0.14627900001926294 4.844252622721942 1.4670796090122415 -0.6764245887241706 -1.1192616270320401 -0.18827314275021767
Ni 6.316212079175303 1.939673926193694 6.990020908442038 0.06373507626511604 -0.5122727645021887 0.0016385640446875006
Ni 3.3746667558321355 4.153520009616501 0.48328359276729005 0.4512692282356228 0.49889762874686333 -0.03111291935472061
Ni 6.075522877386462 5.712165122944205 4.7179271176306825 -0.1650781926909931 -0.9487200972336306 0.9039839306685205
Ni 5.150220050036251 2.9682865624185113 9.323365945070652 0.25406792975783987 -0.4918985717212109 -0.3536668097991006
P 0.2522006599193177 5.578711629117979 12.38229835866194 0.12834047095032738 -0.26325525268406275 1.0064989559153117
P 3.976556723828672 6.075568002663336 12.735178926319666 0.22373611154351788 -0.30230311061514387 -0.7430326156617075
P 2.344790611854856 8.3773091003807 1.4817290788965136 0.9606934675454228 0.34080769444824527 -0.45253549654255615
P 6.389179651880045 7.684717325868062 5.946688406901026 -0.5779443956683853 0.14727458885066894 -1.3034590570509874
P 4.593987837180505 0.9309254368486716 12.485526942038174 0.3714465023800248 0.5447931057273973 0.8165373697190776
P 4.071139304155909 6.182668334795331 8.161930666390305 -0.24466540549701737 1.026233972450394 -0.35859252923549206
P 4.748009432205754 0.9329831494741114 3.7491072782745687 0.290874299952912 0.10928911074583113 0.1928093400576744
P 0.31303585068380246 5.4813673818460735 3.6568676023226145 -0.6052273997540544 -0.3749727703657284 0.023747480128584908
Ni 1.53241830240872 0.9345083838324418 2.6359118230777234 -0.5115248305925707 1.0400233129250023 -0.32491287759485976
Ni 1.9634278719399998 6.348061499592747 4.9079659036454295 0.428629636459236 0.5680657031020927 -0.821040914016386
Ni 6.144438200227947 5.755521488964438 9.284280235253744 -0.5718542236102474 -0.6776697739851814 -0.10400215131527894
Ni 8.617736575563674 2.450356684573146 10.14769103785509 -0.5724473771095561 0.099725378316796 0.3676469261282765
Ni 2.571500002868231 4.9980395663074475 6.9285323036684225 -0.8312114267914845 0.19998631742208783 0.22525074841583145
Ni 0.7499604415076847 0.3001579991695913 9.045380701945714 -0.5275823982760656 -0.9731921142330658 0.27139536529269387
Ni 1.3517727940279987 1.2474070536745485 11.333391080415955 0.8747191202661323 -0.3871153192655333 -0.11793290246375818
Ni 4.013803127360209 6.754920020941233 1.6286001225483593 0.45760236954250216 0.856529593841299 -0.29615997383188347
Ni 5.708735601901805 7.920000519487438 8.080641992630056 -1.1218345299655388 -0.07253570527588152 -0.12175741841617095
Ni 5.231310172578256 2.7793560532037818 4.865525580745732 0.7903887363481679 -0.4125245033672573 -0.12711739717650364
Ni 0.900641863538744 7.089767625454698 6.867321670600348 -0.5833120877382019 0.6856497068668643 0.22188208905391463
Ni 5.145563121462887 4.549891416619544 7.1636277761360025 -0.014698996773071458 0.30899826324713237 -0.20134694521504032
Ni 8.158622983595464 7.3415305701883415 9.161712763220526 0.5664137693209664 -0.2485320875412752 0.0780203825395366
Ni 4.583464622613562 0.3133372875333187 10.35379261742579 -0.709948688623545 -0.7224823023141815 0.42637863564153017
Ni 8.090456740350081 7.102303427370208 4.547979007385637 -0.4116073908696266 -0.3937035140060123 0.6121341541762167
Ni 7.245693507164017 6.105413860787588 7.1879593254262915 0.6283336467542147 -0.688370191121821 -1.051117365955635
Ni 2.3240059093268384 5.209108536356405 2.66812856324892 -0.09210977075306717 -0.9432356770802917 -0.2256119884099921
Ni 2.4667191099675425 5.190011519183463 11.408088756236033 -0.7376225003897298 0.5335450436174037 0.4178777972593707
Ni 0.8851305008661848 3.148074690538632 3.7060722042256766 0.5496771732925759 0.8075408226474221 -0.12689319698083953
Ni 3.7680869697276393 2.565615666763903 2.5659568138570674 -0.1096593496010563 -0.034619646956398444 -0.07245600107788167
Ni 1.0368795869480754 3.331427715531774 8.298512244409414 -0.13186313939160518 0.8411734231002028 -0.8360893237090762
Ni 3.7905774077214818 2.683988293058944 7.050333548500325 -0.8468218796352319 -0.4642106188876392 -0.22190497187205008
Ni 4.209294851832372 6.892822867067203 6.00519152335668 -0.11853042683844102 -0.17311751805570186 0.010948271481387595
Ni 0.6599851519492514 7.435932649408083 11.335570631288954 0.9351259034889636 0.05186352163851068 0.1516621763954033
P 0.17366192053175028 5.430312643591191 8.111696305668985 -0.040648883869613864 0.8405332184130427 -0.6941495168077594
P 8.427759159925476 1.703136249877231 8.021016159285786 -0.38475298968094385 -0.7220123046562985 -0.6656506380371181
P 1.8239185659573265 3.3542881807959812 10.367054936298967 -0.38110382296413076 -0.33302805050282647 0.5703560417981661
P 4.038261027425745 6.058203796122343 3.77985744694737 -0.41751938547868744 1.3443938475921362 1.0378399321204386
P 6.933399516032018 3.975753493900321 10.271592413072694 -0.6414609281647919 -0.12187054695526753 0.8651127075246199
P 6.229571547577835 7.67556591971808 10.24450100184881 0.030134871712167454 1.082954822181206 0.5058087540443998
P 2.233448503696734 8.582150782221088 5.79522000004129 0.7667243028516925 -0.4485052923372405 0.4802702434536632
P 6.906549976292178 3.857299642106907 1.509415241269592 0.22014736575099506 0.9093739913358403 -0.06457145612348233
Ni 5.420087255851614 2.781025688448108 0.3071930298341982 -0.7275553459617148 0.6362269334593623 0.7377135174416392
Ni 1.5096480876982603 1.3137592607896094 6.952626494002356 -0.02196981940287184 -0.21235820872387942 -0.2622710343939225
Ni 6.71104922676464 0.8572042720201383 9.278718996131834 0.43340494636069227 -0.028857033441008366 -0.6056768285866473
Ni 2.7755745550017674 1.7787120635852727 9.22445585069123 0.3864884843148118 -0.6289136876274007 -0.12802216837896016
Ni 6.40324971320926 1.8638093107136608 2.5300009932441183 -0.2736538223095674 0.19679223596482237 0.19642971041908106
Ni 4.04372118592746 6.797428031756241 10.324706668964092 0.2377681641565518 0.3282062036341509 0.2882160363944585
Ni 8.303971500405591 7.253807031945905 0.460834670028171 -0.7046694425024768 -1.2122237184830735 -0.3347542891653138
Ni 7.40951631232623 3.7745308592652007 8.128921526357207 1.2714948454395651 0.1159133009305681 0.29639882931556694
Ni 2.825853138494423 8.55039161235739 12.41574340886964 0.7197605325076443 -0.9756549739512617 0.22955477510782402
Ni 0.08206663353355184 4.988599358385473 10.256376169710888 0.06038801416975407 -0.8067435235571074 -0.10591093830221761
Ni 8.509607387118958 2.310044148662121 5.777374758048824 0.17302727233474072 0.2665796890716054 0.18393800570997354
Ni 3.581484924799592 2.6500721349606846 11.554485081975168 -0.02025335093239738 0.16298094384233222 -0.32857695671000836
Ni 1.131480217386061 3.4036281585296644 12.606403118694168 -0.4166578088093405 0.31316062215493806 0.18651990750453684
Ni 3.0939785086224627 8.413346146492021 8.14086257712352 0.16023654832797568 -0.12689062587767824 -0.6631296713874772
Ni 5.630244695307724 7.740699744357552 3.5059542363684244 -0.13871924308149014 0.6136973848982785 -0.16021495106142083
Ni 3.2056906440509483 8.39045860606169 3.7615501221197176 -0.18360350518869026 -0.835703144014251 -0.16577727564054673
Ni 3.3525734202747817 4.498304200097551 9.220030866040998 0.03753964881667083 -0.6087161296336033 0.2387233289809695
Ni 7.3951574492250245 6.294416570445315 11.49142521506081 -0.4907261486796645 -0.4416931545114135 -0.20587440077174868
Ni 0.5454996170041094 0.03590528030285078 0.3184211012259076 0.6833868789746165 1.0321056007398226 -0.28149388717927654
Ni 4.747016676114533 0.3183326556832352 1.495386695195102 -0.8775061960929662 -0.632445354929743 -0.11085594101231874
Ni 6.165710255746202 5.623593229496543 0.2485193398319628 -0.9170140243796013 0.0660351851532024 0.6420152580063653
Ni 7.853828813479871 8.834112278172976 11.170628719260272 0.05788298835971322 1.0317970683604683 0.700005204257588
Ni 0.10069976286023237 4.81934346988767 5.787003589628131 -0.17724105330577217 -0.39235111374317594 0.3033721753096066
Ni 8.048544383189807 8.822009678915453 2.4664519683284505 -0.5211980920162765 0.05610121386894209 -0.08655027438741869
P 8.339394842751432 1.613896502331839 3.6429987997282574 0.3533829600100946 -0.4315213561847343 0.0268770268965021
P 1.8149566859702135 3.1522081659002614 1.6491934939024324 -0.4990151281613342 0.06108581156772705 0.20286800984525705
P 4.661477201272782 0.9678198632205934 8.25490949437745 0.5957521132737675 1.3498494713900686 -0.6982959348759651
P 8.575833243458773 1.721754939115312 12.382535717618296 -1.0457843837784957 -0.3210333400347955 0.006523660051130701
P 6.382519161013491 7.808730611772313 1.33025976953124 -0.3963944305746141 -0.5557292930239268 -0.06150850092744245
P 1.814315907038607 3.244895484598803 5.788866361057475 -0.6304728045844045 -0.15895665317428753 1.3471127891851962
P 6.84193960486444 3.9372526076716956 5.965960510148238 0.25150299724414105 0.2723034789292601 -0.7862456607140718
P 2.3986882425527805 8.449022190388353 10.295884252119334 -0.5633551850003008 0.3968703417697681 -0.4852180743772418
