# total energy = -340893.10080632137 ev
CRYSTAL
PRIMVEC
9.06860470977633 0.00000000000000 0.00000000000000
0.00000000000000 9.06860470977633 0.00000000000000
0.00000000000000 0.00000000000000 13.27281966137201
PRIMCOORD
 96 1
Ni 6.542136659819848 1.9418874964509583 11.314945951000508 -1.2135177547041487 -0.045472273400186204 1.1396946980754115
Ni 4.617479511999212 0.17605244742100018 6.034858872654982 -0.29866757074508565 0.33907579935880316 -0.15071781020426303
Ni 2.8586690040477003 1.6048528086373102 4.846888907965596 -1.298263628892977 0.40242623859099086 -0.10733275835040869
Ni 3.3976071033905573 4.1250270795400565 4.611587639628096 -0.9079583419352363 -0.34122164205721234 0.8908021418709239
Ni 5.08060407736865 4.254789741935468 2.870446400766753 0.15892271461255855 0.6460308069236617 -0.8839704636610711
Ni 7.276412501003308 6.191517202401872 2.597782481715081 0.05791538425954541 -0.16271149223102946 -0.3080891211693017
Ni 5.09877756087137 4.733040739681422 11.435913880710821 -1.2369060517211021 -1.1039283391090795 0.10851058070859376
Ni 5.693723361867317 7.923774836253603 12.443546482332982 -0.38585162206176127 0.11897034258933703 0.6537302324504483
Ni 1.6155446933926525 6.787016188274897 0.36850093185443344 0.9862643740359917 -0.4344791532614775 -0.2711074017386299
Ni 2.964436138824253 1.9477458149852678 0.056456597577932595 -1.6067983222401296 0.597682497527261 1.8411011535558999
Ni 0.4268610295257895 0.013524916814348835 4.92619385468779 -0.32821545960553156 1.123706035956639 -0.7325404578811319
Ni 8.602895424610946 2.3745868935810646 1.535293891216699 0.0931963189490266 0.3345928238867851 0.4208600198161461
Ni 6.7438133562355 0.614861363431237 4.819905275150057 0.12608047127155705 -0.10653031705377139 -1.1881751621743022
Ni 1.009072696023474 7.598012423886003 2.628788040645119 -1.4185966561577956 -0.5977413757896544 0.746166790415315
Ni 7.569772789341359 4.035873628284952 3.817315724513855 1.1130958645409603 -0.97419201625249 -1.001440567555798
Ni 7.564485792893213 3.77615786279874 12.733837048033475 0.6740337198944908 -0.35201924689334857 0.42778888572549556
Ni 8.120871887375406 -0.5163826661253108 6.989227932358545 0.21721347993365175 1.9029462118871552 1.0023805628715639
Ni 6.7370572458515054 0.8338200995231025 0.439041072286519 0.17414004578294526 -0.3750254779805348 -0.37200057511128193
Ni 1.7981954574786119 6.418141629913324 9.178021790379752 0.0030351872818979984 -0.07554852396027634 -0.19816186261883934
Ni 0.10409034979668591 4.918539045593656 1.5320545856741983 -0.7517561115776343 -0.5019001630186131 -0.8999663248686952
Ni 6.611348249686491 1.5376272431654263 6.886801671495366 0.2515855296556183 0.785960525373485 1.3645767502979143
Ni 3.3377815192251696 4.476816386943986 0.4249919901296267 0.7342823802729032 0.402208723263546 -0.22552791333661806
Ni 6.003815225585866 5.64737372405175 4.586515668650069 -0.11007972496792656 0.014267308552291559 2.0184625344896205
Ni 5.2801768575304955 2.84005115892241 9.151701979416707 -1.0364674772529439 -0.12499006642085568 -0.61380819944453
P 0.13097150738089727 5.525346581330898 12.428774632394072 -0.4444951427365828 0.2336963080800233 0.4972809190790468
P 4.092724710160473 6.350045478405381 12.598705771749035 -0.7159105626339348 -0.6953466224396541 0.7402000313089188
P 2.4112421931409393 8.610748836144557 1.4678144048176311 1.1786525673958475 0.4283463008908623 -0.7053623548044433
P 6.445256757494724 7.858081864949364 5.979378963786251 -1.6598514933113673 -0.9170644180015626 -1.2963229602268385
P 4.654479418531694 1.2871433171032505 12.348380546266348 2.3134166609388607 -0.7005384510532388 -0.3381987960704885
P 4.273162734738118 6.166288344565263 8.252096408823034 -2.295741869366917 0.17118636247126 -1.3712518483252447
P 4.670095555553492 1.2402404944106042 3.884489598939848 1.5026940981293475 -1.6405448225629553 -0.5498340105854144
P 0.1724313536272698 5.640445310181451 3.537618195779194 0.7997994881391064 0.5663579763823665 1.1217440271342616
Ni 1.505914333081091 1.0736683661780984 2.7729842940300156 -0.8452301096680799 0.7589261469635123 -0.44499779340461426
Ni 2.043600964997114 6.646398406242383 4.6448095655082655 -1.0474913391672733 -0.45713211477430304 0.34988857370359094
Ni 6.011233344101446 5.52296153833628 9.079311843657996 1.2440550040610574 -0.3599369590785285 1.0241292674025653
Ni 8.674174656313227 2.3445335381279655 10.372269949993754 0.684351299770415 0.5772843934868832 -0.4686468002821219
Ni 2.466043770389907 5.144410778928098 6.988497909692891 0.028646202981782925 -0.08730669293746898 -0.2074710558349072
Ni 0.555688718792893 9.090097135040125 9.337163104050317 0.5941737130430542 0.7473302145957968 -1.0328455642296406
Ni 1.4115645714232623 0.9636027128485076 11.66335720321244 0.039315252659854874 0.5954914034132132 -0.8360787821861149
Ni 4.199171990277696 6.977583844126264 1.6425782035331742 -0.8109624467344615 -0.6416709872930692 -0.5231045650103701
Ni 6.056159211003877 7.789087921591736 8.159956666092157 -1.593310829276656 0.5606856085879376 0.4080160739739424
Ni 5.181102352906142 2.7087649709638955 5.333218218637807 0.5925505756173343 0.4225983426634915 -0.5062376140517023
Ni 0.9257594260935942 7.367678937116762 6.818114246971267 1.2264118370579975 -0.7609344356427927 0.17435601844849327
Ni 5.068307049609325 4.565906357967294 6.872281021902276 0.09274277635137576 0.1284849669479916 0.34028653183745267
Ni 8.243152951023442 7.254167214061106 9.319430354728352 -0.5228901350067189 -0.7575783746863662 -0.19400773124114976
Ni 4.611385409746803 0.2888060351369214 10.294744263482754 0.3836733834635199 -0.1093950401960761 0.13186879581855998
Ni 8.12829907449553 7.258928231445801 4.70100680099629 -0.16794188739203336 -0.9148486412971664 0.005955703362802646
Ni 7.342939783925436 6.0568937679718005 6.911847343520221 -0.9288812081308324 -0.20943717842234252 -0.15291558918653017
Ni 2.3267862790387333 5.261695041473339 2.475447006439792 -0.05192754210722669 0.007813068286515576 0.661585466828809
Ni 2.378704040043257 5.192646686488458 11.447899855334347 -0.37265954885151953 0.18906864206831953 -0.1383412909167811
Ni 0.944549574705188 3.289246347714914 3.7493456266090495 -0.39699915403814856 0.5872111656822919 0.12218447865126053
Ni 3.7573405083735194 2.4185877628201826 2.3801087668868557 -1.5396501065284065 0.9432248784470143 -0.39668162279772967
Ni 1.1029871646632732 3.2905159523508325 8.345629996072057 -0.18593343887344752 0.28879761992954134 -0.7302393205517811
Ni 3.441698658675098 2.6345203055762907 7.028514940956588 0.4120215955889097 0.3941331453442632 0.9484509027326439
Ni 4.078532344051813 6.927107991243961 5.938352596837 0.48167406577972527 -0.5053009611700459 0.45226964447567913
Ni 0.8063621786900025 7.28112817536529 11.288984349916884 -0.3250398900910273 0.4161227622414769 0.2647724606595375
P 0.06033886718248049 5.676248160914353 8.059680571365952 0.9781569144375091 -0.5638334101882999 -0.12844948572436587
P 8.63061814869668 1.6413448733154246 8.006137716427453 -0.52145288833956 -0.821968568036978 0.9010227911576675
P 1.6494794115898452 3.182826273411318 10.475466135382572 0.033855000876232014 0.09043983924981198 -0.12144117272733278
P 3.950229726987707 5.996388038465742 3.7988266535730646 0.6909901452431713 1.3151169530048898 -0.6186531862416571
P 6.8268908424472805 3.75913609207289 10.15829894640014 1.6079393778231081 1.2204432781793884 1.51624741133375
P 6.4994960812620715 7.870034285736081 10.47989977614329 -0.0889704537931371 -0.30819427928859827 -0.9383418393231
P 2.3543366996381647 8.714539015130892 5.641240626799808 1.2474411469244708 -1.8795903107700338 0.96765370091334
P 6.8440486422412645 3.8821879871070184 1.6371624329005274 0.26867462392742114 0.5688619737511429 -0.6986026674831065
Ni 5.252499476467473 2.9392616926148976 0.302055266373185 0.3451171204568766 0.6174622512573494 0.37025736716793006
Ni 1.4664114916949413 1.053998562925904 7.049791700933674 -0.1864610292421434 0.19658809037381628 0.052751580670418824
Ni 6.982997801038001 0.7869218111327277 9.250690332297909 -0.42396025600802467 -0.2605342542084739 -0.8068965041952039
Ni 2.7526932913666755 1.5223466445116929 9.221464033579064 -0.026824576392011867 -0.2301759536315907 0.06100405048719816
Ni 6.261182222495629 1.9373803999934476 2.6357427534685893 1.1878699722290575 0.4347169803038965 0.10897132239509622
Ni 3.9265606691323693 6.917649436706368 10.44049306196529 0.9017563268895824 -0.2801170614364079 0.00930713633353881
Ni 8.18279231919006 7.194260012454839 0.44155851690745457 -0.06396956087342531 -0.11565104840811695 -0.6836604443509775
Ni 7.676564676431188 3.8760848162500676 8.042983456682716 0.25694627974689943 -0.6797364267062228 -0.1556155046161965
Ni 3.27531697113798 8.80342040824973 12.739185710992508 -0.3484009334144709 -2.5796330531337768 -0.8521214374712743
Ni 0.0030207521730317806 4.8319882838421835 10.150614210911016 -0.10945340423783731 -0.0571661647983467 0.4357829596745656
Ni 8.554432801937029 2.410426018732135 5.961832120857404 1.643903197512227 0.5676790091866353 -1.308172917586889
Ni 3.5765850826368957 2.848076873942323 11.206255098119527 0.7848382388435838 0.02380018774339127 -0.03863031077768831
Ni 1.1893837601375266 3.6185999274812555 12.937866140467392 -1.1924565631584754 -0.37859699738187697 -1.6098707905178662
Ni 3.2572704480988524 8.158887477616624 8.177211499954744 0.4929930903369703 0.6607575716108749 -0.6937841630485406
Ni 5.494966756114278 7.731157675775684 3.6513131046466034 0.3910524495364104 0.634362626557114 0.07455582102970386
Ni 3.247458217984111 8.63747401373064 3.5517670325860515 -0.18480061082058494 -0.850935130472657 0.6687261916386483
Ni 3.3117546241888403 4.287853874096603 9.18849421490517 0.08573600601623944 0.26428960748584807 -0.06682322827213653
Ni 7.072015223224972 5.759706528516909 11.517953918562965 1.6564252412386378 1.808548159320543 -0.6990613522870799
Ni 0.4915673366558297 9.221410528812266 0.5852514627402551 -0.13111751947483224 -0.29527242902060763 0.11046564755243557
Ni 4.618658430589708 0.31225563276233587 1.6658183163936622 -0.04258852409448795 0.06808872524812144 -0.626418946230005
Ni 5.9968958803201105 5.655635222789762 0.5340528420759335 -0.21101789264590112 -0.22201450086672087 -0.5225219530340227
Ni 8.15740022647169 9.121021076529281 11.192888881884667 -0.14975081830530337 -0.8894535982628294 1.4346801919832195
Ni 9.266390807341951 5.050215183547487 5.844234991455454 0.328480283231144 -0.9616764002839825 -0.7694175334131395
Ni 7.857954904485771 8.767671969144082 2.7065404422696755 0.35065013445996385 0.5270689489747568 -0.3761341376636812
P 8.354551689220747 1.665494567211503 3.756048232226245 0.4988297516234054 -0.40121293500918 -0.6664973023081295
P 1.747102939487435 3.1988686348466024 1.6439711411908673 0.8081082651151179 -0.4384741333534835 0.897198789425887
P 4.921051049051865 1.0578980628790822 8.01475198388216 -1.4677016412145625 -0.848373540393068 1.3832406452560049
P 8.51652603495032 1.667580346256226 12.668667335211325 -0.01253181391842358 0.24241080513488575 -0.7128432365625207
P 6.29917967552776 7.8675132136733295 1.4410302813020222 -0.07336617159697688 -0.1157243248482136 0.08790421731215184
P 1.6840217262913706 3.134073455392048 5.847009077584936 0.036810483960130154 1.3509912983039958 1.0580426323205587
P 6.986144606814171 3.9104366902562044 5.836138541320111 -1.1733144430123859 0.9779877358494964 1.461167696750787
P 2.404477014152403 8.454424231044822 10.236555562437248 0.14561571309100727 0.8768893884445738 0.4832923181094386
