# total energy = -381165.2620942049 ev
CRYSTAL
PRIMVEC
9.30084695042921 0.00000000000000 0.00000000000000

0.00000000000000 9.30084695042921 0.00000000000000

0.00000000000000 0.00000000000000 13.61272965597450

PRIMCOORD
 96 1
Ni 5.1681270570189 4.142383183075156 1.1342642926081226 0.30669943991062665 0.5891011836161532 -0.20091885653868624
Ni 4.862854667930796 0.9044924563705937 8.20590262714733 0.5069009586673141 -0.45362538717262524 -2.507253928040418
Ni 1.4730587932296906 8.341771255331986 2.532062494831076 1.0376267876683678 -0.022240556565755246 0.15245639016192453
Ni 5.506287239898228 2.8859318077198433 9.294662527469377 0.059778405610213185 0.3488012541766832 -0.7636078687098977
Ni 3.8138958807226575 7.075423779129994 3.4093760170906084 -0.671992778205062 -0.019648370358546805 0.9231751588849908
Ni 7.323021618076872 8.733476412435317 1.5503534794010603 0.04659584548166814 1.0049393247376757 -0.6732875857570856
Ni 8.449642474899466 2.565489737728604 3.6679637364514317 -0.6914043499624545 0.32524634967487853 0.9335125362552568
Ni 8.782166344702585 5.738482876775461 6.790669057774763 0.4873042674823091 -0.7526603685594586 0.8693971938325865
Ni 3.685348879029077 5.543741749399715 13.22456228807938 -1.4288661564046037 -1.1466436185894187 1.7089474795070696
Ni 2.340809184952985 5.8589102393345 11.029156029222642 -0.8040286957291056 -0.18686546376941365 -0.7872414489684378
Ni 4.675730933969929 5.2755797384866625 9.894031408298432 -1.5372931762604556 0.7668281754194084 -0.688802393563233
Ni 1.0729084673587042 3.7693634269125957 4.582425770357323 0.5741175657231274 -1.4702907420979776 1.3430689581331257
Ni 2.4860512064020086 1.006565528129972 1.1991562997578302 -0.8264700554517572 0.3215686437129752 0.01870169017456134
Ni 4.277905819764046 6.928433198508813 11.774139895451805 2.799920544007062 2.0038661247326846 -0.9934315812083923
Ni 5.187612330772467 4.493787771598912 11.906332829036268 0.5249578161690249 -1.4178008997293776 0.37872118166456714
Ni 2.547222874887551 7.696459912339151 13.602070632840254 -1.0027770269790344 1.0313365837842818 -1.205302308772892
Ni 6.906911039336616 4.506976372163379 10.029001574695693 0.6734732194053304 1.2155301571484871 0.5991084313405101
Ni 9.267893760696039 6.506174760126022 12.687962031107459 1.1895370755188353 -0.9583259957545107 1.8186340828016356
Ni 1.6296571484510793 5.923104682984677 0.91146437102724 -1.1832335018983107 -1.7398130587376746 1.381845050460059
Ni 6.697511777624057 6.111604942251285 0.8490026751098984 0.14847966490236364 -0.45251209950378846 -1.0044929812288765
Ni 0.389823595823929 4.319592214496021 2.532511725724774 0.63234328213424 0.626600980333824 0.3916918828926222
Ni 3.5769289095086325 1.7030501294484053 9.864518891760271 -1.9127382582769124 0.981698351931864 1.3254471312863043
Ni 8.3658976515691 4.098343674138095 11.863942360212098 0.6305851617925528 1.4259119588722862 -0.42464519789019123
Ni 8.564405621842313 1.6780587544718732 10.286622006003833 1.3950276105886037 0.6607339174617911 -0.2481219965870501
P 1.507778853813016 4.719742540367008 12.660586849131864 -1.031966761169113 -0.4890731864572738 0.7417943723792321
Ni 2.0801994615281885 1.9494202566361087 6.395613735704351 -0.27771128020839264 0.08676136195696026 -0.5506873597246451
P 0.4186971441965179 7.382193604530426 5.483194167725087 -1.2037748163847721 0.42420168259486946 -1.797127061967795
Ni 3.8755883966211826 7.394247501802322 5.759422802946717 1.3925200136754017 -1.1325269766823785 -0.9244877070488271
P 3.6587298558869725 5.812471111959054 1.7137609844625379 0.5163245659740591 -0.04705401606500929 1.1491411882002918
P 5.344545516473631 3.4588825636946594 5.952615339353503 -2.9486868869119087 0.05558262236131073 -0.8505168119883159
P 2.8182402457253506 3.983571226348588 9.834175809615338 -0.5442675722412303 -0.8567504516028535 -0.5112587214153776
Ni 7.324742274709049 3.6250421892829534 5.768107933558212 2.4727749204269416 -0.4801293470004247 -1.5342597887507705
Ni 4.698518008287944 0.6487610270191838 0.32257661429980455 0.6533021437740942 0.9822056305855859 -0.9702343171563227
Ni 8.391884217138298 4.260457431429109 0.7953507411493009 -0.7688076677432824 0.23533435790407856 -1.2100801897775098
Ni 1.4531456805297445 2.1846758720646173 8.861845767957684 -0.6853298616336003 0.3011877660637781 -0.681522057851736
Ni 5.773491263605258 8.13802690838896 7.004919641105393 -1.5101515828486571 -0.4046538423699289 2.7950940691526958
Ni 8.277055964268827 8.346384475275553 8.072144361069919 -1.1984536612821748 -0.5492670823383509 2.501943057350465
Ni 1.0997693125139796 6.92026705514097 9.007856039340858 0.2546924507157162 0.7491567262815743 -0.10801512912941397
Ni 9.027820306697436 1.4702499375382456 1.8506099218852035 1.2195086821802612 -1.1582369798539731 -1.5863899337871066
Ni 6.782214588160446 0.5120646234817487 12.882638052556581 -0.23942781124716184 -1.6452262871990246 0.8512621747947726
Ni 8.26788532946166 5.809439035947759 4.391806778221472 0.9759483368219645 0.4139437523122871 -0.2296553052414303
Ni 9.125702416951631 0.9283407572925609 5.655204025862782 -0.010541522961272167 0.8579069338047999 -0.18378322529966412
Ni 8.47331312965022 2.060807196241225 12.718726441606112 -2.0056399288036557 1.0256174219123175 0.9330841904685866
Ni 1.6553739894671238 4.9440696609695305 7.977386405208955 0.04431244876413014 -0.8961178976568824 -0.4580245446815854
Ni 0.572993539869454 0.5377051975551778 12.72144972950828 1.8058017069236578 -1.9836485121342289 0.30601141270466653
Ni 6.160843624471516 7.180848876025785 2.7604847782181787 -0.011285085995516047 -0.7178805418761119 0.26617036944832867
Ni 3.201184005274572 8.299917445360125 10.322165191516605 -0.9923180364292395 -1.3478093010315884 -3.1462350272061492
Ni 5.973719890510649 2.7660066908804666 3.7689969735541755 0.927524436992622 -0.4555274892913445 1.3432044552697253
Ni 6.509950903870151 1.9067665738514505 11.137635524161713 -1.0304878626307412 1.654568133425241 0.5962298242411345
Ni 3.5330661166581208 2.770889635377184 4.146110962416649 -0.4959917679539781 0.2766771825169235 1.4067832084626353
Ni 3.412973584578856 3.423725363318295 7.789231207353449 1.2601254272603588 -0.6720403436135457 -0.07689655334773854
Ni 6.445700655140011 7.46543618214113 10.027054907489669 0.5752079705738287 -0.6201284852356029 -1.4044720438309553
Ni 3.88362432813578 8.39487908976295 1.5746658925713821 0.970079279635697 -1.404639165536439 0.6839206399908996
Ni 6.858509433315822 6.2569213704735915 11.945728425235782 -0.06960927565770593 -0.8044932940703501 0.1466310417293991
Ni 3.802232619010498 0.33600052628477994 3.525819827024992 -0.4590573568214739 0.0009986164678434414 -0.6914837970501381
Ni 2.012303280907167 6.922443453259507 6.669229763099072 -1.1574301676819616 -1.1676050513324343 1.3614212353880681
P 4.433248560686279 1.4517505535306825 11.920177139290294 1.2615145942984016 1.6478269580466653 -0.027065488758224357
Ni 4.563590625785318 2.188079981942329 2.1646957932687165 -0.9757241366263002 -1.811071182852713 -0.8084980443543688
P 5.880395195120056 7.651434513656087 13.181369156188419 -0.028842892373621292 1.8597164546642422 0.5365380648074566
Ni 1.0212515650067655 2.87664956275275 0.3088318231050449 0.35744221768113277 0.39057319590714673 0.26255282730039947
P 1.265668514395782 7.900585593995254 11.159197676974552 -0.38854613817478895 -1.855790637247275 1.9178791790479033
P 6.660996653635273 3.7547796993490667 13.210555213008796 0.6947442129689648 -0.6100127369578398 0.45859378692149405
P 6.99217190067263 0.5235409381760334 9.330477297704633 0.1041186222884852 -0.29129056155472416 -0.2605301404434158
Ni 3.114118779686437 3.257798258896511 12.85641989590554 1.1768062582157282 -1.3477727913666981 0.12243516120948592
Ni 1.6999343458171665 5.93622817762252 4.416023392671192 -0.12298691994789786 1.0261892352553874 -0.9563639869321336
Ni 4.196123475079026 0.2544125692949633 5.728672343718056 0.7757691866627802 2.7793386060906524 0.7912639398642696
Ni 3.7526684071571528 7.051576408292693 8.238219348953603 0.5117040364829123 -0.7599196212250332 0.7105248728419892
Ni 1.3126191883375513 1.2877208218276233 3.65975480918895 0.4705571299309574 1.2467160958329881 -0.6253334264753101
Ni 2.895874412799826 0.12366219702753094 12.126001155546588 -1.0896304344291685 1.1353094245235222 1.6531038901748885
Ni 5.348721596624157 4.862761659464192 7.667315709328744 -0.46886920070557314 -0.4687663565791217 1.9742387887845547
Ni 1.8393261347167895 9.089847653075736 5.268371582324842 0.8032275399840489 -1.329579408287123 -0.8720446587577626
Ni 0.13207760308587344 4.176349875078986 9.686913644271673 0.37777835813532357 -0.3585130821478084 0.09411060323317985
Ni 2.9258882449729815 3.74609270856824 1.9311701353190447 -1.3499181198444752 0.42714508149390956 0.10655885629886164
Ni 6.267189505186689 5.753968786465051 5.946543746653585 0.08904707266734341 1.0430939814305262 -2.3837710422927074
Ni 0.8003090225039675 -0.07678872011304308 9.758979394450558 -0.5216531772758242 2.1148485640205386 -0.8269264262628856
Ni 6.988014422215425 4.780867704619247 2.859517403204268 1.785747873596576 -0.7885606820004936 -0.9689500511272603
Ni 1.0087605279418297 9.00587960942552 7.4480417387168245 0.8664864479436949 0.8907131817015433 -0.04689615033090633
Ni 8.386229302368765 8.297536428615059 11.659248396825044 -1.0415209805164514 1.5171840642154064 -0.5625745980805344
Ni 8.22879387094794 1.4269265937940379 7.8481464904391744 0.777968508306944 0.8332590533491326 0.001576857568816639
Ni 7.621178859469761 3.8009305004780405 7.995123119790366 1.078358203949459 -0.0146858841469489 0.5372973115709843
Ni 8.813435791174895 6.787423062290278 1.8382221242181984 -0.027986200800280834 -0.5709479097458942 0.5328166500918113
Ni 6.8124330389601315 2.096754968583725 1.4420507005485368 -0.13699943217690602 0.19963047674456588 -0.5181449070122497
Ni 4.980352263791804 4.993122326256553 3.670331732011173 -1.7898608673236853 -0.06604135580078949 0.376807509581622
Ni 1.440077990971863 2.263268026345115 11.35979554749236 -0.0329142342295175 0.728285796369836 -0.3647312951433783
Ni 3.511348639706054 5.093497063415739 5.764950296117 0.4472739910333007 -1.095595650873668 0.38802497556399623
Ni 5.902577714405143 8.141356611493388 4.743872656942785 -0.5863663011834934 0.09911448420567447 -0.6971816187658638
Ni 8.743549229368547 8.774911684307462 3.6889269147393384 -0.4978586459593878 -0.1534974298319292 0.5779644502730433
Ni 6.850268883174695 0.626946821261849 6.089068990793102 -0.5148315263683005 1.3982042085443727 -0.8577704082269357
P 0.4414832884298659 3.4708899567332536 6.653670376720865 -0.6605187161271915 -0.19228200679929466 1.0356884329950744
Ni 5.169559387404604 0.057296935766813696 10.286404366191979 0.39434834667886276 0.09450089669306307 1.5802241712960268
P 6.086622868121413 0.3470192393233723 3.261500925952022 0.2598025182487719 0.9324061905649554 -0.8700258285555209
Ni 7.688265866431326 7.672510232188586 6.021781085543672 1.7410201916718984 0.219641372648854 -1.920277504076751
P 0.3948516335285488 8.40925819869995 0.6814237403212252 -0.4459398456029094 -0.4504554740850758 0.3299087881475544
P 3.1694588173159 8.971987324194972 7.487491279826969 -0.2920958310648389 0.1985632118223161 0.31644520644348084
P 6.943844701425119 6.511773869815593 8.005061074447017 -0.0244416779821321 -0.8754917367660987 0.1816399537044162
Ni 8.743288805662054 6.311535942063542 10.493031975599735 -0.35793766926031256 -0.6550576930126203 -1.4342708723599429
