# total energy = -340867.1875924084 ev
CRYSTAL
PRIMVEC
9.31273821217343 0.00000000000000 0.00000000000000

0.00000000000000 9.31273821217343 0.00000000000000

0.00000000000000 0.00000000000000 13.63013371952068

PRIMCOORD
 96 1
Ni 6.993019027122556 0.6531461089979376 11.977916456354045 -1.905507030635796 1.495274665736825 0.7792748858231934
Ni 3.7321450751722964 1.7508413698519742 3.896882759872153 -0.4934877705852017 0.7386776811271214 -1.0249502206419638
Ni 7.587357987384001 1.3762830341936332 9.687495027624788 0.40803998523334245 -1.084356073404107 -1.2858904520396046
Ni 3.238271936021796 5.315152274829477 7.2076422572381516 1.1181401118330871 -0.48364353080127026 0.5222753842408553
Ni 7.52156349107803 6.065218845455885 12.163995212212397 0.9306100178964811 0.46503234345798616 0.33591051425694407
Ni 1.8039891675049367 0.4056144554433593 3.6612043596648136 0.10233941890087535 -1.323789026857591 -0.9640263885733976
Ni 3.286418793191205 2.0289756128348686 9.908425775411727 0.2912509665660404 -2.3278636896021263 -0.18995181600422126
Ni 5.201164357662443 5.149851169460616 6.084505526538639 0.12595705831981532 0.20046377127913864 -1.7690652707345726
Ni 5.120683673009052 4.767982334212723 1.1244041943863123 0.3456480532596821 1.0546932562323512 -0.9964891370877935
Ni 0.02551783429978668 0.014705745097913633 11.413860658596175 0.17441129716646092 0.8769274407713608 -1.2241490091657499
Ni 8.813072668247846 0.1557350605556267 4.8596196793862205 0.20159120001536246 0.10820539076334913 0.23251488617741248
Ni 4.277173085973003 4.8305732485329544 3.5255978517370323 0.4077039420501623 0.8620746920292444 0.4023012829773523
Ni 1.8541010124621105 8.884901818992073 7.976013946327265 0.0893275800222397 0.47043166009668663 0.5079150017541253
Ni 2.427737755414543 8.785227580639233 10.831294862132324 0.16903203513241857 0.7099851982884353 -1.3408336410447037
Ni 6.487672594348706 3.316294057755898 7.020064150508568 -0.51146775210239 1.3330776512483686 0.2244879021078779
Ni 1.7078444569794093 7.89073906398126 1.317495442207635 1.9816818753261616 0.7383760907263025 -0.8106156049180041
Ni 8.651561847379558 2.556402548190665 5.979525821158834 -0.3540329348892677 -0.6241239795482413 0.1088327399347029
Ni 8.569302429705015 0.9786570456902969 0.1044209410799672 -0.6765474874552799 -0.3733555464772796 0.9086437980380352
Ni 1.4882035234512647 3.384901001037723 10.761862810234406 -0.14354031861921732 -0.3407848116301099 -0.7338501778314909
Ni 2.818910016254746 6.117351554630807 5.13001410554252 1.6107670770798903 0.4574005379443413 -1.6427102056453904
Ni 8.40204564928672 0.9815253690961341 2.624646294677595 0.5817784247024949 -1.7325298948127 -1.1037419341298862
Ni 7.449268703417271 5.889189465530127 7.20229860798403 0.6491755232002304 -1.2068634826124247 -0.7860379155786399
Ni 9.212412200604021 0.8073305986215128 7.500566991237769 0.2187628266986426 1.290011930407146 0.5481411962640237
Ni 1.793661340696257 2.319737928994111 8.061147275050644 -0.2136501880624256 -0.4612610493410121 -0.5970350937512492
P 0.8923195799007665 0.7961078176592585 1.5232352512296334 0.9110261822272826 -0.34953093325385615 -0.05117806553571186
P 5.087483760860321 0.2761627362782979 3.237674989494802 -1.0258254241580655 -1.6033766981530904 -1.3392979211264675
P 3.9638553175769506 2.9431419455854835 7.640371681605002 -0.10410936631710457 0.5321556194690448 0.23358677908535258
P 7.284628802469886 4.135200390122396 9.67446464415256 -0.24730130045796767 -0.17103492449506025 0.30109109258491373
P 0.9513241586898684 7.204362310798101 3.2937078734825964 0.27789100031936653 -0.03481325102444327 0.8110624626474354
P 6.978146584008524 7.116925010611721 8.872440443831843 -0.7735546955099646 -0.38534331496677504 -0.16587780577415304
P 1.5182277918292482 6.815974558718759 7.111317810862843 -0.10944646225930182 -0.05620868598108384 0.08128156978931163
P 6.319270347115744 6.498289116045636 1.7920353365837272 0.24709715486696154 1.1211912399545851 0.9748052243564567
Ni 0.4505204796737054 6.157256638377599 0.4197158038236144 -1.0614238900879656 -1.1228516583761436 0.5282611695106451
Ni 0.6639190846988219 2.581146493935176 12.898263653534707 1.1505460389676185 -0.5413046329581644 0.9944564229284809
Ni 5.7780605590306 6.090521555500233 10.543317054733944 0.5109710149716297 -1.774474357565286 -0.5365077257901534
Ni 6.537532995370953 3.6556223043094276 12.222400050653006 0.08108873705221518 -0.15453769817098545 0.5090393451665556
Ni 8.297854732843518 8.131519913519957 7.51761861512117 -0.33588480322533126 -0.44330857862764944 -1.1908570798818394
Ni 3.9653453557098532 3.4927238854298728 11.65047964537491 0.24109697141946868 0.3911439808089522 1.657071359463069
Ni 7.5289112416209045 4.934056396863027 0.632941191915781 -0.5734408513710769 0.5710227288478875 0.9182543245446056
Ni 5.0128235376635795 0.8395554670670263 8.261061034972993 0.813871135740824 1.5690259885873623 0.8862528319373446
Ni 2.664020552339541 3.1805422711101583 5.710221916661053 -0.1210562785840883 -0.1558913839854025 -0.3478383760427816
Ni 5.832866024106416 6.590913611482182 4.042207110247957 0.4512563727198164 -0.3234910575466687 0.14345341533236583
Ni 8.438337390561223 3.2011047973442115 1.7784322197041613 -0.23072745525968652 -0.6093514492247569 -0.41855991092805983
Ni 6.311270704889724 0.9531122044493514 4.935199069856196 2.0940663371678645 -0.06717392674333593 -0.13814588707652337
Ni 0.6095345553955505 2.403785392428137 3.8011310469041786 1.2583788768828972 1.911508242524553 0.02295223792079918
Ni 9.092818014961942 7.433418422778522 9.64973932388471 1.1778560396364812 -0.21284440433167862 0.292783858270799
Ni 3.8979397556726805 3.085803784072558 1.9249160060021302 -1.1066796766019715 -0.7055721568224043 -0.7584450935620357
Ni 1.0490054710399515 5.089458061386416 5.930975722419708 -1.749563453256219 -2.189749427094487 0.13502791027283198
Ni 3.670606500283428 6.039534313139979 11.407836248170083 -2.5465203297402077 0.9561968652266498 -0.4908338779021224
Ni 4.266547251537743 7.393345709741778 0.9308687289466178 -0.45371666133485083 -0.09224552499998306 0.049234054435463595
Ni 0.8892826959311448 7.027746228357513 11.992637101833289 0.5068258824550046 0.26789840788302893 -0.8969259953804747
Ni 5.250279739618239 7.572392416886663 12.443535678683219 0.5698716459625799 0.39638388905165284 -0.4250282922612228
Ni 2.6484310283740498 5.575834446180752 1.14314142390756 0.8651906119504068 0.09610603639665384 1.0554807851306531
Ni 3.0821345651702856 0.7789165027008971 1.4902504633363394 0.9317284477716405 -0.18684309517191047 0.4327068918524032
Ni 4.3129340011626605 8.54989468302396 4.972558982217224 -0.003548636583206792 -1.2496273559425122 0.02059582187348066
Ni 6.571878374334353 3.9364944923615304 2.978565739647572 -0.4044941768636131 3.3014306706761074 -1.4042113339704008
P 0.8454578806209859 1.4567637188470242 9.911983241454033 -0.3508113426281765 -0.7124071774663666 -0.6653413343268154
P 1.2090355665136694 1.291956188609688 5.638159016184726 1.3155000473759215 0.2801970227447239 1.3860572887691935
P 3.9057624558704185 8.672059184445295 7.218000816083323 -1.2210261472660522 0.4144698000190862 -0.6557734881327222
P 2.3524722042263106 4.076660516975993 3.3410864297397276 -0.7037654426309686 -0.8768029993783545 0.1961029232072816
P 8.91787822542087 4.100342810550811 7.496859590108341 -1.3570701575082242 0.4677294306741751 -0.8548239240041019
P 1.461708782900594 5.5364043120888216 10.305567501521871 0.014083988896891872 1.01386953734777 1.593308515283811
P 7.1959435953472015 8.19818980722901 5.401853868687735 -1.115140662885131 -1.557566324687195 0.8584352955044441
P 2.782245765447016 2.676006046571075 13.442855828181537 0.570130041830289 -0.2753332668945193 0.6767770869675829
Ni 1.8023221873437523 8.239091353977182 5.529336874969699 0.18472630593922382 1.0062567579975186 -0.34131600154323155
Ni 8.815084219727265 7.999493222206474 1.7614355409769102 -0.8381742312625629 0.08779160299368752 -0.8474392015042567
Ni 2.5763131827415737 6.949668230193426 9.069750362116947 -0.5684074027122274 -0.9991170616289439 0.3897807819128384
Ni 3.3591233413385115 7.3540459539864775 3.045516878054209 -0.4531695305821293 -0.12707188865054891 0.8655765345349158
Ni 6.218702085883162 8.807121828454568 0.9448657746575696 0.7259499491478077 0.39579459220708607 -0.2243868577536394
Ni 1.8367979446437814 0.5646117682362092 13.066582086122693 -0.010443049710194918 -0.9482621837606057 0.13559509563021163
Ni 8.499792150805117 2.8091875174375573 11.255941760902015 -0.4675720791607044 0.13565988742987606 -1.1202234767246773
Ni 9.07634378085504 6.912119269244287 5.3577329082986624 -0.8078023038389248 0.4019791237512432 -0.5959014943674382
Ni 5.714175174082409 2.7590011705737387 10.14042471270463 -0.681234094297672 -0.2745133420963853 -0.512725278658575
Ni 3.292909771807661 4.293600756388252 9.613197069949111 1.9785996368564116 1.3630672556319234 -1.289356041990702
Ni 7.099836135774997 8.464450308840338 3.2035996799429904 -1.2873089296536862 -0.35466105539156983 0.4991683659097468
Ni 6.199974169100245 1.7775130524309273 2.2485904706956874 -0.6531717888438171 0.005655398513564453 -1.2489308440961202
Ni 5.430481226316123 5.171400845957717 8.396475700491164 -0.06018104036527054 -0.47413404864893827 0.588454808281406
Ni 7.851783879544193 4.568857363226979 5.147679438881912 -0.5976650140257642 0.2921482815693291 0.3449425425522253
Ni 6.971823234682019 8.021592350265083 10.754230089898615 0.5679628589756411 1.2487426393447139 0.1467274580979473
Ni 5.607777138654847 3.2432356255520274 4.791551012379907 -0.718808195896704 -0.48468662735380397 1.0001784130139226
Ni 5.571317768090391 7.423118534184835 6.989519300057902 0.9911173312529188 -0.4031314921881315 -0.621727968512239
Ni 4.173112547866432 1.1343101541486138 12.403734897605728 0.5441246189054629 -0.47435310663827984 0.2710204984517784
Ni 1.9774761698664294 4.6687364818230925 12.658822907041788 -0.009885120324195877 0.5156365387680991 0.3234524909992494
Ni 4.377592343392294 1.3197547125266484 5.989339584811662 -1.0248139521744157 1.2829138859097842 2.3613317394525852
Ni 8.485180464364342 5.585240311894698 3.1955981751693043 0.34433961886090375 0.8931572723666618 -1.1973735408441186
Ni 1.2569961689164655 3.654514088448082 1.442967828284014 1.4460974326812257 -0.2883029396813099 0.3112783175305607
Ni 1.4484288180411014 4.644225354536848 8.336612487227976 -1.7883009790357332 0.483825050684457 0.15147551430589395
Ni 4.679194686968401 7.932627760992479 9.254724627209283 0.7352493721718628 -0.23904008889043993 0.5762137861305238
P 8.23703323880611 8.281184931231673 12.87770950876515 -0.8928525966420494 -1.5996128602352837 0.5115603118161963
P 9.082229431480004 4.4146849801632335 12.816359982464395 -1.5472101782638517 1.3788026640893094 -0.02422261999279054
P 5.8372709493368085 2.172270717528426 0.05768216994615113 0.30887047942001644 -1.1057355675211473 0.030549333541766744
P 5.16037456377424 5.2002423965677105 12.601126767988141 0.37842679035259985 0.9652661745177699 0.7297526107233496
P 4.953771463908992 0.45534261558131084 10.447988140086181 0.6787856327571794 0.16467812903909704 0.5562188310658356
P 7.065956393728128 1.4246440843446468 7.476237462348972 1.0164668657613012 -1.7448218248061758 0.5446354971036104
P 3.1197487152877406 8.062400769629948 12.686696864139227 -0.2034040848543852 -0.4922834658644553 1.2367538424139537
P 7.773277495416898 2.4922657193075475 3.851712253873217 -0.7916642606264818 1.107646668500931 1.9295543013929868
