# total energy = -340859.58123971947 ev
CRYSTAL
PRIMVEC
9.35944080085547 0.00000000000000 0.00000000000000
0.00000000000000 9.35944080085547 0.00000000000000
0.00000000000000 0.00000000000000 13.69848767882886
PRIMCOORD
 96 1
Ni 3.4339226967832044 4.453090931472561 2.209867878058646 -0.3028936930112912 0.5793250780659958 1.1280743402276638
Ni 6.154955501748654 6.7528740219787435 7.080077266792591 2.488490274279669 -0.5359027452163029 -0.668559841264113
Ni 0.42049534352553525 7.367536581916609 8.422789204917516 0.8367768366944041 1.954052286534351 0.8040963157422475
Ni 5.79835144534507 9.041940552694314 0.29947122153036887 -0.6237629966643967 0.6939823951022758 1.1787099029963441
Ni 2.7832730867187854 7.559508073501973 12.01531324282543 0.6566497200900885 -0.5702768518207986 -1.4485284107202214
Ni 9.030905771914288 -0.009051515260699377 13.338067109249481 0.431638855599205 2.5347521334606866 0.718502234620511
Ni 9.261101219992977 8.535576083007252 6.280017286533052 -0.8974805823323639 -2.7860021341537564 -1.2182100179734956
Ni 2.7335838151656344 2.085133673704529 9.204561773670612 -0.7327775135926025 0.30577975630983467 -0.6121043293795458
Ni 7.6940313170569645 2.2094083295121663 0.26786438972871257 1.6633448511766062 -0.8117417481026472 0.3628117095231622
Ni 7.909176784224472 6.201977332655234 9.225959327376549 -0.8392669501061093 -0.510284016206934 -0.3835399432094491
Ni 1.2932313821030663 7.9100378527840665 1.06751629836653 1.3293636927318913 1.5251370005138958 0.06172807313741627
Ni 4.775972922438962 0.6389194228281095 8.28659904494444 1.569419367371039 -0.11981494997781944 1.235660609349775
Ni 4.633728140170212 1.2144623277818527 4.693883138498789 0.31721422339902144 -0.9310985274971254 -1.0877067350438945
Ni 9.424676167993434 3.6688353030579366 10.497425329747678 -1.39287611146324 -0.601399541367532 -1.0417557222350768
Ni 1.436412108458334 4.279108285230041 12.201996650321975 0.6460272073792358 -0.0541821424693583 0.6313454369973449
Ni 2.8271314266129406 4.218047293025716 10.126551869801066 0.8745995639691325 -0.389210254121349 2.0066092346954605
Ni 2.4327713857592874 8.235484330547523 5.780432795808714 0.2600539721379457 -0.41783743093973846 0.030210976365741517
Ni 2.7608291475241242 2.5275263650782 3.500306403007548 1.0222343643726977 -1.2958570763340134 1.113346547099186
Ni 7.357915076707221 6.902231979305018 4.475940134456684 1.6379690914159792 -0.26126599016817587 0.3350355678511585
Ni 3.6411968741831098 7.525299317139801 0.7289235499638653 1.3042848953863926 2.529096992057438 -0.9046940693616679
Ni 0.8018036440927185 1.6511831979912348 11.788822261441172 0.4830205525052907 1.5583075737285936 1.116538314563606
Ni 7.1365736596869755 1.9659037565232143 9.304670353164399 0.5574982119988915 0.48121409542417126 -1.7018376079351658
Ni 8.94629642649321 8.543026197935923 2.094156174698546 1.491416211222683 2.3777482331373956 0.7382171965509351
Ni 8.411900431414985 4.883578414065744 0.4281008251725669 1.272432012541854 -0.1848425198021139 -0.3118334187030823
P 2.2510297630395475 7.938527990777624 9.624694906834666 0.18177725061322886 -1.7443579977958799 0.2829537595542546
P 8.990201563591691 0.8677474565963992 8.950906887063391 -0.3843971490034218 -0.9321387958361818 1.928583452839285
P 3.46752308948914 2.193497280041389 11.62061906993289 -0.8910345695967042 -0.21516662470695203 -0.04830537197360713
P 4.771143450952538 2.8073736469465813 8.65625296974632 2.1562777776996027 -0.645961644248623 0.6210635954553627
P 1.8246604344270356 9.111836857075353 12.919632714602455 -0.6324839214771624 1.7259422142928533 1.1041103732128985
P 6.348256033936871 4.324576448953004 13.43757294075155 0.022989261806321697 -0.9771626688450397 -2.365406423742591
P 7.110573132963553 0.3979821444684716 12.326611989777106 -0.5066101668997727 1.126289480413099 -0.22361167015051164
P 0.6593875840561351 3.066527205062086 13.79615839078629 -0.4882766586979075 -0.5941755128152669 -1.275865463703435
Ni 3.728127360938746 3.9748141438218534 5.324095473490037 -0.24150140594673894 -2.2377709492790885 -0.6983108472743005
Ni 1.4458277059686881 5.837221203258093 6.807243949908564 -2.345909491360244 0.3529674697392308 0.3945843739490688
Ni 0.8963742424265876 9.079284721746316 4.258517515326682 -0.594559378517247 0.32781925260837735 -1.72961837759286
Ni 1.1608982477105234 3.4064059406396243 6.455864333395912 0.4924593293206874 -0.032545538036189106 -0.008514465228914369
Ni 1.1198664589576477 5.703250166714145 9.967759596082706 -0.3478689721704009 1.6491575039326305 0.279737309499486
Ni 5.357269075692521 2.1029072519074736 13.314396147357396 -0.26590503160208395 0.6477207930315748 -0.1828789683178399
Ni 5.194761103950691 3.282777086251683 11.003858123353055 -2.6607865819856564 1.969580464076937 -0.5147441088608168
Ni 8.363334292765654 4.052272876421944 7.9565608254925335 0.126390289202492 0.43510084600587645 0.5640121018580093
Ni 0.2854086616304611 1.0976658652254805 7.006393196693421 1.5197094017404214 1.871466139001003 0.18550123643203537
Ni 6.926501009468387 4.169883610333586 9.99100563935951 2.5658200585100843 1.0311872026906113 -1.9075310030443597
Ni 5.725956170253032 1.1965296390842 10.854147315106163 -0.4750007675246078 -2.6371190631653874 0.5126442889089945
Ni 6.756046872432034 9.101438518274158 5.031591419739695 0.07227319564311423 -0.14867429741167298 0.7442328066173957
Ni 6.9935333249446865 8.351737945533715 2.576137429043685 -4.078801911718685 0.7575873735474307 1.9627840099803937
Ni 7.512832541907404 7.7435146809110815 13.049042895612807 -1.4395927987934884 -1.0641374323643868 -0.1476913646731134
Ni 3.400696681711875 4.128861181021575 7.891959156808917 -1.8370287832587395 0.6248325755794917 -1.2708847226593918
Ni 5.252031522604626 5.939697721290765 5.03583779806022 -1.9896047297176638 0.3830720024340951 1.1988249285786645
Ni 2.399554730128823 -0.17180564029728262 7.9232327925157735 0.02413725936783585 0.5423104485148595 -0.14268414126650908
Ni 6.628402817912937 3.724963869926321 1.6354078604130025 -0.8751130132704412 0.31799789564258135 2.17248061271171
Ni 1.0832336074113988 3.053489503936914 2.1483473373078414 -1.4067749809325192 0.6273694830687324 0.0007600180944761104
Ni 7.927324740062024 2.4357102501909487 6.304838523707465 -0.5209934322046382 -0.9008448708189066 -0.3313810018177067
Ni 2.7239061533110553 6.106202174282019 4.362913654680799 0.313458355901015 -0.5913940934153878 0.15971667126876365
Ni 3.9638542385687474 0.24223543280763604 12.570732413974985 -0.6294119674200579 0.7847888736628872 0.49569017755315925
Ni 6.166795194443086 1.5516081066267633 2.5626991438494837 1.0483434027549237 -2.0248905495031515 -1.2344673603726224
Ni 4.67436683240675 5.541406715273743 0.4197269334305053 0.6866570650854562 -0.72150348334068 -0.4404232866600544
P 8.492092120747705 1.5492214492061465 2.4163446310968393 0.6514566059249232 -0.33952368552949913 0.15294515687288499
P 5.99421646433034 7.488011304732991 9.098494038177977 0.09363263515549682 0.5677983083733189 1.5401707549185668
P 4.3305009750206525 1.4120682027680442 1.4837924059500496 -0.771981951706206 1.5002134977993389 -1.3181007182235622
P 1.9240951341785302 1.2146120788356953 5.351917347405821 1.901810298510499 0.2077911581784873 0.7648656523763988
P 6.657426444035808 4.880134139827364 4.090806630407909 0.23908868274018824 -1.0233165416932826 -0.9518748408125283
P 3.4483923923607467 5.508601875041346 12.146572849350738 0.259890707087204 -0.8448058776464676 -0.188995622738539
P 6.408970726829185 7.078273702537874 1.0582644910713161 -2.3637285218195356 -1.216873558550259 -0.08750055411582995
P 1.031943871470304 3.979203721587615 8.567650886852167 1.6310080867171137 0.21067130793975974 0.42709314521005154
Ni 3.1382673192935626 3.145511526523199 0.38777005854049196 -0.4464016157306764 -0.9385123034626933 -0.6642879533616366
Ni 5.209539661076785 3.2755141601403164 3.6344140873881257 -0.02598896786459395 1.433823757520195 0.24150423416021632
Ni 0.3700226867719694 7.284920797399813 12.692484700469462 2.157450972072098 -0.3569179697465466 -0.23813377502608668
Ni 3.5415656261734467 9.226143708361592 2.5223842882668794 -0.4060286112302685 -1.22043453642864 1.216373478985389
Ni 0.7034976929095629 6.699740476187212 3.609455266432995 -1.599343408623981 -0.04996810438801072 -0.7087752371407341
Ni 4.816770725170208 8.673272177015534 6.454494111253252 0.3907567726728625 0.6782963518255867 -1.1062870691492432
Ni 5.455019076088287 8.13846436653924 11.40260774197247 0.5439333288302632 -0.25114047169839976 -0.6846305215737306
Ni 7.218712112719648 -0.11901839381776191 7.867151022851716 -0.039711973877641284 -0.5730814111491291 0.1662999809132362
Ni 0.7336987366932716 8.885066964353314 10.926173828228114 0.6399655745661882 -0.11286140147812176 -1.6113802851838572
Ni 5.326757298472089 5.181311587427452 8.912688546234582 0.3138388791688853 0.0562002013406516 -0.8150607851735511
Ni 3.566620849369489 9.570964228715935 10.149510578243312 -0.23216264504431627 -1.1570517012966202 1.7011408389784572
Ni 0.2541228586504799 2.307420394252156 4.555171545156637 -0.619744619533623 -0.46641148319369996 -1.0876082617928173
Ni 7.292062050779934 2.900649834608798 11.684782716784017 1.7220086835664024 -1.319640037686224 2.2664696027653615
Ni 8.274494480073523 4.625875569284339 5.561366658862791 0.28451724738663253 1.4451430391877562 1.6920154796384215
Ni 7.924722815501508 8.116216975602747 10.626834574813945 -0.9001002793433981 0.43461002241238705 -3.0853237935430735e-05
Ni 1.7632063457063738 1.0054847321444875 1.0801515435345004 0.21379802649419954 -0.0027107140629437183 -0.3787026697218059
Ni 4.07126318193736 7.058047950828255 7.897150838656823 -2.2446792463631473 0.08532694350327885 0.522268699372636
Ni 4.589794924749135 6.696118372572393 2.7980535157330513 0.8905116072136987 0.027129252116624248 -1.1140142625901719
Ni 4.0476586720754195 6.451331556184914 10.218510248189466 -1.1478571792815457 0.9794213829722292 0.7254133599180475
Ni 8.394005180480793 4.019767538297232 3.378868593726141 1.1394149620514633 0.0638605460993868 -2.489166217300771
Ni 5.9004348668614055 5.547630743449076 11.647399238080384 0.061213595394842966 0.6654521488730668 0.654103556629467
Ni 1.9983061407984095 6.035575833513498 0.16599717129636232 0.08969370511240682 -3.6256305813643426 -1.7847310022962874
Ni 6.1747226408558795 3.729634230918037 7.081707681391302 -1.563093168042695 0.33329235990780665 -0.04359871052655717
Ni 3.9508352563253055 1.9651082040496755 6.670122525569402 -1.5465614889362589 0.07475019642869707 -0.031106234486501266
P 8.427614932627595 6.439005172565494 2.003856289231451 0.4662664729754034 -0.2882857132901293 1.0613724680247398
P 1.3415728941716345 4.299399553025715 4.087642203451397 -0.22062456249772971 -0.3272302128741268 0.31424305658583945
P 7.037728604709987 1.7298025012586062 4.4896928968639545 -0.39534670603639005 0.5213976096215924 0.6191057003980435
P 8.441120605796025 6.631098336882105 6.979201213147862 -0.970029143124052 -1.1344329354558398 -0.9443777611045349
P 3.367573620490062 5.608579422363019 6.386783236314229 2.6391813450110546 2.381875882152524 0.7407952416907565
P 8.348237514650144 6.029960168994399 12.108230027958426 -1.980065679878977 -2.819829110005531 -2.513489624537484
P 2.421923793796563 6.460194946684223 2.1443882938218777 0.6889947120796973 -0.28701430277687345 1.7970111052152211
P 4.261334707027096 7.851709817312369 4.5376244654226285 -0.19699715288677686 1.911592060487611 -0.008816055629733203
