# total energy = -340862.212670745 ev
CRYSTAL
PRIMVEC
9.26450109267303 0.00000000000000 0.00000000000000

0.00000000000000 9.26450109267303 0.00000000000000

0.00000000000000 0.00000000000000 13.55953381924945

PRIMCOORD
 96 1
Ni 0.7221706465038221 4.320592771336639 6.543953543002399 -0.9146401248307862 0.856433434583067 0.024746353706744478
Ni 7.053361214056237 1.593188474801544 1.1237311857456425 0.6854712723074711 -1.47559029993402 0.05147271395799523
Ni 5.6818351945403105 7.212126970815813 4.852754057293993 -0.8009832240345625 -1.0768032007575132 0.2308233574076025
Ni 5.57606238454299 9.269874592898223 13.23542017962846 0.1121152673407166 -0.771342261239678 0.2305377078463836
Ni 6.685486401112942 6.948107216125121 9.693277120127226 0.6959857986855498 -1.61373310168675 0.6577331829622544
Ni 0.05672283493821449 2.8615542736535335 1.3597638088149895 1.2234026179180284 1.3563183669438643 2.911575069661276
Ni 1.3480868315249288 6.129180898624625 12.222577661432956 0.4216339218676932 1.372989656951958 -1.4117428664607559
Ni 6.5762486676734735 2.2108805621232004 7.63363768690341 0.4686514282678122 0.7005142826835226 1.0565891877034834
Ni 3.2094640865491613 0.41807636549935057 12.912310509947496 0.2116061610492033 1.9677405826547207 1.5011619777555372
Ni 2.96174058943798 6.0603271258384215 2.783365589476133 1.3046790455010175 -1.0006239851917733 1.418929614017182
Ni 8.354097180038877 4.00169011164252 8.53727211806323 -0.24099361307238498 0.4488567621393883 -0.3169157183219961
Ni 6.098302316184311 6.678621405736923 1.1018271256005372 0.5920687508849093 1.5087744999954724 0.6084410215953456
Ni 8.242163476755387 5.181357576176008 1.1148159562579993 -0.03699688893932338 -0.6117412896131723 -0.7004489766632259
Ni 7.485652103719456 3.9846156359637024 11.963156805129112 -1.7646463157312706 0.29475743705740204 1.6325731172113884
Ni 3.220173849915799 8.101018801244377 10.584314609029592 -3.5255416490605405 -0.20081369841938965 -0.9658786112907881
Ni 4.454705690450348 2.7049471456694127 9.36768549057955 0.9348353688317385 0.9786778199379855 0.5163392212620784
Ni 2.379420367630011 1.4062678989492237 4.40071958916136 0.01866852294378075 0.6314724494935126 0.439788738399849
Ni 1.1697637127697018 2.078787304267214 6.54873958431313 0.7862898836884459 -1.1786759644346152 -0.43308278713458315
Ni 5.881031234459063 6.467261075765926 7.432441441179418 0.885225676224411 0.45116484144727464 -0.11507846373409858
Ni 2.8288042619744123 7.864616524577861 7.720364535370337 0.5039837850205191 3.3348403564848055 1.479243066195259
Ni 2.4701568922086 5.326819509237926 5.135619660289542 1.6193473625497337 -0.9219533706627476 -0.38941799925678094
Ni 0.7168889543798427 3.954885851669982 12.670869271087973 -1.4112594990664342 -0.7118754733326127 0.6858319980809995
Ni 5.8012916727837585 9.196388569520913 6.5877366491394165 0.4800601843253861 -0.8058166408674639 1.3078710700757539
Ni 2.234532833641389 4.9857839562195 0.7292746660103426 -0.5909798886961047 0.7855013263488795 1.3421659867028821
P 1.2220154994373804 1.4186360080274774 2.5724740432649558 -1.209317600579872 0.09196578897603518 -0.2052858752581303
P 1.420053476708356 7.259320339838004 9.228226027833587 -1.1410568685302604 -0.18088662047815945 0.861836350766193
P 3.9623993621287563 7.936648021269563 3.5217092756937434 1.2282925990204783 -0.3336880526843285 -0.8518674124789394
P 5.539699217402806 4.767549366371301 9.20147292776971 -0.029329345091736587 0.042763873330087646 -0.19727843157262154
P 7.35669951176424 8.610047554199864 0.9212601446589784 -0.13583343689326285 -0.5279107281497618 -0.030076764780722392
P 8.58394945436957 2.314957968404176 13.174985985516651 -0.13318622907840288 -1.1263897534363891 -2.223894448407312
P 2.5582808274538062 7.924798724257513 12.587722225877851 -1.8058572427519417 -3.5870915447488807 0.6606182178195332
P 1.9090245846043514 1.1463059957763397 8.919054800181263 -0.6548815724460723 1.1101306112650495 0.848061665579604
Ni 2.5636635026406718 2.417914370042104 0.7037806116571302 0.021789070850633443 -0.3840369374505257 -2.8763365581739557
Ni 5.681520201500116 9.175580499865664 10.626783082448853 1.595334544574904 -0.5940392443477188 0.43226131967455234
Ni 2.6860568277588817 4.430756954894329 10.269190939367697 0.6800624425870739 -0.41972847731486423 0.8854354782423718
Ni 3.5932089900175868 0.9314714778620132 10.388460274687263 -0.9983387887020226 1.6877147953805387 0.36314903825792294
Ni 7.628019693386516 5.6656686399773495 6.421062714170704 1.216741146737453 0.5628702749440821 -1.7903789446106844
Ni 6.677194672554861 4.4720488366634505 4.634662140763999 0.7023636771874355 -0.8953663642028387 0.5031031821877787
Ni 6.7442048096058045 6.736116900073733 12.128813497868016 -0.15801485808630852 -0.47678099935348206 0.19073857357157475
Ni 1.3971423652847441 3.3610961773984336 8.704583450713278 -0.8667846959104041 -2.536977166136463 0.5903839069833187
Ni 4.48301800606319 6.084933640978377 13.01529470508897 -1.0446425568645685 0.16506970805056087 -0.9134623024726011
Ni 7.200407376820315 3.3644313978240303 2.5437281489967867 -0.8781263461754683 2.0918916981140487 -0.7873872305176827
Ni 2.1214040097053917 5.376866344624238 8.269959759652378 0.3062620952628919 1.8286156194943797 -0.25534242559488923
Ni 9.09625784074356 8.69931102309048 2.2544894956379933 0.04497245094563222 0.4111024262087501 -1.0419884070711731
Ni 0.6231266437151426 8.971529861327433 7.847986744955789 1.48505607333261 -1.4362243965418877 -0.18248276132068572
Ni 3.5502124400309385 3.624560062018194 7.648010634037495 -0.46767826572126553 0.8862626021293576 0.4582723990263333
Ni 4.713667027495553 7.4122587253539685 8.899596568348262 -1.5555840041498434 1.4639707134172208 0.7647694931181668
Ni 0.4614675832363613 3.3210179452841824 4.112741834413465 -0.11901070890896921 -0.10787140446269809 0.10486912730126455
Ni 2.5456811058459974 3.3787635811529135 2.5207308777121806 -0.39780853731332133 1.5408335853135462 3.196315745912624
Ni 5.287000683156776 2.0944998982722467 5.8197789848928645 -0.6058460071746599 0.6834020484832682 -1.3117153835225086
Ni 8.085769432298456 0.8771092378250264 6.400371377230351 0.32372862747877146 -0.6683274135383329 -1.8481097236632493
Ni 5.397581769267666 8.927894060759211 2.113320732423911 1.257602660838505 1.3663184155793695 0.8539798308362518
Ni 8.868267731150492 1.6555663612613807 8.36705914364291 -0.3553444546118396 1.0505470952744616 1.8395263528696124
Ni 9.263713699612051 8.163118752668748 4.478049454079169 -2.021919125579653 -1.0171633776076932 3.538901872417531
Ni 7.099174172402278 8.979904970396152 3.962326172569417 -0.5782634695707008 -1.3406436365210848 -0.01802369027093025
Ni 6.695417946380274 1.890041621681998 12.245872323205509 -0.1449701090872084 -1.3009594305575853 -1.087542184441572
P 3.308964829246124 3.0177352345832724 5.745743576595449 -1.4002947725248143 0.224918047666761 -1.5526259499627841
P 4.559088825270337 1.911266593890447 12.3734000348789 -0.06283878970309177 0.951176272083607 -0.4546049774770751
P 5.253815239922091 0.7177709348923894 8.657803278443815 0.3575160083418617 -0.39575551143903454 0.1368647063712546
P 7.541378078330465 7.914357631425159 5.974886190135585 -0.152875222866898 0.5317262452411101 0.2311329182282213
P 3.8963342041983986 6.798698605559579 6.393266431273712 1.183778061547871 -1.7141799315506026 -1.5934213867125913
P 8.920871568863094 5.027085102489804 11.14395718484374 1.617970022586233 2.8968380205614177 -2.614776690914445
P 5.310180465114672 1.9589973039812059 3.685874383742313 1.8049388447027301 -1.0363201530418023 -1.8196139302164016
P 1.5934942033405566 9.191506177397887 5.940649226016719 0.0905524535682763 -0.3935672455384641 -1.1946080622838393
Ni 1.8580790926033646 8.271318861975809 3.5204613473844995 2.00101399999587 0.19331533315981544 -0.680624485738131
Ni 3.896158178675937 9.027237306936076 5.345357776103533 -0.846851961542219 -0.7591053528538539 -0.018161244290059043
Ni 0.8132518105263901 0.7509146878717547 0.3049392035122893 -0.2588962043844187 -0.29836083813794423 -0.6400139113056204
Ni 5.003330921458611 4.787199373378774 6.258999721440378 -0.6628653619824971 -0.32703429481323676 -0.7093318809751525
Ni 4.775720656414013 4.1203498427842975 11.53491913473311 0.8821737767719645 -0.7172794179570033 -0.154658797129882
Ni 7.721470716811495 1.749462080743105 3.899830626944566 0.2794028089782027 0.9721883555589 1.1449063241833382
Ni 6.69398194869703 3.0678005989719495 9.965606205928246 -0.08737457006092694 -0.31806834386920063 -0.36570085814549924
Ni 4.370269026675663 3.876165385124722 3.9745432702784007 -0.2201602212668015 0.30280576128317527 -0.2640165563301195
Ni 8.81655328555138 7.359664152142549 10.63887788874223 -0.0155222640053152 -2.2630598057528637 -0.53646478836736
Ni 3.5362415722481617 1.034122150960928 7.403654783106048 -0.6096355561240792 0.5077239687892416 0.02034231110177787
Ni 3.7239774242045165 7.66647663779388 1.285952601446184 -1.1708569826108286 -0.6773129048663948 -2.4177080613597846
Ni 0.6841991619584058 5.345014989559791 2.608569466320974 -0.8148736088634095 -1.0080573015413674 1.8036553500046164
Ni 1.3734900937665555 6.7443345126223555 6.614489749203292 -2.041477507327555 0.5974456989261065 -2.3877235991825523
Ni 0.9461464477346377 9.073254084308127 10.951113813385632 0.9745650833211926 1.4148189342829183 0.16002366098622117
Ni 3.017716705580908 0.45055770664418776 2.0273943368591265 1.0435701497359964 1.134379199399769 -0.3431774802320025
Ni 4.5496575630668445 4.717474737481442 1.3144585451337338 0.4734380510231781 -0.27624498007551135 1.249432723433203
Ni 8.881590083850513 6.269250891998496 8.119801650941195 0.47591505180876104 1.400778139919136 2.238798619212654
Ni 1.9828626590265854 2.179084794065847 11.937243995322463 0.3467256025945771 -0.05159047048278212 -1.2286672087510773
Ni 7.734802334012699 8.68410797665047 8.456850689100914 -1.574431732983966 -0.22419016836180097 0.05888674703387923
Ni 8.0257447291389 8.789000659035482 12.31555526884752 -0.9131781955732788 2.643356816544983 -0.4830835445327422
Ni 7.57950150069527 6.609221027380968 3.075017645392893 0.9986483495226413 0.33502168389408754 0.5161065364259821
Ni 4.8588602900231885 2.4072787226849237 1.4719958290365485 -0.1800630961355996 -1.1919585404761341 0.5355019102334584
Ni 9.00376106094035 7.202630857104046 -0.040046732810231925 0.5565376478578351 -0.1210033138589658 1.651122855189118
Ni 8.932961742905881 2.4437067413333837 10.671068324549948 0.8592765604588168 0.5807939493020384 0.7769542081098167
P 6.436623370356348 4.856961067280835 13.6204167172066 -1.3019693598793383 -0.34049479119351683 -0.727175851135109
P 7.921306007311819 3.582758632684051 6.27630117739816 0.2771438377406969 -2.4230323017861752 0.3696657563305182
P 4.652715874217777 6.880328125476053 11.012348460399584 4.191678225595142 -1.9497464600701453 0.5311246071013691
P 0.3603872430878313 5.788451074145212 4.865811445260203 -0.6514681758891491 0.07677314039599681 -0.817082186478954
P 1.434404189039603 7.0085951443437855 1.5824249773280492 -0.8213142222824307 1.3557514386968006 -0.7961557207389321
P 5.86732903721057 5.387779927016885 2.9892265115453682 -0.8960353652454053 0.14922862725324623 -0.7507927192231004
P 7.957150362385799 0.6028383125762152 10.301246113458152 -0.2734314218861162 -0.8555248067258685 0.20150943893483358
P 2.8126377074114517 4.5110245931370185 12.420723106917643 1.3231758187536242 -1.2955994517972524 -1.3101475248147567
