# total energy = -340855.15390729165 ev
CRYSTAL
PRIMVEC
9.43624194390337 0.00000000000000 0.00000000000000

0.00000000000000 9.43624194390337 0.00000000000000

0.00000000000000 0.00000000000000 13.81089391485627

PRIMCOORD
 96 1
Ni 6.718736369338748 3.1350875862170353 10.581782840089847 -0.8027333739564498 -0.31285723198190635 -0.5583613313301352
Ni 2.9499202106099065 6.595102727428509 2.4238950163636384 0.3357858157536217 -0.11522321684207898 -1.011008156639575
Ni 2.473286193930923 5.335185139715712 10.230226210338067 1.3564875455318768 0.03112526064989478 1.078557978665091
Ni 4.616228429993306 8.424167247809299 7.376495275577359 -0.049914368331939844 1.131600093992735 -1.1340354429071051
Ni 2.8225875618588185 2.809867507722427 5.618741379168473 0.8209884635118958 0.6677949380736306 0.14527452770150465
Ni 0.5646609432492661 4.96190628101588 2.4035655767260704 -0.763166410297105 -0.6027820235373553 0.2758924818320991
Ni 2.076416730378733 0.5249683351488825 0.9470665351543784 1.8074567260285772 -0.4424107494037284 1.9104952278790066
Ni 8.40287908599053 4.041967054193324 0.4756564220139014 -0.08543672960826576 2.193792743925925 0.894411713599053
Ni 4.1559662930818595 8.385846669287128 1.0116991307046748 0.1756019750404524 0.6564514880363533 0.11954858369031024
Ni 3.9865668777580474 1.7206043555115873 8.332816876827415 -0.20614025283862564 0.06313086702221385 -0.9468347072854597
Ni 2.474494032899364 2.2181207756058776 13.148316089632784 -0.07920000466993457 -1.9168414818120085 -0.9612861068240992
Ni 7.534461740165525 7.824343092591302 3.4552092631909517 1.1890200266731006 -0.5417939138897573 -1.1774413206965657
Ni 4.210337919145575 9.371622556131644 9.720520996528661 1.9958946764914338 0.4019950645908431 1.4708756680671702
Ni 8.789283757230214 2.902012410275738 12.380334328530402 -0.08265762420123184 -0.4032654466628345 -1.879500836380021
Ni 3.3873466420242706 8.959626796748122 12.269777430701925 1.4393027783568952 0.29854441490366 0.1350729045781545
Ni 8.824886698073394 9.1801140259402 1.1920719517816105 0.04495213923065807 -0.6414830396519792 1.5683145643426346
Ni 5.982973712719523 7.174025606747318 5.024375146289118 -0.13739101118836983 0.3110826565799868 0.4286594612559069
Ni 0.4506541553671783 6.755839672650536 9.839806418152513 0.6732274219431115 -2.8281283738998453 1.438830466706167
Ni 6.673565079167453 3.998918918458742 2.2378066635430733 -0.7749358921282073 -0.39237656766447265 -0.9482727252835669
Ni 7.950175378873779 0.3666999108186064 4.560965079066173 -0.3406835101655552 0.7683541251456316 0.9131229168553112
Ni 1.735447564084691 0.7961725339009494 9.001457657272322 0.540249966441405 1.1849204026824303 0.5476863681147922
Ni 1.238138741313101 1.8667056894832113 6.907269652446211 0.03613865470408615 1.5887131826036447 1.2897964719622304
Ni 0.6886154173854963 3.852921383148468 10.55387043642854 -0.6430408710574023 -1.0976502194098514 -1.1828056703322727
Ni 8.673718102179484 0.7202777835941371 7.942797181300156 -1.9476954910783877 1.140731623980358 1.5843909010792068
P 4.035474919737956 2.4156024469459374 3.851720149549386 0.3305410224149146 0.17594701708469698 0.9342399013395845
P 9.234759303020203 2.768706620376033 8.467306915090708 0.39490447629264896 0.3438058578446208 0.0005497018558829242
P 1.3245841537340821 3.9591168499518434 13.749628340204866 -1.9679264734132815 0.7173596363756356 -0.9533316278637131
P 5.866171909974527 5.357558469357689 8.026767467460028 0.7656662939008233 0.5451872558420223 0.26144596738946585
P 0.920451614759948 1.6689126221591002 2.3429348913829275 0.8045897104388982 -0.14356602965083015 1.7055464242453207
P 8.989048999119984 7.338084109132557 5.372506420216336 -0.04021462454567268 1.0725462252533722 -1.733079596668583
P 3.4164291396862576 3.3263319016341315 9.513192606723226 -0.25923816110486964 0.911594653136243 1.1016979071166642
P 7.737256015718336 4.590882684139933 11.58988110086986 0.9475479313024002 1.4387448489708963 0.9284855153543107
Ni 5.248711418568908 4.899504413060422 10.813902124722528 -1.7493724202913357 0.18430798745488255 -2.407511323332441
Ni 6.129924308465832 6.195477881229564 2.266256932995017 -3.6059431302377445 1.2789078500741846 1.7300058428392657
Ni 6.788300344927381 8.133049747689258 -0.1488963488345313 -1.0386223188124177 -1.4138192893738102 1.2597731861272625
Ni 6.966985022321082 8.55914325253255 11.136607444739875 0.43177512406675317 -1.2915543351936014 1.1528176086106146
Ni 3.8508076649536966 6.3412206380074325 8.263845497232673 0.6418273103652753 -1.5284503811578452 0.0019764070000804672
Ni 6.296719321013944 2.5942965605815793 4.48972805778141 -1.1580444042271927 -0.11781257483581 -2.953216399351146
Ni 1.1825781487648275 1.3896092969491218 4.559777056205808 -1.1927447838228553 1.5284935756909548 0.21797272669717946
Ni 7.690093678497503 5.999326720003177 6.407149773200414 -1.3185295782308646 -1.550126066359066 -1.1559808368299447
Ni 7.51849561880145 5.643051969280925 9.699348900485766 -1.090971007617463 -0.4095636209667205 0.6146103836308512
Ni 6.465712977934296 1.5103931937931951 12.184730469336591 0.9555615456354963 -0.8159529579705174 3.3299416336316074
Ni 0.4823712517790766 8.902452606827946 3.447475319296155 0.4862169479554014 -0.7057099679518491 -0.4498116698534898
Ni 4.3509379240656285 2.0820029856077715 11.383491617137548 -0.6038708857261599 0.37317248393219604 -0.4477571013173063
Ni 8.084396484241756 5.092381198333301 4.027795706046416 0.5567322803671444 0.08691331415379225 0.31916903313254713
Ni 3.400359219660831 4.247092081505548 12.978566589732964 0.8982100042992207 0.8144720025496166 -0.1894702483821124
Ni 2.8994174437419784 0.732742115573929 3.1900131196826838 -0.014116641907040204 -1.4207383850911468 0.5369856938678365
Ni 1.357818597850084 6.6240248089775005 4.037835867471579 -1.4930259789119642 1.0223068694818458 1.5455641580199964
Ni 6.057727621375675 7.6099328032091895 9.033415377853714 -1.3171794919608735 -0.929326008977735 0.011303855048593435
Ni 4.570915596192897 1.5068923480331051 1.8545546407358586 1.4360760438894815 0.7475279324288997 1.1409733076775188
Ni 8.268525873235381 2.457103039002206 2.5566450116130217 2.8085468522234924 0.12641728578568553 4.191451968516948
Ni 2.5270727729943 3.7502550708310056 1.6289812771376107 0.223180496150364 -0.7566787456902324 0.3198190080117202
Ni 5.165965012988776 2.755722351465295 6.536696164310847 -0.5663057829881925 -0.6785892004756571 -0.026682137276876627
Ni 0.5891489347102079 6.529813369439124 7.12220931500121 0.3946651065883332 -2.0256125152708404 -1.6406641217496387
Ni 3.299381994650798 6.526086053872452 12.705760117099324 -1.5607881740586023 0.8093269680135675 0.8763718253782069
Ni 8.774402803689346 7.63684496522476 12.23243350322064 0.9456419725289391 -0.4506246526730884 0.5719976911666471
P 1.08145938012568 1.4259293921798122 11.12912261763232 1.224585068261904 1.2807888691469813 1.2723014005012603
P 6.025682143744232 4.931464964514396 4.55603464265203 -0.49983453873883593 0.05993241468957421 0.12473784120073356
P 4.668052270732967 7.924338948439477 3.2836225269852286 -0.527263067263434 0.6230765121203333 -0.17539474412565276
P 3.8916665925579808 6.9098768860944935 10.691703735211508 0.4136275066234489 1.0597202771332974 -0.6118443908499398
P 1.2048571159873944 8.03540351608438 1.4957613570395685 1.2297990083626755 0.8463626806106263 1.4698032609385978
P 6.554045638743466 0.9497200063881716 6.766868752231112 -0.2620792300980906 -0.8628611924862817 -0.4726854891278699
P 8.554585547675075 2.3685910895961584 4.912051783969294 2.7846314790584747 -0.0944013950007213 -1.7403946422727576
P 8.104099357414444 0.20397569304381688 13.162638417650747 0.5980918171505377 1.2968456654995277 -2.817718234310115
Ni 3.8970829954320827 6.275176380662771 4.647062294159532 -1.304873678010327 -0.4222643563628405 -2.1981384224891305
Ni 0.367876610188642 9.368555777500838 6.320003248003222 0.8028405889582754 -2.884044468341175 -3.5038322824079073
Ni 7.41355517217622 8.12304733123186 6.9298920988754285 -0.0837634556709009 2.3173018549258804 0.5833938488187308
Ni 7.22617027971297 1.81256996946802 0.8958805843699259 -3.308254121355844 -0.7598481445571494 -3.325724767336782
Ni 7.415961413871161 3.412758441571231 6.115698230115665 0.007899714463050912 2.7612357258423543 3.393857201338646
Ni 6.738609094866374 2.4172537892856023 8.426979247907699 0.3995977680032602 -0.476190931177967 -0.47329201236361723
Ni 4.325280782228204 4.42998532280491 2.9016689310690875 1.0510597732448221 -0.126722218620614 0.6989826765303446
Ni 0.32971739140366174 9.032785980516254 10.47097776909832 -0.45943916564092485 -1.0249551057379702 0.42158044292193847
Ni 4.445441887104175 5.043190069095164 6.267507546837367 1.3902039639477155 -1.5746744451223913 2.0264640646378584
Ni 1.2569829164691648 9.425059994243204 12.881752634667274 -2.6960124950674857 -0.707265228254111 -2.2709194110065987
Ni 0.9839546921499137 5.602702598741452 12.14793761838466 -0.2765231734375625 -0.35304845948881136 0.31951921738311423
Ni 5.492345749242121 0.35297584053969855 4.520305256166842 -0.8162887440433813 -0.8024922044799212 -0.2976095617942165
Ni 0.6270986689240992 8.25530569827612 8.2573543064015 -1.102028036762573 2.420491794752509 -0.034932293100810814
Ni 2.2153182117494175 4.49270802298636 4.083618626120648 0.23690710170783716 -0.6401545506485427 -0.14120447139718906
Ni 0.4286044888237762 4.118532721302138 6.053245406453727 0.05575231516995559 -0.6262281703754377 -1.1589358056932106
Ni 2.665719475832579 8.019031636316843 9.104721283704647 -0.9108721731479216 -1.0745061771932205 0.7612563377585858
Ni 1.652163292713926 4.671619170186643 8.254978260680769 -0.03890747569847493 -1.141217305367525 -0.5235866468531112
Ni 8.557265440386303 1.699202958789528 10.254726468913532 -0.7819449764561888 -0.22436783159024584 -0.3380805253250693
Ni 8.556501104789087 4.701720781978252 7.931582207753345 0.42189334617666696 -1.268859207588931 1.3423313086361528
Ni 3.3036849209758676 8.343543996665879 5.127612351244007 -0.6615353303171638 1.8156428613837954 0.21886592793541018
Ni 5.459734097094221 6.653692353639826 12.23214286696886 1.4421834423388 0.9080069357849846 0.3844989646886088
Ni 0.0896820434067244 1.9277770473249958 0.42040816907387296 1.2327424072617155 -0.08471939182626699 0.1974640652208664
Ni 5.930413845108469 3.973157977959967 12.75038316161385 0.45450033357841074 -0.3869636241790175 1.7206866223208688
Ni 1.2702314001542492 6.24034721165875 0.6483471985267151 0.136005700805069 -1.3216179873482012 -1.5428660423625429
P 4.831431363698457 4.720697064521489 0.800950103195649 0.13985155691372045 -0.00581454979924805 -0.1478749414388292
P 2.6216427897264327 9.489462345490143 6.994251043409438 0.14619138308881918 -0.10127626774368363 0.342126670369985
P 7.61914257534355 6.192552646227871 1.0178355188388704 2.507244929179353 -0.12640854403493712 -1.9399757538366265
P 4.703759010237496 1.0526316609960984 13.730501077790576 -0.5615888371284973 -0.8669474467405135 -3.4765400223508576
P 8.078810229012717 7.728074552309798 9.441112929033139 0.904868904376635 1.0679586058826898 -0.39408712259767614
P 6.241838137885418 0.7546785472140397 10.297954836869188 -1.7770266916734945 2.6347158530405337 -3.360778930727438
P 7.039068474507947 0.3177796017241744 2.4072806251782195 -0.3860423979163287 0.0706873392132331 1.668166440934966
P 2.27296421376664 5.390141812779764 6.241308764712532 0.3268998261179015 -0.28725084426771175 -0.7961984010514094
