# total energy = -340895.10219721 ev
CRYSTAL
PRIMVEC
9.02053095313997 0.00000000000000 0.00000000000000
0.00000000000000 9.02053095313997 0.00000000000000
0.00000000000000 0.00000000000000 13.20245885916928
PRIMCOORD
 96 1
Ni 6.536664579928786 1.9795555081127838 11.27689313536904 -0.6220257022583159 0.8529778719342986 0.8463775930089618
Ni 4.665138949989429 0.1681030058190321 5.756099999258859 -0.3718524795691919 0.15329842644724567 0.987856658223776
Ni 2.673865772225069 1.4494640092098547 4.890930055081566 0.3420811618440302 -0.0018396243119000576 -0.4016520794291276
Ni 3.3523720661837264 4.4086221125129965 5.2700386137788024 0.8134060231789475 -0.41976910074481255 -1.716526063185276
Ni 4.868497798815561 4.558038186499691 2.653363909573719 0.3107309296675229 -0.5415648285980866 -0.49471187280029
Ni 6.978354875917587 5.928969453610526 2.574717508785238 0.8285953293248762 0.8207226114450189 -0.16460176727520684
Ni 5.071369538972574 4.490600697419485 11.435111443417327 0.5106372857812947 0.9470262544709755 -0.0072875348003487396
Ni 5.506095985099161 7.848673739138082 12.603159243680965 -0.38999572613712186 0.4537657694052314 -0.742099819434793
Ni 1.7370836372626053 6.4959188418101 0.5283342994817378 1.0907442363186375 0.10676865831682257 -0.3072234307348967
Ni 2.8974576718814444 1.5994934792984028 0.47610271935585285 -0.0034776741359553013 0.5479918151703531 -0.6478640034776584
Ni 0.6446702825167296 9.087733864881404 4.636399538511428 -0.6754681383481722 -0.9133149782614592 0.34193743717731434
Ni 8.543840953686779 2.2553401996121325 1.3790235853898416 0.62628113510056 1.3807685295664285 0.2743138244910695
Ni 6.891622471221736 0.5546453840388732 4.579774959832566 0.7258311641817563 1.1484526467736995 0.5409698753265652
Ni 1.0534627022782022 7.407055607396557 2.678330032972232 -0.23407991667168715 0.28705132666239597 0.13154098016549604
Ni 7.800702555760803 3.785546980993861 3.753644069325861 -0.6557413493432062 0.1526476802371242 -0.3172579321527633
Ni 7.694269311558375 3.859343944365338 12.538177143114355 0.1093904122103858 0.3127582445101969 0.4546743972624299
Ni 8.013803577969307 8.898149366754238 6.859007839664969 -0.6508256572091436 -0.35167600462131693 -0.07989240275126885
Ni 6.8478458347174245 0.7314658309289475 0.27842500089659034 -0.23599178898241938 -0.11948302055969744 0.19099645521865172
Ni 1.8417939600612985 6.688886039028367 9.001185479016108 -1.259265650363225 -0.5779600793976691 1.276617254267795
Ni 0.07177005007608904 4.901900824773828 1.5801886410987573 -0.20979250487923223 -0.4520523862585505 -0.34969779784902355
Ni 6.399390140546418 1.911955649476205 6.718665517720245 0.029529891138316885 -0.24686986934750388 0.680120549518519
Ni 3.377440121581518 4.1912092765297 0.525432394688118 -0.14703856158046288 0.512797012436775 0.03937695913572573
Ni 6.011859112138884 5.456825845270899 4.606839258720653 -0.5651582996473106 0.6073012515639477 1.9002411542511661
Ni 5.344682605002691 2.9465564216224234 9.234432954958125 -0.25476135628043867 -0.5641211166320478 0.07887784544382544
P 0.13371313377925456 5.681779845094624 12.578986024949407 0.570173750584031 -1.44670215614476 -0.9129388258689631
P 3.9529499936143075 6.073261866040565 12.763040937628983 -0.19557867527269543 0.4880840830711271 -0.8443893589343393
P 2.4472519947139757 8.622896886578555 1.312151683597668 0.4419147836039164 -1.050449650464649 0.5440140614695276
P 6.3143265340688455 7.630376891125644 5.943627816338634 -0.4107589268264023 0.54716983348969 -0.45313147825534217
P 4.824603895409424 1.0624020484096206 12.475914732616987 -0.37130200638236055 0.2659777938215484 0.6402036587189233
P 3.8529574084813376 6.179938664577552 8.455355859835192 0.6978560191250691 -0.3558885000407677 -0.9659488024070914
P 4.706299632529956 1.095308945167859 3.690417364074259 0.4800540136777991 -0.3255129730727039 0.6309299467264812
P 0.02535941854617211 5.774276369041712 3.6008777701593395 0.5228040030508156 -0.8939653700902539 0.6616217193833831
Ni 1.488568010702992 1.0332927951643256 2.6115781042411568 0.05082196774787376 0.8649903230141427 -0.6397927964337498
Ni 1.9653030692756082 6.469732240579518 5.008960093821382 -0.13852872433723884 0.2671638437098496 -1.3676538465613415
Ni 5.943582713684086 5.547482180912427 8.973156885373784 -0.902795052566742 0.43775525290958806 2.651903934784046
Ni 8.627749932207923 2.2122852055805886 9.973454382576959 0.4724746586686444 1.456565164981769 -0.1487167206138342
Ni 2.2662821036054837 5.0986025217886715 7.094433773821655 -0.901495617029028 0.8713226929900736 0.90684633981798
Ni 0.47469190832159064 -0.028979357600196532 8.91099911303497 -0.15060365322390193 -0.5238424716176591 0.8016401408922711
Ni 1.432180671987052 1.2636681340647238 11.361125048896747 0.3519593401896906 0.013347624951499593 0.40893781445726346
Ni 4.2176033499712045 6.8331062872111294 1.6811085368092344 -0.2220939479544046 0.07902696942718003 -0.09100445350403036
Ni 5.812297906825697 7.784005553047125 8.197973953444528 -1.1663845486617719 0.8336688871930417 -0.6609678878494681
Ni 5.200309007794466 2.9763873173404867 4.801272292211731 -0.1401084101195329 -0.5905736543966216 -0.4830262089322456
Ni 0.6752318412384709 7.208712173756166 6.824219260158987 -0.2278694169856011 0.2737515242296963 0.7553769961596734
Ni 5.12143348552088 4.371845407994537 7.181794007468813 -0.7131152592769848 -0.2600362315261328 -1.336129550700815
Ni 8.041740162196355 7.017431815817995 9.163390861726441 0.8777936454263979 0.6880338908283247 0.15803568402191492
Ni 4.7057493801444705 0.5524064882671094 10.32922051343941 -0.8592007129155589 -1.066819092961608 0.06566391785671272
Ni 8.109917334811149 7.307144207041774 4.772926175881389 -0.24291371291323327 -0.42399573723165046 -0.21350414940286458
Ni 7.249051987983919 6.0104158271933485 7.029569842209959 -0.42403044712432775 -0.059077779998762764 -1.216829335575885
Ni 2.4100242636500364 5.030416328642969 2.869818765174415 -0.5320507184600644 1.4466250230499214 -0.6325371433126009
Ni 2.4457545865829813 5.080976404391303 11.415400681326748 -0.31194757568344345 0.42459017628253976 -0.2238880637403499
Ni 1.164568581491805 3.304464026522815 3.8596064418148073 -0.9449097223486049 -0.07133500009956101 -0.04256127040097831
Ni 3.3592457107368454 2.6597306002897176 2.94925807062985 1.1567328845046208 0.39791883763894054 -0.7179468763376733
Ni 1.1283962525442897 3.157239941547154 8.034594097609764 -0.8670459199915906 1.848357063787365 1.0773935260433447
Ni 3.489763772467918 2.419604067476037 6.959900673782717 0.6616271187000218 0.5493110482024088 0.5455896334867636
Ni 4.1926164793515985 6.670736730838242 6.245027207408897 0.4581579849356561 0.10727079476422172 -0.06176483991262267
Ni 0.8316433369455641 7.4412073374203205 11.339446909014784 -0.9716301690625847 -0.7220529280862469 0.13423446783725915
P 0.04634658576045875 5.397335443922055 8.052378074298051 1.6928516023864715 0.2929988024950825 0.1925198338417136
P 8.47970497891949 1.7875535077018447 7.824885697076362 -1.850404176124381 -1.2071684154473532 1.4214176705463586
P 1.716733319530537 3.222548585332693 10.297588217698697 0.1658374394545208 0.24762603078723802 0.3520755540525808
P 3.91567715989582 6.209174205255581 3.9207999193993848 0.8049123838856395 -0.1609780544796905 -0.02722129760979828
P 6.93558853887515 3.9985126952387215 10.349288488554006 -0.008502895264688583 0.16002726053064698 0.441142424214266
P 6.358076108980429 7.665917782909487 10.361394943087786 -0.6803689180838992 1.4337628223752727 0.14748927596463632
P 2.293614312261586 8.496717700215003 5.824568535022033 1.4255730874756285 -0.6519152907288966 0.7027894518709444
P 6.855558388645136 3.980643023506794 1.5586034126851638 0.2706507738171855 0.025382701739162735 0.24166981320380315
Ni 5.364744265745652 2.977514883704187 0.3785673268426595 -0.17721405672257867 -0.6919108572852276 -0.5300689121433452
Ni 1.2857954963859846 1.0969687228552263 6.960349896222016 1.3802530233825907 -1.0821359258243364 -0.8426754615670262
Ni 6.773309187811359 0.8567655155288135 9.16663915490699 0.9640281883456107 -0.6969504765916642 -1.0552972083649375
Ni 2.4825042295087116 1.4729354306366467 9.158915776342187 1.096901514169285 -0.2110081224538882 -0.11717005615580466
Ni 6.376730566901491 2.034544664537735 2.5395058663795953 0.008000501706973319 -0.01933289600065703 0.35699356017948847
Ni 3.954420340152573 7.039974122561097 10.58574456734057 0.7960708743346097 -0.4869427703778324 -0.7519728555741307
Ni 8.037220876210641 7.3313011888176955 0.12235357920478919 0.1286268918424946 0.998691801166067 1.0457941539705087
Ni 7.405323665461913 3.8572782427870385 8.149309993293393 1.4525136206202145 -1.0865867625068384 -0.10144673188327691
Ni 2.92243552197014 8.337703781340489 12.368736392561427 0.8362726433644759 0.2568398360760222 0.5091362757557361
Ni 0.018867342450529498 4.797785857015168 10.285771322207117 0.5769959157121869 -0.09765821137512214 0.07114550979657426
Ni 8.612595440279787 2.2332669604763296 5.689018821149583 -0.34336979874846674 1.1453719509658467 -0.7154009699873679
Ni 3.6637968753069243 2.7332208656102686 11.269539598571528 -0.6469378921189632 -0.9821066431138764 0.4302234633089171
Ni 1.215020410869225 3.3874168287675412 12.714073887639284 -0.8601851883160153 0.2946412231945119 0.13936330442339223
Ni 3.164483427867567 8.345605766417302 7.917554513163824 0.5733027831313159 0.7792082942513161 -0.1584948830465206
Ni 5.596824484987965 7.891782856355083 3.7925252637055307 -0.3843781228400283 -1.2675101497602044 -1.0348456253788048
Ni 3.2079533663209525 8.379297449364678 3.4974366360596276 -0.4504855559920629 -0.07923934254830226 0.5205884834567357
Ni 3.3522818608746303 4.132611907740907 9.028118980206006 -0.3292253889272846 -0.0202230119150942 0.757325892355928
Ni 7.247256902332907 6.096976841801916 11.488752932524381 -0.18379068149883185 -0.8092256665490128 -1.1925902605228622
Ni 0.6339656184863016 0.11244091778822443 0.16779269955574166 -0.04857045270953571 -0.24494128486622332 0.5097646533683543
Ni 4.707120500842731 0.3005469508993053 1.6249061189769414 -0.030299422314489757 -0.1285631284840947 -0.5396100188645611
Ni 6.014105224335377 5.676123972214302 0.3014011951764448 -0.19791246561219464 -0.7750582766386845 0.7489009015170265
Ni 8.155867919264674 9.199317832233215 11.155800626385412 -0.49575651201472043 -2.1313481043374587 -0.2761601336711889
Ni 0.0672787277361968 4.899826102664618 5.754792924330057 -0.13454377154756184 -0.4978812716672071 -0.44546496284901993
Ni 8.132053717663318 8.942909241127698 2.2859793348996966 0.1700818165531716 -0.5115387145496416 0.4064232755655259
P 8.619072181472884 1.6110487793936066 3.566921785656314 -1.4366123760089258 0.4551513368988484 -0.22303779992491266
P 1.6981780874494798 3.3368477324882964 1.707962657327128 0.31414329778318156 -1.2044327616837451 -1.404037784507014
P 4.883336572161861 1.0615811800968464 8.070807920999465 -1.0548639774822608 -0.590336598685151 -0.09675395439329788
P 8.511899253735868 1.789141121141935 12.46384706636612 0.407113359654015 0.25527017759605714 -0.46390285783923324
P 6.440758295297866 7.816759100779899 1.5437366756930442 -1.0866996339356187 -0.17800235695182895 -0.1997981126706817
P 1.6253463208853303 3.169480801991488 5.909724150914885 1.2560070342166112 0.11437141036474498 0.7571184043308122
P 6.87463681151895 3.8763747067226717 5.883570023595576 0.38519753341753016 0.6105812078668001 -0.22740096198961482
P 2.2870203041666652 8.54246983298852 10.22299383939481 0.5350265132589367 0.5767130943644455 -0.8332778224022102
