# total energy = -340859.05413439724 ev
CRYSTAL
PRIMVEC
9.40873856720149 0.00000000000000 0.00000000000000

0.00000000000000 9.40873856720149 0.00000000000000

0.00000000000000 0.00000000000000 13.77063994296858

PRIMCOORD
 96 1
Ni 1.41406753308346 2.596868274212594 2.6273968079739536 -0.6202606399380931 -1.378426511696813 -1.2359634853021748
Ni 1.5616718224316886 7.029014485992426 11.894982575320949 0.07223102955126916 3.1297812525255 -2.3221517268190133
Ni 2.164122756346555 4.048354360249771 10.636772676984512 -1.1873256696898131 0.7521518043541563 -0.5340919172598092
Ni 1.5357789741217496 1.0233132150747093 5.503959591995557 2.323554006483179 -1.9094595875256404 0.47599167068296727
Ni 0.9178205574363737 5.116462579250214 3.805639956181091 0.4547461310406297 0.854795898979644 -0.8436270268470181
Ni 2.569366531621769 3.459630775784105 7.663319644921148 0.670201233522278 0.4321528191211461 0.8622248444538635
Ni 2.5708248860869 9.741996001844903 11.661928123054528 -0.7833526554369928 -0.9589798272884258 0.2027440826728831
Ni 5.278198793802487 4.053049320753645 0.6417032499992542 1.0870063665427603 -3.16142819000682 -0.14493925584927295
Ni 4.680678038853611 5.990412070880053 0.970581940237117 -1.1173924350337854 3.989341919883639 1.0399199545779187
Ni 2.369741327191544 4.444584564056627 1.7508956664670594 2.2047443578414225 1.5789010816092293 1.0356532088817647
Ni 5.068844953779066 2.1090910449494498 7.968325543001741 -0.24253447519694357 1.047214945577435 -0.008396708704127474
Ni 7.041706874208309 5.808437659847156 3.8108316980769574 -0.31406847868118815 -0.22866105964896105 -1.578350608422398
Ni 0.3733970772521462 3.1679034303269935 12.29799365695374 -1.6267343990424243 -0.8686736854030008 -1.6528974305910369
Ni 1.5597994834732303 3.1118932101274774 4.783301031254108 0.4409881580245889 1.2085748088765766 1.7138845117973707
Ni 2.502451583518467 0.2768577751558666 1.6713560730649655 -0.5151637128967387 -0.29484614011646637 0.17046979602020965
Ni 6.531574482305478 1.736599088339533 0.13922110335834642 -1.2042237309967325 1.124356267946128 0.8349906913282588
Ni 8.727320008699165 6.770311812616669 12.746737793739191 0.5777865299342824 -2.6548514474481437 0.14240029147750313
Ni 1.5289764561972998 8.930614621138428 9.451409936365987 -0.04454384804864587 -0.2804983560352266 0.46932505729606916
Ni 8.411590971367541 4.176322612380397 5.340061249339496 0.3008594361900818 -0.7505710901305978 0.5782711828801848
Ni 4.32229918997077 2.7413112274299585 5.327447894526886 -0.9448572718441146 -0.3754805632400824 0.9431374609395305
Ni 3.943136437775189 3.8744432380982756 12.130185042583433 0.837998367806331 -0.5691514799671037 1.0410900636266198
Ni 0.341405484656414 4.158935263660641 0.7642454826457441 -0.5281102457550776 0.14254401614421902 -0.5206388770786969
Ni 8.352852217007458 1.9531223870883083 8.26986149832917 -1.7335138559925243 -0.42070266830267544 -1.4978797074598398
Ni 2.7267747264710716 6.015326410387582 8.970951764770104 -2.229361899279786 1.0218242734184724 0.07848960886647127
P 6.429489669746307 0.9885761525891368 9.291257212500692 1.2173314720232842 1.5585155759743419 0.0007931853252566984
P 3.8412209825087427 1.681435654603642 12.723548075995911 0.767999055799058 1.1607985699335621 0.7847387371512421
P 0.7652343410604878 2.6605277988001848 7.08186807443032 -0.9741267102321932 -0.665838328567892 -0.9861409610842501
P 3.28655703135775 8.074014843274407 10.347135012344854 -0.06396956087342531 -1.8277697265543167 0.29960370940610986
P 0.6908610859603512 1.467819656046644 0.7073423731640287 0.6710679523979476 0.4851702518584419 -0.15223707506226683
P 7.804793200272735 3.3178693130348855 1.0000802171343994 -1.6510521498521822 0.8011410897686654 -0.4882771729185397
P 5.806254832518702 1.2759378433893407 5.9787847518606405 -0.11096829822046694 0.14944588547037488 -0.05988047840571623
P 8.398465781181361 7.5099233361617275 3.3655443318107916 0.6293782859686451 -0.31286006019538376 -0.6209512382472145
Ni 7.904412923348912 1.5353932158438761 2.3789327238172633 -0.6604852917860947 0.8657755379195992 -0.2923226023636643
Ni 6.308201621939829 7.938002119739348 1.601180997076709 0.05543504103985292 -0.014397920592884882 0.7785387789881172
Ni 2.0940935158048117 7.121737603759305 2.286559611122016 -0.34391332995676255 -0.2790801355314613 0.9096560413526334
Ni 5.616104227742586 0.31052882757112066 11.199097223009758 0.3723008799605201 0.6165536234001511 2.45560535062619
Ni 0.8794724211203672 5.310301409512339 6.291488879769428 1.8809370546059156 -0.5951219358889364 0.5235786764333112
Ni 7.129433951839803 5.627874559586966 0.5972808321175148 -0.8358386411508509 -0.5117477452366541 -0.7483105762311951
Ni 4.077267413613304 -0.0910248404703874 5.925712880689902 -0.9143318495617478 2.181442192780372 -0.07589947954179187
Ni 8.493776302031536 3.773760327573327 2.952562810005747 0.291814038158362 0.6581530441084923 0.48880604883881623
Ni 0.3997791799632906 8.971768443270577 13.21182679102029 0.2633462697359723 0.7397434033874744 -0.04708975439895116
Ni 4.269986603995747 0.2671423117965486 9.507042866152267 -1.3902780117187605 -0.2935968410903976 -1.250668395612517
Ni 8.99920432469201 8.106474991046678 11.030034423799439 -0.5996753595875737 1.2477617634886833 -2.0156374063359994
Ni 8.515576349100625 6.503018961004364 5.435202412896946 -0.8253845356970625 0.810165918975095 0.5496519764815954
Ni 7.410614101455548 9.257144890250506 6.5360963220212325 -0.8663836038172433 -0.9869050929437841 -0.4901617915357622
Ni 8.792710741167943 1.3459764926695683 5.891960913123679 0.01724670289558965 2.380688803822958 -0.8475325325490114
Ni 5.991512893282765 5.213240863304006 10.73064742434192 0.8447457138324934 -0.5958606138271738 -0.8320022981238961
Ni 7.948972708812527 2.267421296170255 10.508072424999774 0.19387120566328547 0.08631810377195458 0.7093768752804751
Ni 4.02367523920436 1.3532494475182542 3.5238651742931117 -1.381809312126117 -0.5640786934298866 0.9349055599480414
Ni 5.271725581725002 4.777625680200128 5.226316187176216 0.6912423704632934 0.1163223634435287 -0.4552366975238031
Ni 3.8991411766206556 5.34308145439309 7.251151038121183 0.9371475619046827 -1.904207852208398 -1.5701876129956314
Ni 2.8529553182896015 1.100182608494841 7.9132430244168175 -1.0154903607806447 -0.041363393438135214 -0.6854663872114647
Ni 7.162486850136611 9.253259081256319 3.8177442982416787 -1.0024157869848735 -0.18780237376138625 0.5502664701371426
Ni 2.001276310653086 8.28329341338995 7.124640199581839 -0.16605804010575917 -0.6477341627680135 -0.4214524019845064
Ni 9.102596951900557 6.310083369636772 1.3857528754875548 0.8399004699250502 1.4820622808116088 1.9724405592335512
Ni 4.0842298800919945 2.1595218832275287 1.4328897144221349 -0.8599005671960609 1.1796360143550395 -1.6461382574903327
P 0.5497384765542437 0.9627962091410144 11.050442918446636 -1.2233352550152028 -1.3075661372408254 1.2468207397316526
P 2.338118557144413 8.899923316201285 3.7931639689503576 0.4914712543758052 0.9432174222478465 0.1983986612199938
P 3.2029415724440766 7.794904616125298 0.6712184626258091 0.287207392624286 -0.0893329793388784 0.20052264954153207
P 5.342215850452496 5.5215275884942185 12.696791505493072 -0.25376094004038235 0.5653979264619423 1.0586157312152091
P 7.52195711268368 3.887145035052643 11.920526359433106 -0.6739784411765232 -1.2071182789357082 0.7146337528040402
P 6.792676383994839 8.231789978924613 10.068403016482831 1.0452285112750257 -0.9034558260791924 -0.9132054492667886
P 6.898016620069722 4.939757061768758 6.749982351372742 0.2161349021574923 0.29917973449481383 0.26129092986884034
P 7.660942997579909 8.172524335209385 13.738774480343007 0.17963115080450354 1.4867699706999233 1.2782421914657276
Ni 1.2039327677658072 7.349965373183068 4.805939396922184 -0.39383078361249596 0.4974848075597368 0.054809491640712055
Ni 4.694508884426145 0.05057855547228916 0.16880876327123362 0.5880326331423228 0.6781104610670257 0.5792291759180799
Ni 3.7737509188348426 6.01686003476059 10.98997577882691 0.56529713921802 0.009258285373474376 -0.6027442283208845
Ni 8.579433457196394 4.993640907070729 10.540075308081688 0.9572155362991515 0.6427001998885319 -0.05373708451213972
Ni 3.9939624430696266 7.820957412989478 12.511659521824706 0.4902816049430782 0.22260559748350045 -1.4044386194898588
Ni 3.6158816957997884 2.1609802376926597 10.556572590140789 -0.05657583951251547 0.16717029933333144 -0.7961176684121449
Ni 3.6070468903626396 7.3659508198686 5.054829696932232 -1.882287397986223 -2.437365687689712 0.7824555975440202
Ni 0.8813466418265226 2.1206355670701966 9.384718916238622 1.9580351824414988 0.7378464434750777 -0.2186543261452363
Ni 6.383104589016655 7.546956130837572 12.071067116062414 0.0073908931474324325 -0.8955550831748771 0.5629430371635467
Ni -0.0033909093498917377 0.20374717276037896 3.8638489985644853 1.4727381751972055 0.041240237596709625 2.2528658959389976
Ni 5.501816281368739 9.08122029806328 7.678384916982876 0.463164437011312 -0.46398744713323964 0.5548175798429348
Ni -0.2614359119055682 4.189410167612637 8.319215036050748 0.9314114307518538 0.9449248918572565 -0.5706404058078044
Ni 2.1507247127443194 2.969360230822511 13.699969079336643 1.7356417009688045 -0.9830170707432877 0.051486083694433915
Ni 6.84119724836052 2.556024940450441 4.550315262778626 -0.6550468943793428 -0.15025218342175414 -0.5596615381987975
Ni 6.865330662573817 3.939165950134639 8.783795020579825 -0.9953951326926662 0.008991147755016773 -0.39913599787549325
Ni 7.8139008591259405 6.345168555446279 8.491044945249424 -1.4649089089607739 0.2976159895521197 -1.075718966554399
Ni 4.949034077914689 8.610181214564447 3.787201651372593 0.5381406334078861 0.06526205443260373 -1.3924696200534405
Ni 9.279537687844131 9.24641892837793 1.796669179195204 -0.03956927765218992 -2.384423588275042 -2.252089422784289
Ni 8.673840739152038 9.056729351787565 8.779554502144764 -1.1495605351258977 -0.9660850708746395 -0.5268465485513055
Ni 6.066321772974744 6.944768641600277 5.705052559629397 -0.3453156096209279 1.0083748327817859 0.6573493172602743
Ni 4.470035201657784 6.223532384315868 3.349143959758083 0.2068133676462503 -1.5246618606496902 -0.7677923391048905
Ni 5.325449478472732 6.964197686571215 8.985411114073417 -0.08401645222197143 -0.23199243801503916 0.9345574325800033
Ni 7.675714717000913 0.6121005361047915 12.390780754142314 1.107195182785809 -1.0730751011736486 -0.7062169894952547
Ni 2.9134817329617815 5.8547192444534755 13.137561736412728 0.6214338343105877 -1.9368004414324382 2.677135198547009
P 0.27029423918892853 6.552866457496391 9.299134208360098 2.630397685281154 0.6429395695928475 0.8149602550399448
P 4.293790712362079 7.330084708764861 7.158378054040335 -0.6654292660549314 2.074946328508962 -0.42188846108066047
P 5.747835975267098 1.1166573095815793 2.208755929970352 1.0770916785322096 -2.0269659439749415 0.24176751512393205
P 4.692655362944655 3.790046853890371 3.045762950813801 -0.09662565634554972 0.285749834242153 -0.33492938129059735
P 0.9626456693252589 5.225359318472321 12.507307980275524 -0.8853526887205785 -2.405594308815386 0.704891842925928
P 4.303735748940425 3.904871098357848 9.43291612000043 0.19994903642624917 1.0721713584124566 -0.2883013970194132
P 3.0265465433326164 4.986603170684161 4.9936606654215465 -1.0070062345690336 0.14066685372616416 0.42347868838591585
P 9.105908827847177 8.115065169283223 6.724671903975007 2.2117357015575907 -0.36661257132649117 0.511291888646158
