# total energy = -340875.32533512404 ev
CRYSTAL
PRIMVEC
9.16920454036925 0.00000000000000 0.00000000000000

0.00000000000000 9.16920454036925 0.00000000000000

0.00000000000000 0.00000000000000 13.42005768222836

PRIMCOORD
 96 1
Ni 1.7182905482820872 1.8278808781312184 6.93665343141544 -0.22336535846766048 0.9141829826887095 -0.5993028067395034
Ni 6.134958723765588 3.34312856629122 3.9400345973193827 -0.9273634859347255 -0.004735200692140232 0.6478699170149294
Ni 1.3058322310461874 2.177548484288901 4.20518873048071 -1.0298119196096394 1.1726469846317158 1.496915029553725
Ni 2.572493621302926 5.418403745766097 -0.07576513516929148 -0.8342180748282925 1.0696295658272097 2.2857130243760055
Ni 7.390562053630923 5.964292324043208 13.2193738825504 0.000556129613786139 -0.0804431330484163 -1.1230411486791305
Ni 4.241252127931315 7.93666152360704 5.199533922093762 -0.08444376956737715 1.2497919065448346 -0.005718904761648215
Ni 0.38577043118679644 4.731410282444786 4.6518885242718815 -0.4218324110317445 -0.23808209585254478 -2.125987097135861
Ni 1.1041005671396664 7.02692058011296 9.594562775418298 1.100032089378467 0.30417410238561166 1.465729090869224
Ni 8.272474462060403 0.1549265436130239 10.405563308516935 0.11040831195193888 0.791043082102715 -1.2728233344430013
Ni 4.75916546387495 1.0281887247015007 0.21994262057597866 -0.554002283030491 -1.4407785915714737 -1.2455974088475128
Ni 6.811664339857086 6.360933763853593 2.1619039879043136 -1.6518782452979035 -0.5266992243401639 0.2868613221387769
Ni 4.375654324628819 2.5793980321443244 7.571650170965964 0.16201369483305644 1.4102832511960937 -0.49976769005664257
Ni 6.5115929597832345 8.701547377496322 2.555648876074861 0.5969399629342816 1.61780084399822 1.7826782335323168
Ni 9.017765726350655 4.187658128770657 12.785194637237225 -0.14617287114605795 -0.18642940467325958 -0.38990985129153494
Ni 6.225367078209399 6.9148912419187925 11.196179783525915 0.6923978242239753 2.069688165433816 0.4565757280502008
Ni 3.7393390534992865 8.494167483738138 10.10090182476818 -0.410658396692796 0.9577197296290795 -0.2603861586663838
Ni 1.0322965282299823 2.1848930169369223 11.320247370051652 -0.9098416750008782 -0.5829248796021121 0.4860973916584016
Ni 0.07587333178008632 5.2426392684503345 8.081263543173034 -0.09031719762901864 -0.07389941839262758 -1.1928070045193586
Ni 6.236021693611398 0.5176776873930061 11.637484417504233 -0.7962187127663836 -1.0044369311799604 -0.4779883893980219
Ni 3.1975949555678755 7.924228082569941 0.5344912573264358 1.16234611692634 -0.3051189827973842 0.2987516458184597
Ni 1.5634135183723081 5.68135818681474 6.2767623021778025 1.4525838117365177 1.1240600768619478 0.9377605128983333
Ni 5.015527247028553 2.6541362164314957 11.231058519780358 0.6523855454970958 1.6448997570975414 -0.017687904198066314
Ni 1.2101699225358136 0.12384477486113425 13.312669619429744 -0.9773711853114201 0.6743970167711805 -0.26168816530725897
Ni 2.4375962875729718 1.7976866883560185 9.17150852568795 0.7462578074672245 0.10975499463865614 1.4405664755606675
P 7.521104015316172 5.2200463490436855 3.946396191265946 1.003804439802284 -0.8589052931623273 -0.33186514054297683
P 3.3130535761719804 2.8411971534505827 3.709410770648921 0.9342031345643782 -0.7435126406219195 -1.093572192685736
P 3.952761452894231 3.998066491363488 9.295764997822362 0.023775248042726797 -0.05481977605335721 0.5922728964759154
P 7.989301925520015 7.819983398830418 0.9763442097221702 1.731288051985799 0.7397068937225841 0.862731608886953
P 6.380675060721496 7.9157190609752295 5.103902788878025 1.3289428031443886 1.352909084151999 -2.522205664254243
P 8.326902858812783 1.0572917791644476 12.439373512285341 0.982880030944791 -0.3361678816833888 -0.2137275782675803
P 0.5351881168535889 9.338742892239098 4.322533456410281 -0.6616304611341314 -1.365981601065241 -0.010646423970252632
P 6.444520230294748 9.105918456535523 9.049534268504964 0.9286089283060524 -1.106038957694179 0.4370114327650281
Ni 2.7516415350071033 0.4712540059985824 3.686220936042041 -0.12059425134600521 -1.032770745127647 0.2007458212959317
Ni 2.2512230408767326 4.026619393568156 7.866958149403551 1.0679598914342703 -0.010330949612362854 -1.106381171524946
Ni 5.9116610913345395 4.807661385442223 10.037397749595058 -0.516724115405323 0.16525097082343154 0.04484286734630342
Ni 4.908962754599955 5.000691474463634 7.242750812558305 0.33776942184255376 0.3887965636226981 1.2509195923913747
Ni 2.3323796681771567 1.421868511521485 1.4723954118422375 1.4452312280261883 0.38581819772066456 0.19971943691394636
Ni 5.994999989259469 7.905605428627205 0.490429562960889 -2.7272238876732837 -0.14154539967637556 -2.286928127730029
Ni 6.4125197072715325 6.996579683068886 6.9392033871325625 -0.7864374650099037 -1.6863567386907472 0.5025069433646765
Ni 7.502637237846614 4.417695126365621 6.317156314821491 -0.5237763942664141 -0.1440661092157003 -0.2548690855028965
Ni 7.687048274821658 2.6584365732503747 10.891436693858846 0.42567312493407333 0.30999430861181454 -0.2665318665528055
Ni 1.9006110066756718 8.953975572003232 5.968114048397385 -0.039289027407609756 -1.3775294538038403 0.6755486138771204
Ni 6.777628253478239 2.238230278377049 13.291331964092402 0.01696465287879659 0.969899302414407 0.06588451850795106
Ni 5.371778341876971 7.129368099808771 9.060309917403783 0.807692260623622 -0.12783962005450886 -0.6310718716209842
Ni 4.851068398620419 1.3019261500124082 9.333167099101443 0.8023857608090439 -0.8196028960182787 1.2872539080460346
Ni 7.567921972495694 1.2406850344616762 4.513983691530003 0.02350271110763049 -2.400817456252033 0.3199719886498167
Ni 8.549879569093168 7.1519243423982015 3.507573660892897 1.3622090213966864 1.1047906871093747 -0.3208127393835572
Ni 4.914482615591352 2.5715858700767664 1.8301062440159561 -0.1448711216154989 -0.6305802766965463 2.9358239149063117
Ni 2.1216805224606916 7.078662400004078 4.264921511923328 -0.4131521096489272 -0.6377464554276823 0.027561711668352532
Ni 2.747432870231271 4.208123792778627 11.489622745807937 1.0115750848866385 -1.327789663376552 -1.2612610835266989
Ni 8.590691697453149 4.90844010995459 1.9049773817655444 1.0780620128652787 -1.2474365189387808 0.8411829361818997
Ni 8.605389931953496 6.76051851824577 5.798846869251895 0.2669429859482951 -0.3437564926639241 0.7012084805370697
Ni 3.342523398807113 6.232023920534572 10.046281791645832 0.33369268067001884 -2.2994884808935434 -0.41907130334683956
Ni 9.106147686643139 0.3731526891431728 2.2116258320871185 -1.3668462630583813 0.46627984271184214 0.06731919407194857
Ni 8.374215953024757 2.950411545923224 3.3762449814783104 2.2561414813664755 2.3318249882427198 0.36797294200912756
Ni 8.162196441888424 7.3271570058642945 8.75768766469238 -1.693802396335515 1.9051589032677576 -0.6188087379829148
P 6.382242994657591 2.2989212416695026 5.961806552756219 -1.1385996652390198 0.4200388094664314 0.44381894260516463
P 0.8939258999094274 5.767842121816163 11.727036368265988 0.3777999554018784 -0.12280514295439496 -0.21519747794488744
P 1.5120109590404616 -0.01394085822478407 10.746647622525039 -0.30998196731664035 0.7170734725937844 -1.0651607314225784
P 0.8958642696994297 7.440946831284954 7.564725587875095 -0.007318902258916428 -0.6270115855086814 -2.238494200598358
P 6.604211092464466 4.2484041072889385 12.057048868076231 0.08680635626228275 0.07853614583369055 0.4440873657752029
P 4.440168846116309 8.242014365360369 12.19235056371602 0.9802212531657053 0.317239420210002 -0.8660205640508697
P 3.616545069451465 6.032236127940637 5.619245996855067 -0.5936198974221131 0.6202768378880091 0.7302799439817295
P 2.256614533007865 2.7232353400713096 -0.35716159683586984 -0.1611037814242774 -0.06440433441799875 1.0615118218160815
Ni 1.6260941989988695 3.6921176513303586 2.4276348640164036 0.15144363262669402 0.39014459301016036 -0.4579283854233533
Ni 5.537007403446696 5.67815813451242 4.5160770208727525 -0.15463000077447564 0.6992197322418151 1.09641968943686
Ni 3.7629497545837505 4.861319569033013 3.0189220066466786 0.03242341063602803 0.34132268641145086 -0.5332164566333915
Ni 0.6706713627386105 0.18281926310775762 8.506357023940735 -0.20487578430390524 0.29080565149850557 0.050724522938061026
Ni 7.837056457245669 -0.3560447877515639 6.705989260246039 1.596011773147587 1.1753774961890013 0.0735453774873185
Ni 4.986644253468917 0.9517725760265794 3.9685930010466337 2.485657947037197 -0.38585007939986454 -1.701467883300573
Ni 3.8264740020063397 1.7205553417453348 5.590178702288908 -1.3503022426567712 -1.1519850854069902 0.8241558054962839
Ni 3.374523921830329 7.308185922157982 7.673843703702537 -0.5404551404736756 0.19128287611081896 -0.4564780261300719
Ni 5.554337199582477 9.25530313306682 6.831479907279857 -0.3598109750236255 1.4710309626981117 0.3172409628718988
Ni 9.062107998367924 7.826035073671485 11.929424547200721 -1.470903435981312 -1.1076070735122474 0.555665529665527
Ni 8.067185146883679 2.068288245794737 7.315877050728719 1.5159203670116344 -0.4364607024678806 -0.2879676678290783
Ni 1.251550541562682 4.347128930037064 9.824917944402632 -1.1730442200701345 -0.3689005960297195 1.3029908591653174
Ni 8.251201908073623 5.742654317591301 10.397041450036197 -0.19982588058482362 -1.3909498409748045 1.2582014707647686
Ni 3.2888468768077144 1.2004047199513654 11.70434350453242 -0.7591544609242344 -0.7327890835568283 0.050582340933241925
Ni 4.583611878258194 7.221298542167155 2.8988127656192577 -0.6852928377480778 0.1429962731902892 -1.1295457825668676
Ni 6.474145929403059 2.9416457866079817 8.688332720252465 -0.17558269176674277 0.6981851203297137 -0.08998938197595469
Ni 4.2249584518819585 3.6576597815534986 -0.015230965270447788 -0.021391578301898643 -0.5094059844773549 -0.43709962160346016
Ni 0.26604262905844833 2.41833178932891 0.9886043527979126 -1.3296642546914454 -0.02643325449086415 -1.0341645401513802
Ni 1.6550230385800282 8.08494589562178 2.2322253664779366 -0.08055240493277094 -0.39151884764986766 -0.5060820623104445
Ni 0.45201334768571283 6.443612479068587 0.5611378819561681 0.9592063414769351 1.18875443171654 -0.7268680900867031
Ni 4.637077508558586 5.692544616066408 12.217928976044261 0.0711172276618001 0.16864688387885796 -0.16004037315676953
Ni 2.2203228223700755 7.51982032671352 11.818092068533709 1.4153359831286527 -0.9178663450775676 0.5707291088668688
Ni 6.368214112071482 4.270199305921082 1.1541359981096904 0.3109137351022903 -0.3231964091243853 -0.3290911773422655
Ni 3.6135925856653683 4.021044517350932 5.509188954506829 -0.43694072742809265 -1.0031313249946594 -0.19761498897643387
P 4.1790390767242895 0.07375249482442164 2.0483305557052436 0.3741538740088589 0.020702265544357897 0.5792713420099249
P 0.4349613784403623 3.5378182812917727 6.3952742678153545 0.43496329198674766 -0.02774066044837803 0.4158754221173611
P 4.744127968815331 5.749494544002567 0.9753796094293214 -0.321768161318291 0.29212617008214203 1.3235763966261527
P 1.6345665437763628 5.865512486069254 2.3261116001145004 0.20199203499820698 -0.3559982861457546 0.4738350293512807
P 7.256609147944347 2.1240920231928135 1.983659240824144 -1.6985332261522814 -1.3374125311782967 -0.953711636910951
P 9.489759687136623 2.3128584322125647 9.215298811606077 -1.5824332631322038 0.9773431602869619 -0.42764541816909574
P 7.142003263340575 5.443481519539305 8.289851021138139 -1.392612573389208 -0.7917961582186557 0.5398974681979928
P 3.598059953573298 0.4131450906383176 7.717780696889541 -1.6389525383751706 -0.22170956803179237 -0.4541637761745985
