# total energy = -340853.9150037331 ev
CRYSTAL
PRIMVEC
9.44688559771720 0.00000000000000 0.00000000000000

0.00000000000000 9.44688559771720 0.00000000000000

0.00000000000000 0.00000000000000 13.82647197808462

PRIMCOORD
 96 1
Ni 8.744434276154504 4.760040141289045 11.213711358010046 -0.1705731543672933 -1.1284836598509402 -0.3237252850446618
Ni 4.2510608275471755 8.239224269851347 1.3672128299936905 -0.6041269676010241 -2.240632072876967 1.814759687447894
Ni 6.8786270939913186 7.495045840065241 8.044504114820002 0.28564956121886287 -0.697358253553044 -0.19345468695115717
Ni 0.255964315746081 5.283775490668185 1.4387550409313377 1.6844775193901635 -0.3513034517732466 -0.14410133332900987
Ni 4.859827596113935 3.059194479162991 12.880313003758676 0.19702132125649294 0.12740870316467737 0.14035549313333245
Ni 8.358595118963086 0.5856379580349242 2.2644582058919047 -0.6692162439011894 1.170267685766262 2.1949345708398518
Ni 5.6922399393776955 8.400709335909914 10.171568702849346 -0.45912703371714475 -0.2366394498687473 -3.375835053729612
Ni 1.1654434087699443 4.536819676453553 6.952558422350647 -2.411349723241924 -0.8037738994058221 1.7749158159780785
Ni 4.322517071823939 8.507251314089892 7.51580726101276 -0.5269059410343312 -0.034026750567405915 -0.27330775182405836
Ni 2.789334739077051 8.950480302585031 11.022076555884677 1.1574324816748067 -0.21877156844939097 0.16998617151557177
Ni 6.470559414485884 5.203618664559203 12.603880120525226 -0.7658467853427455 0.6671758164323929 -2.2393452357447434
Ni 6.216192567130496 5.9794630555848265 9.998046414890005 1.0805022468756553 0.4207373781953528 0.6084687895094876
Ni 6.4305329593033544 9.334345060641885 11.959870799750783 2.853030536458164 -0.23860505823555037 1.7699103923436872
Ni 0.5177082362315226 1.7470692744008043 8.216201264440599 0.9404043782790836 -1.1078351303626535 0.40088794756959345
Ni 1.5988570829071298 7.13207759342301 2.078036195357216 0.5927032991451147 0.05831081992575119 -1.4454310027418205
Ni 1.7644893318368637 8.649908736726516 5.5592514043689505 0.5046242468179954 1.0976070248767418 1.4341037506544592
Ni 6.581588663426234 2.31829411875341 8.7920324103148 -2.006106326917113 0.8064159650143595 0.9919280000796723
Ni 4.273865609895682 3.612186833899764 8.561227040861406 1.3493866728210373 0.12209860380567358 0.08198039562854914
Ni 9.138388308257838 7.204856401713357 8.874922220488996 0.16090117849516805 0.3750547885565734 0.5004829709561123
Ni 8.550262985188796 2.8654577449446035 4.905079123838701 0.15312307721164595 0.08140961072674367 -0.5090653133084846
Ni 3.596769516255703 1.8580323951404756 9.807186257401163 0.13322710961866732 -1.193001637028668 1.0622528137471643
Ni 7.455520069830712 8.227349534386528 3.838643801814212 -0.2236594926693116 -0.31063297063707795 0.3871443727312558
Ni 7.590374364787191 1.432025079479359 7.057058928506799 1.0768394533120873 0.3190651605648311 -1.9130439624427893
Ni 3.145368971533779 1.2868075507878702 1.7542753588976732 1.3364301126603695 0.20706764974890146 1.8466344246693036
P 4.691946988361108 0.7040830123371546 3.4541980602799627 -0.511813565477583 0.019291758350076453 -1.037933006054877
P 3.165179091080101 6.905021692948124 13.477021767275875 1.318732181159974 -0.008356342384495286 0.14434815923249333
P 0.24122150574894743 5.772292849742754 3.735262751626699 2.0875074530034246 0.19817420391401355 0.24414887087191503
P 1.2764443170528608 7.888754253137482 13.73344803573813 -1.5406340677082306 0.9743511675381735 0.19365240478426005
P 2.5046433882673513 0.7753663786035718 7.389972852628922 0.37793956630353626 0.5913681252734589 -0.6840219414554543
P 5.798233998180616 3.243503221341689 6.008113570873374 -0.594209708487312 -1.3408639800620068 1.5973011813829718
P 7.475405764463524 7.230778656379598 1.1760768234391572 -0.07469337504883264 0.3093507614905447 0.6603526228629724
P 2.473204152287305 4.8487747397147 8.778343872774208 0.967795625807843 -0.8011670579105944 0.6904954649949399
Ni 8.321081535406366 9.545511299182143 9.534472613111626 -0.6504916709084926 -1.9323845717529302 -0.30794462517163745
Ni 6.3611077954760225 8.762959619230486 6.032697201820151 0.5171738013482318 0.9176827683118517 -0.37188770368250146
Ni 5.900770496776597 2.215039656835769 2.0332381181513934 0.2481986154612564 0.7659239184375841 0.9531213116251198
Ni 0.38998917412832723 8.174673699102652 3.7638150193028093 -0.7627118392581896 0.7511765849250805 0.10299016511099682
Ni 5.721969289025894 6.394757602735916 2.5046934567621513 0.13381486380133728 0.3180722005239425 -0.4222538148398792
Ni 2.4285392761714215 2.7329462776693294 0.21487980935268491 1.1566961177294144 -1.2386099217860864 -0.15199282026194466
Ni 1.8424450335518108 6.200586311770208 11.803009984296853 0.41905253429376216 -0.2959879670303935 0.20860851187346008
Ni 4.752161438522411 1.4889614602641368 7.307470364772991 -0.7536065345228118 1.1483243487259516 -0.5560874476942939
Ni 1.0670729868167521 0.24208589580068246 1.709878774338831 1.2052079492868726 -0.6270797197424556 -0.3558725592011678
Ni 6.211969809172839 9.139616403413308 1.9486894348287318 0.49650007504896426 -0.0658750054262543 0.4624080184612617
Ni 2.2585614597684835 6.647726310991229 4.296189545756394 0.9635602475702566 -0.06947840650679647 -0.22930280699801797
Ni 4.532653599810764 7.422087540944477 11.916870464914854 -1.4082682776485942 -0.6901254832500308 -1.8891129055484885
Ni 4.599622573327156 6.1500171320222545 8.27019399560657 1.2318440638171624 0.5782195037066429 1.2312385690226797
Ni 2.7344294387417056 6.342166789424342 7.273111096388669 -2.1624165436074887 1.0569586552277603 -1.260343713918752
Ni 9.027160674715452 6.2153612411791 12.858342381427306 1.6709136646627996 1.9843766485495051 2.9231386061291595
Ni 7.522649640405894 1.9950689207193681 0.2494280154532342 0.07429382561756884 -0.5135979110715154 2.6394657090206928
Ni 5.75110348486798 4.5643101141644715 4.472269105704858 0.7927898895904927 1.148203249767055 -2.048543155925085
Ni 1.7024421858281664 8.368013664116965 8.136754844144626 0.5137742887483796 0.05682472229852794 0.6888533014058266
Ni 1.4952625331002818 2.1501773388553005 3.756735523075812 -0.7089721836428886 -2.186590569750531 -0.5152429028741061
Ni 4.248226761803782 2.9752588987294835 4.1913848498771165 -1.0947507863748696 -0.21470742568234638 -0.8436465672310438
Ni 7.889453322687519 5.432469473338236 2.8043269468596033 -2.1966214716239714 -0.2418078814435642 -0.8117636024795182
Ni 3.419158616117225 9.490152548327854 13.707813911089135 -3.0052113043611985 -0.6687002234967194 -3.2240011276430347
Ni 6.255472718333931 1.4917671853500962 4.693713556007824 0.7052050032909726 -0.17237035547703217 0.2788011708384618
Ni 4.049407603018908 4.986652038130799 10.441129921343649 -0.798340901315709 0.03934224924304837 1.1662356817887334
P 2.7854426221227904 3.460422613341036 12.203797893596091 0.9371051387025217 1.2790181503998037 -3.013667405548352
P 0.8321941202015195 4.309688200892178 13.236731724467925 0.22821394480921342 1.2205162975091688 0.5857263536066493
P 3.880846819487667 5.907591148332365 5.490782265385723 0.6468787567462537 -0.8335580726467902 -0.04030075650157575
P 8.905286400863714 0.8063323256044717 4.682044762653691 0.1968133190107449 -1.4994691634341466 0.03209688053454472
P 7.705919225145348 6.800765861134484 11.442940986910115 -1.0577934924242296 1.3038184972729352 -1.635385904069835
P 0.683695688067762 3.778055254974781 9.568361426582545 -0.2088720499474919 -0.29472555537820205 0.5974130459159582
P 6.506372558596568 3.886108734884568 10.328056366313731 -0.2000963606373909 -0.31311974161467365 0.23594782311836138
P 3.4790046377318866 7.696708511479319 9.35096780091547 0.050928411418751 0.03278927861587901 1.1018537159682378
Ni 8.416438400785749 5.01632470646413 9.006992518196881 -0.6340906038426498 -0.7423852118856957 -1.3974693872608772
Ni 6.301214539432304 4.866544331925778 7.627055677703934 1.4661564082146297 -1.5769141330861876 -0.6661494320504076
Ni 1.3511786307061504 0.8914846649304762 12.790814152270888 0.9417768331465781 -0.7110794597938785 1.3587758273454211
Ni 8.06132996313853 5.174956813007682 5.158726118495267 0.09341203450425847 -0.6749076378590119 0.9120649079044422
Ni 8.604336959572747 2.234075131745563 9.793774513614842 -1.2735717825732518 2.5970463635142176 2.571466972383216
Ni 2.7026973493015083 3.596127128020534 2.37710287230599 0.21249653407395658 1.459486709503938 0.10492286335733542
Ni 9.162345610675326 9.028832773504053 7.112088927734854 -0.7176679116446738 -0.7216646915088926 -1.0318374346801005
Ni 1.3315668957618667 1.143847827805285 10.449508364369702 -0.7066584479080475 0.33697006586970996 -0.9935729918822631
Ni 5.3422706076118285 0.9330197877770718 13.928235263658737 1.6084890796789912 0.5235491087469564 0.32580916415688405
Ni 3.4563132180131158 4.771546448207223 0.2739171775418984 0.7885403702855194 1.296976277540121 0.19584041357451432
Ni 0.7069444740494011 6.429541036293166 5.958822554775692 -1.5699366733270899 1.9058597859895243 -0.20638862140400585
Ni 0.43999343010476416 8.409646089887417 11.719953908932379 -0.5539953410519556 -1.2638944073844878 -0.41327397993877213
Ni 1.7693166904864444 4.175674678772905 4.603482570869658 -0.2896134309626174 1.4330480556964353 -0.1299741498990084
Ni 8.12297089305734 4.308790746740103 0.10195457043000412 0.10763460586154366 -1.3336350664137353 -0.06412331284247022
Ni 3.34244045644356 1.240546150969875 5.215303517619215 -0.8257884560037003 -1.3356047885455966 0.8205881427496836
Ni 1.2334137521823347 2.294440732079847 6.286467950680845 0.7456158030078514 -0.3951021941257518 -2.587212408142931
Ni 7.155694807951289 2.58858841558667 12.086742476196706 -0.4690646045458309 0.35274969730146993 -2.767329497444918
Ni 0.22286998537189262 2.681763050343641 11.95675994025312 -0.021579268832672513 0.6665824058227681 -0.04893297825527702
Ni 0.4680913025733496 2.6507394773392923 1.0457570336721076 -2.4785164508964086 -0.2581163887956006 1.599005308558272
Ni 8.841774987554263 9.581503934123242 13.942891162306404 -0.5692823491180131 -1.2968731763033536 -1.3738836295211372
Ni 2.772774348249821 8.904455074912319 3.243483382881485 0.5908266509476922 0.3880440017273898 0.9379003809103073
Ni 5.82425072170497 7.509556256671416 13.599801052788337 1.5616692911119747 -0.07488337957245168 1.8193298233170796
Ni 5.99539995194851 6.429191501518148 5.623143527176597 -0.28325586417570575 1.057929760891778 0.6911634375962419
Ni 3.212696926711 3.8718533841952985 6.575953596039787 1.9672603005841927 -0.33746808855205107 -1.6016301477756287
P 8.432167465661584 3.822597321575117 7.134570626588615 -0.02539864257876271 -0.45999992324040134 -1.0860617432413038
P 8.066903625767203 7.162373756219887 5.890478114685173 -0.5149413124732873 1.9754163540324239 0.9101306669962067
P 6.180398316791433 0.1067498096678261 8.105189019894707 0.8660503888475407 -0.3122543082905848 1.1112729523996088
P 3.599565794455851 6.173898859353251 2.6528574691381883 -0.2012505288464921 -0.32028000680853874 -0.7746443290297175
P 6.0530165085117025 4.360588021643527 0.642093492331906 -1.8805171934596774 -0.5917969852807615 1.6080684472018045
P 8.622106551783824 0.7275670257754953 11.74842304401335 -0.5838476485266977 0.6472559375800143 -0.42126548278468096
P 4.673865648918257 0.8791092445176575 11.874230056428335 -2.3805484215903516 0.860376221280899 -1.1543327597035604
P 8.117793999632742 3.1495161544049455 2.485750561333308 0.14931861586389122 -0.6711952220044312 -0.34858528151113516
