# total energy = -340858.7317329688 ev
CRYSTAL
PRIMVEC
9.39119899704358 0.00000000000000 0.00000000000000
0.00000000000000 9.39119899704358 0.00000000000000
0.00000000000000 0.00000000000000 13.74496900911522
PRIMCOORD
 96 1
Ni 3.266268370756269 8.479313492358662 3.1222242836940297 -0.006896212899201027 -0.09831461401219842 -1.8520766787307974
Ni 6.9254551125467545 8.740492125137472 8.733567055064078 0.45609158932493066 -0.6651135345867255 -0.17229373660282588
Ni 9.18524991413361 3.7188208548445085 11.922935593577376 -1.2014304845223116 0.7658984645162874 -1.9815263235849034
Ni 3.060347552341219 2.651107277608122 11.382332167665009 0.5543586379286453 0.24429568086242442 -0.35639217915006366
Ni 6.314360408524968 2.9240624738152374 3.7943401808482764 0.06181420509331935 0.6947784086410099 -0.3494370879884691
Ni 7.019113539237742 5.512023329978438 12.398772616233515 -1.3850594436322985 -1.8302878649904801 -0.4282629971484366
Ni 6.9920011479957 9.0930846880687 12.636079760512791 -1.880046681581162 -0.27784549179341184 0.6321846450691887
Ni 3.2745514081914893 0.8489136686414491 4.400905509637628 0.4171635448011654 0.523784107575898 0.9403377867072064
Ni 1.648747053559601 1.5135419629078262 12.859517982247473 -0.3041141956819537 -1.4076154745559435 -0.2534585783086151
Ni 3.9797177516561333 0.752466055875336 6.911959959718623 1.2765401211729563 -0.7512046099495385 -0.0060271800306863944
Ni 9.363354001388657 8.174841432622523 13.406196574732228 -0.3625409723602789 0.2972362376151978 0.7745468842199047
Ni 7.3090010670726375 3.149883242712409 0.7173213722088682 0.3926794436168721 -1.9880417561059183 -0.13892133178996718
Ni 3.901329414386538 6.330128231488386 9.053880189115105 0.19873804683728355 1.5301825333576033 -0.25166369119172144
Ni 5.955654175105839 2.0837286044944427 6.071194095248146 -3.1305752091817047 0.3760132958151008 -0.8878520581036645
Ni 8.32141926514964 1.695890872068451 3.185478703926372 -0.11041602526142273 -0.7886195602628869 -0.9839424107710346
Ni 7.165813457350639 8.984945032664434 1.4889651953704435 0.15687843048902017 -0.47307475414648853 0.1811020789230752
Ni 1.325492596011171 2.111601682847882 5.091617858865824 -1.7404298663860671 -0.4367360676164543 -0.7018558843130815
Ni 5.067425191363703 0.5502547610282137 9.676403043085779 -1.0295458104324464 0.7526246302255167 -0.6133587706119372
Ni 7.850112556845828 7.638068676743972 11.067063985666364 -0.5090231472166394 2.2633428842109216 -0.490319143049233
Ni 0.7952861664077965 6.866459601018349 9.657957789314219 -0.9688592911856669 3.9404763045311872 -3.1260117581807387
Ni 3.512148740516967 5.79278261247656 11.802172288603474 0.19318652089143504 -0.14957418351812304 -0.5440680546359146
Ni 1.0562844881676077 4.107222059204869 9.296161851454968 -0.031054041092327157 0.7259615191120335 0.9473748960596458
Ni 1.178971110677491 8.837456253843422 6.043223348426083 -0.28253621240086174 1.5279559580199298 -0.2668671384050372
Ni 7.326290264258851 8.100021750937263 3.940669146604381 -0.3701928324785818 0.09149579131815211 -0.8245558691481799
P 4.285570317631476 4.966141111160924 0.43526704338158845 0.29872979144158873 1.3454819384499925 -1.7550123921859324
P 7.512470782573183 7.049465894102404 13.65044475412304 -0.10353421053992493 1.9264648638343853 1.4162047588868514
P 4.708531133966451 5.03583319824343 5.501616003350647 -1.352393063747529 0.4168035903585854 -0.11837796042097677
P 0.13500881459463657 3.0962125409637884 0.07186802786905874 -1.7262255498612271 -1.322201113545181 1.074405389949298
P 3.612024140883823 8.674528344020706 13.11885781828046 -0.23905551550940765 -0.5818696988647204 -0.0870503539522888
P 2.4106644120140817 5.2383168378588305 7.749358140261357 0.11319384511687601 0.20194446958972315 0.26021260920299705
P 6.7506942921022945 2.4118101382806314 12.401191789071737 -0.028902541966963128 -1.11521445354586 -0.4998347958491521
P 1.2902286441185953 7.228227365280881 2.040138415651678 0.46100625301772863 -1.2270240167206996 0.1556962372554609
Ni 1.8624062198733145 4.0297071034335445 12.914951412030778 1.3966762019356203 1.8531745397806667 0.07233618767056575
Ni 6.261966909827583 3.8726486929271697 9.936018041246713 0.8311525485290912 -1.8149172960716806 1.3427869081163326
Ni 7.900627815761984 5.7923975733214075 4.404644145922165 0.849493255819808 1.3151056401509804 -0.8659758268558634
Ni 8.46277559108494 7.546250925038588 5.85476546437701 -0.30599804296822786 0.9494374350156294 1.857307588112434
Ni 0.9386184005929497 2.0292033036453625 10.479892421738093 -1.4305057488905557 -0.6357173408127954 -0.2997921712678321
Ni 1.873469052184754 8.951380887773873 0.9830453452582516 1.221066256475368 -0.0766543554299454 -1.118059893414455
Ni 9.204332830310898 0.8185462878585373 1.0359825943723024 -0.8918354682314448 1.2094109316246267 -0.9790269757472881
Ni 9.322079682196149 1.0197245508259836 8.14680776476779 2.4413334140882084 -0.9849888497576778 0.8002517451851766
Ni 9.075654622898893 3.6573272844070686 4.3868853887906445 -1.5913948432008655 -0.1862746242629502 0.036449243965969484
Ni 0.8139436612746355 3.4716069348391376 7.1541185973528165 -1.0083771467746312 -0.2440771370937151 -1.2975007825850235
Ni 0.8412917716092214 5.071698186865999 2.616065897129622 -0.5189769159952416 -0.15304645833743966 -1.2541028752153627
Ni 8.553889002872364 6.4427193151741635 2.2665592821589526 -0.7662077682265901 3.839638666986819 -0.15850285346632056
Ni 1.714898658654489 4.644849414183879 4.523524515515388 2.4697428184688373 -1.5531517405592672 2.411413486600324
Ni 3.1433094034781073 6.465492972521566 4.059287501748122 0.3930561102300005 -1.0394514995819324 0.6921211735238209
Ni 6.829524015720479 9.079937009600096 6.349433719079749 -1.191388012684645 -0.05291715971400564 -0.24439209723097266
Ni 8.036264901563442 1.4772168055388557 5.458332906712114 1.8950197579512265 -0.09109264234246248 -1.5060267620470063
Ni 2.2444214089774963 6.475090777803646 0.010335953516103603 -0.16235462311224297 0.5262132858426808 0.5629970303299335
Ni 8.517629583895735 4.97044228025994 0.623529590493413 2.941027827704754 -0.11330517388375971 -1.5294567109351724
Ni 6.458496529336488 5.5648863886211295 1.2947674105499352 -2.531092682331228 0.8629784347904363 -1.0424890008566756
Ni 0.8905852355476879 6.641221086453358 5.148604592948205 1.469917417918959 -0.34000499604129186 -0.6020957961036082
Ni 5.9081440998396495 0.569067210677004 3.831698370096923 -1.3068891657784587 -0.7807627832226296 1.5990042801170077
Ni 5.277140054136836 7.805288364466796 0.5205316164902636 0.23978159504215482 -1.0591096401324922 0.111240320934931
Ni 1.6710605421606026 8.53394209639571 11.595681424414819 -0.2469755416874327 -0.6787828045437019 0.4733506335156944
Ni 2.8060620595595203 7.383031888049781 6.796928103437139 -0.6261746914296829 -1.9625806357203361 1.06567135251041
P 7.5439500813065825 4.499699043890497 2.803368663713238 0.4327979089043127 -1.497358544849047 -0.28726215712162145
P 2.707877074995771 0.6529709990641788 10.574169728436996 1.4797102356396645 -0.23037701389880325 -0.22466068024031632
P 2.2197413382521463 2.8527457093219692 3.3485906812476487 0.44588251000241275 0.06880323481664279 -1.101861943498354
P 8.908989015911532 5.140826802014136 6.202774183122148 0.6182976026744513 -0.2805058122343943 -0.26553813518096847
P 5.305557822026831 7.879056231874569 7.4357944608641775 -1.1210333742204823 -0.13026597010781435 1.0591541202171824
P 1.9729312397997394 1.3777734003216824 6.8704912427087566 -0.8009410579427173 -1.1027911401808428 2.1653432303359805
P 8.316573406514069 3.2832288759807673 9.93911056304651 1.1658019366854244 -0.6499936482261516 -1.2616030402471499
P 3.5246108614654217 2.360543583451984 13.642830370049936 1.5038852902239714 0.06957096622060276 -0.4548104086196619
Ni 3.979370277296606 3.0976024384018976 4.752831297446521 0.9688785744593766 0.3368867621272843 -2.3256851938935688
Ni 6.710096139231028 4.366062283456047 5.611026287966912 0.34025696415109785 -3.1614983811231228 1.0062058501549251
Ni 8.256056520762868 5.705726198616593 10.130151965914663 -1.2150627305937656 -2.725764786629254 -1.7427608285120888
Ni 3.6046144849468744 4.107015452828934 9.658850892330193 -0.30386659844752184 -0.2281383543762716 -0.19422781767175581
Ni 7.467054944663064 1.806744583956591 7.519529207671042 -1.5445547429188755 -0.34613373464684905 3.2265074390046564
Ni 5.148846885879983 3.197759574735938 1.4703959777733224 -2.0582038189433005 0.2222883233533978 -0.0319608691773127
Ni 4.794995902295332 1.2027777999045692 12.117358767171632 0.7561125887741172 -1.0697534929995833 0.3748316168021738
Ni 9.147694509707936 6.169238211828303 12.288827033279597 3.3441163824700926 -0.4920489812561462 -0.10759655353475661
Ni 1.1283713309711794 0.811959300945767 2.770724856315477 2.019023549199413 0.6299799241083861 1.9153574410673142
Ni 1.9935355301998225 8.822449117991402 8.610782764085572 -0.2418690736988028 0.6475996940726783 0.4942233631996456
Ni 3.0346814057307236 3.3603963573925637 6.707709835588977 1.4025601715202232 0.8421656118101432 1.5492629470278223
Ni 5.004175466730815 7.78498459243171 10.952485724292048 0.17981858422496128 0.4285265352224684 0.5601940136634997
Ni 8.805948781513305 0.9528122586196979 12.539494097122759 0.004959400887804362 1.7890885079340348 -1.8369897024906878
Ni 5.397657309699399 4.610693623762229 8.125819374332444 -0.4564847109982913 2.016208962568754 -3.458858803021011
Ni 6.3398105575606225 6.465915576472343 6.040624803688752 -1.14295897064898 2.0490342366288905 0.9137602933289941
Ni 5.060466312974249 5.161093009253597 3.126279403381703 0.586801588948699 -0.8129406535067547 1.6766631655520672
Ni 2.909355856328214 1.8253861137852894 8.84058540131895 0.0525597763745869 1.002800681128118 -0.2932109185058886
Ni 7.354632902557597 1.0855662463569689 10.31278167192258 0.43255673942778405 1.0178447199454344 0.9967182223794642
Ni 4.412238808477564 8.06109523147129 5.470950921562411 1.1475450473577657 1.2382404542618095 -1.7840699716735209
Ni 5.0777649013593695 3.8735878128177843 12.098060792539394 -0.008801657452030005 0.030755278904985743 0.8749507766609641
Ni 1.7703536881952777 2.5906655214481704 1.145994854838452 1.3881391109988868 -0.14970505266903247 3.0287250712124223
Ni 4.413168537169273 0.5751846376444673 1.1392904779393547 -0.24588539394704748 0.6821437505961349 -0.20398823949262934
Ni 2.998384421958472 4.769602100453115 2.0564396587129656 -0.13528322081674768 -0.8741437073786364 0.3977288331153215
Ni 7.91384123262293 3.9657530388826947 7.762553713844381 -0.025841386543136145 1.4566158157140465 1.280870373117194
P 8.527847208305621 7.314438571239296 8.013316567916386 0.10810537485037511 0.3135007791031762 0.9990180741572342
P 1.5140866524443826 5.583227400084832 10.83532394409865 2.0823462205174588 -3.2943681074023714 4.211410671027063
P 5.108793422545274 7.25888023851054 2.8070246574474003 0.37069111227123897 1.520700304898781 0.04130940027174821
P 9.353605936924078 9.192143054130721 4.175941218080697 -1.168926341247019 -0.3731210618689703 1.2256703309062829
P 9.316388615659024 -0.029875281960229677 10.213130721209582 -0.22123854193264475 -0.7605917075913933 -0.17265651925888328
P 5.077135691032657 2.591106907796759 8.24682966783758 -0.498605037207109 -2.2142944634237027 -0.18110053626117842
P 5.766383952351386 5.758683169248346 10.705434272027754 -1.424028111586012 1.0853050675809373 -0.5936044708031455
P 6.350845216275343 1.5189231198810473 2.0664328334689945 0.3950929381543712 -0.3553917629100073 -1.2958647896434972
