# total energy = -340859.39338538673 ev
CRYSTAL
PRIMVEC
9.33421029366911 0.00000000000000 0.00000000000000
0.00000000000000 9.33421029366911 0.00000000000000
0.00000000000000 0.00000000000000 13.66156028122269
PRIMCOORD
 96 1
Ni 1.0835711281847082 2.9998658189662346 5.581798909053185 -0.18843795046285614 1.7230687493998 -0.03879229027684932
Ni 5.020190282705901 3.9636323589124753 4.750315862995276 -0.860876300845769 -0.3196611422776172 1.1827467920698793
Ni 2.997242905892997 4.85123174342234 5.803088764542444 -1.0878170353695136 -1.3300360362085675 1.3420448877439854
Ni 8.949435411149306 9.10319785618649 6.47355761763933 0.5498769480082079 -0.01031526588307901 0.28793630037051055
Ni 0.25187806239673555 3.5228709520857957 9.443690243354702 2.09018217162211 -0.972290685464719 -0.1266610263653754
Ni 1.2759211982922345 6.979086308954537 11.644676479158091 -1.0379959980823283 1.5686758043367952 -2.353404257075392
Ni 8.719029765954266 5.139052115711638 3.16771918775915 0.27137813890151324 1.054396808037855 0.23296920010601166
Ni 0.5274519508707732 7.561914395406419 8.810039249069488 1.1090612894602705 -0.8724267246875297 1.8625076442561341
Ni 4.591992722842132 4.74618454154967 8.333073241042923 0.012019650168695429 0.5339638763223772 0.38968436554429015
Ni 1.304745239467177 7.643728748028948 0.2677994247775968 -0.8778625509911204 -1.1033143596741644 0.0020481407782803438
Ni 4.284775861705189 3.2804801809617974 2.40089608277218 -1.3648053213689526 1.6975937450571474 0.15074095013271457
Ni 7.298129614446615 4.2012720170319255 10.42886572787311 0.042843577528087505 -0.04427336799607859 -0.46840408814369655
Ni 2.945904749655243 7.006538221226398 9.194297881140896 0.3706761998729035 1.2317887850991946 -0.6177466152669877
Ni 7.338920113130067 1.8566770900741565 9.284751045326706 1.051301714052299 2.687012091341088 1.8879096292690065
Ni 9.198117439964985 0.9744262080232436 4.150573254194588 1.4316509182385926 0.1552774045504874 0.006020238052150922
Ni 6.964216912066038 5.751021606486114 1.0532704149521634 -2.0370834920249177 1.4327230682568488 -2.011077297769143
Ni 6.334801782380951 2.4733043517509303 1.7404829743507368 -0.6570256153722684 -1.06476015355005 -1.5104246340043859
Ni 1.8875733259190592 5.493798775314517 13.09862160170445 0.15817298093072757 -1.1350461435598065 1.0132447592795775
Ni 8.022352317387496 3.8372191498346755 1.2453348582268033 0.30634077101962726 -1.7068854547717185 -0.4449695112698401
Ni 1.00100070453395 6.954107962392314 6.7108724452429485 1.2128451541171563 0.07527418725296714 -0.28626482620535865
Ni 3.966376616718639 6.23141606992834 4.399992685618046 1.9418488024896234 3.1158949814617114 -0.48636015840148494
Ni 5.802397099564769 1.3196706416170259 13.375965256437159 0.3128839714547837 -2.0888081740927187 0.833839608442951
Ni 6.714946828006181 7.666018842046358 2.159578745824062 0.33004402817383804 0.9181422244467735 1.4060224190372108
Ni 5.1242480582947145 2.4498754840860646 8.893634569002957 -0.3435646883680922 0.05400833589565537 -0.2745133420963853
P 8.606655209054935 5.9387232399015675 10.465684520105803 1.9227102818879593 0.944038118376929 -1.4129877946114506
P 2.9711257856833173 2.8069090251940803 4.435758578937355 0.05217436801071015 0.9332693098961992 0.7736691096006417
P 3.583132613298694 6.313613125170096 7.162837704602751 -0.985652708593922 1.6151387237850248 0.7897922404147495
P 8.738631607426862 2.9967855295919694 3.477359209870516 0.10149044063701874 -0.5701236140723859 -0.5444136109007914
P 6.308703330591722 7.395018716582594 12.897838072658596 -1.431363726015477 -1.165143734276135 -1.1590841583456168
P 5.972158380927683 0.29934345481211777 2.712639102447249 0.11951953022458771 0.9181615077204832 0.18827031453674026
P 2.595909203056912 3.878000314307902 0.639236585683881 1.7188259149630465 -0.7868254444769417 0.20528844636129162
P 8.931821756454644 2.3001827547069995 10.984905564400131 -1.1222749599370674 -1.801193261617369 1.569375401506981
Ni 2.238026248818417 9.083381327878717 1.7958255067750355 -0.11033863505626804 0.3489264669006378 0.6314107430176416
Ni 1.8245487384795476 2.328568088001365 11.694746116226263 0.5178669707605147 -1.0434130553328418 -0.4026028733781712
Ni 4.206191145820525 1.1291780793442838 1.7128593126107352 0.0940956908348444 -0.0030601269825624717 0.1044657212152588
Ni 4.333117736460703 3.0136057764175024 13.197272069309896 -2.208119187850926 1.32207101572522 1.1806400301395217
Ni 2.2597096191711996 1.488115799338209 0.33285140267798846 -0.12310056270762669 1.0956781832851454 -0.7320920574898037
Ni 2.022630013665252 0.9176219382777028 5.6106798889105 1.034803973507592 -1.0522702486131554 0.15356864938949683
Ni 8.128174258708844 0.8075043934107882 1.910665228594801 0.5680235370102475 -0.12555262379254506 0.5062540691119346
Ni 2.152599556838795 0.3139897640762377 8.102916819260892 -0.40472017683149003 0.19390540133533057 0.20566665563631675
Ni 0.6213699738921202 7.0492235645855335 4.257269811014022 1.6412048247444573 -2.296018777177388 2.0834353398165795
Ni 8.062694773980144 1.7054162133772834 13.178978884110851 0.9610007143731965 0.8707979308348551 -0.6876150581233512
Ni 1.723533915424098 5.322740038730321 9.95133966723304 0.26989538370839966 -0.6162792866928419 -0.3249758696223113
Ni 5.556842031174479 6.1745053901862335 6.27471373747824 0.5948056902000982 -1.5948336936790855 0.32112744241049856
Ni 7.713016590529466 7.721576061305834 8.266035876627663 -0.9086756797172352 -1.7385830429853157 0.8415446903966926
Ni 4.826468083695293 7.123598551658702 10.798821549616678 1.8207794112794127 -1.0873964028923273 0.5358451525054901
Ni 8.784957292773768 0.17120995078984164 9.576262164338987 1.326969738578418 0.7044742957725352 -2.333732489678077
Ni 7.276810278292609 8.523095359120322 10.98217344106726 -2.3433093347332354 -1.2482651854876632 0.24342844776612269
Ni 5.615292855603718 2.423002292848157 11.36874042332732 0.40473611767109 -0.26854838276220205 -1.9469179894824145
Ni 7.163483631950324 6.576679171942573 4.396713577565987 0.18066473427534047 -0.15318529790814908 -1.3064459075934534
Ni 6.603319007924854 2.429218876858038 3.960213237707041 1.0405092514224854 -1.0196185240164053 0.4306260980639745
Ni 8.201382469503882 5.807325562563593 12.519754020651057 -0.8783528603639775 0.43353890083539526 0.8236924927066203
Ni 6.054476780902365 2.0182429348594804 6.649778172477976 -0.9859023627108826 2.125272844677656 -1.2581636755482977
Ni 3.353483039131883 2.7136509308356445 7.156103071925379 0.3950862532861519 0.08931215340327199 -2.4373163225090155
Ni 6.929194955301665 0.36616986607629076 7.792513258753117 -0.92412158195866 -1.1995147555568375 -0.9129727644306921
Ni 1.5905774249785405 4.461201769168786 7.618738266993433 -0.6538202210610934 0.22046206877793645 0.47530210081511043
P 3.151490729861884 3.873137190780653 10.896597401724037 0.6713996247057533 0.8027714262832368 -0.05925287212404634
P 1.6714863592092406 8.97654195764284 10.349424131489785 -0.6611002996622743 -1.0014092000972303 -1.1430962675577927
P 7.176448849952913 7.643626071716474 6.112933205857739 0.05878184602489876 2.0791130582921418 1.7123343937014317
P 9.056592144532836 5.832303909125816 0.8729530752457444 2.257043938576087 0.39572748641457656 0.7521636314286981
P 6.321621877543186 6.174281369140831 9.28327624011115 -0.24054804089453416 -0.5482391552944688 1.122986127071479
P 6.51454133447444 3.6218042462610605 13.07251474912602 0.764828114270244 -0.6078008169081855 0.9506101151674918
P 4.266714164919724 0.8378620453257057 6.699506177451909 -0.6763459129674352 -1.0409918474858588 0.12526903111385523
P 0.28697189257984157 5.227176394446299 5.606963939819909 1.2390863472018725 -0.8114818095730412 -0.7054235470596819
Ni 7.610368280684634 4.110375477860426 5.1900271711716375 -0.05151410871889193 2.4631415111022354 0.06905288893360365
Ni 6.363672494607019 4.625689221754549 2.979380961206348 -0.6147816191013928 0.5146379223002556 0.0907447720847405
Ni 2.6547053932644777 4.7405186759430675 3.604056178939157 -1.6729000989652094 -1.1563611029874987 -2.4493552559514207
Ni 1.8492470587350198 1.8532421007113393 2.86906459766164 0.06747088915846444 0.19505262756589634 0.33670447091314915
Ni 9.312778878369453 9.202616529293458 11.6724373537884 1.3597986121829806 0.9622957790355362 2.533930151780023
Ni 4.985093652259726 8.543490608462047 0.6703689770474774 0.005556925262487204 -1.0904716993835413 -0.5731917114747482
Ni 4.25569979685417 5.901713096359259 13.623622388970126 1.4886579317512556 -2.097880311597316 2.161349021574923
Ni 2.7832374680633634 2.6018924318111667 9.196279533971675 -1.362206450293525 0.2786124518664234 2.052429892574001
Ni 8.257490407166634 2.165331419585758 5.973503440621112 0.3364612445540915 -2.3933849112333876 0.389862028772735
Ni 4.4764165318356115 1.379950971250374 4.291013914398587 0.46303691029451227 -1.3215359691573563 0.7936458098328848
Ni 0.5339130911885502 3.2608316684380747 0.02156855956701416 0.023137871569044025 -1.3416250265977474 -3.6172390148665383
Ni 0.46159723089102767 4.252423489065178 11.52912735736122 -0.5231932680694344 0.685381283696826 1.621203441921866
Ni 4.222021966362203 8.363013653760781 3.257735510906427 -0.011505429536438249 -0.2804793298718331 -0.5597021616287458
Ni 7.114665712473332 0.23178150778221118 4.764127693865276 -1.3394516730955124 -1.550948305150045 0.22150619377173464
Ni 5.297957710582824 4.777743506320551 11.683994972889053 -0.789633346239382 0.709320825231559 -0.5209939464252705
Ni 8.209801927126872 5.715234244483287 7.07361385590358 -0.9556556480111994 1.6613723008312677 -0.16800025143379455
Ni 3.7774428675534795 9.15465735715717 10.663748993713103 -0.4877364699237213 0.7012645305859858 -1.1489581256552084
Ni 0.9451167879165986 3.962904290514922 1.9135336313969575 0.9175359583213424 1.3437634130969889 3.4823836256158285
Ni 5.155853694116721 7.772148812305133 8.476082675900855 -0.2585521907814386 0.5794448914733117 -0.9190115144256045
Ni 7.766856315107532 8.638428860660992 0.10027462018460337 -0.5551271406635536 -0.33969157856593113 -0.49274909264696426
Ni 8.324230010275715 3.6307744222873297 7.8192893742046845 -1.1927967201067136 -0.9851917097971034 -1.0864137272640837
Ni 2.04449073401231 6.97043349607592 2.4505148774864804 0.7819454906768211 -1.712149531384135 0.14126720631432443
Ni 3.431283681357643 7.54201385920662 12.674417216974957 -1.1913029091700063 2.6819549885331555 -1.1988025599811614
Ni 4.808611739534778 8.2862117720291 5.681596551095288 -0.10850055340626474 1.089289506149982 0.3395524818849055
P 8.923467638303226 8.320272305140294 3.2479541920116013 -3.339941425156796 2.413444143877108 -1.8386200390052592
P 5.710903170938865 0.6624488996715259 10.061753106564089 0.8078074460452476 -0.9864201828875657 -0.442108130561645
P 6.429142645125493 4.25262884169013 7.173726060830267 -1.4609632940494646 -0.6690653201456219 -0.520976977144406
P 2.23851162775012 8.642153210540785 4.187992236144752 0.2521216046647464 -0.31341696114011824 -0.9897317637593019
P 3.819764176713839 0.8287191864102731 12.508060122081117 0.12979160157455713 -0.10324470432396414 1.539683273759187
P 0.3677660160247736 0.18640231135212676 0.2601799089708916 0.8097805106112183 1.4125823316429154 0.15314364603693625
P 4.688088417108983 5.923107106195065 2.359748083837109 -0.10414741864389161 0.2183681623633852 -0.41289654199469533
P 0.34461904150870415 1.8143931177546972 7.652044595918443 0.7425926999108114 -0.48097446860953935 -0.3264786794200829
