# total energy = -340871.64766611747 ev
CRYSTAL
PRIMVEC
9.22247416166201 0.00000000000000 0.00000000000000

0.00000000000000 9.22247416166201 0.00000000000000

0.00000000000000 0.00000000000000 13.49802315756762

PRIMCOORD
 96 1
Ni 0.021210767787754898 5.323626962756022 1.1020801009504924 0.32631207193523154 0.4683439243297225 0.3029787965259298
Ni 2.1095302414172266 2.4551240069333526 7.5622137375840515 3.0478674484688284 -0.30672206561844595 -0.27260841176418854
Ni 4.296796715576305 7.881009760606643 4.730017817122413 0.47540237383840067 -0.5373896141744745 -0.27159385445674517
Ni 7.5961090960128255 0.46505892604147125 4.7116060701719045 -1.432144055824927 -1.3120210876883855 -0.40412085268459436
Ni 3.984809645054996 4.906134790494673 1.5640430424942249 -0.7741905293217506 0.559268930746069 1.6873769524251454
Ni 2.371015044707028 0.13947331771284613 9.85502773686324 0.5273905939802336 0.894097267682428 -2.135649302815974
Ni 5.785064223285841 3.973530559440654 0.38512590000989194 0.8477904141960882 0.1874485899663933 -0.34677033978958344
Ni 6.275598389059524 8.504365995896066 2.9119011513871884 -1.374645447387826 0.49527905815766954 -0.15372882911644492
Ni 0.29099303087087053 2.598330582092385 2.954865890677077 -0.995592336305137 0.5700081715404441 0.022589198154425612
Ni 2.0153687826090274 7.69860767125223 1.1519128165748043 -0.03823564644243092 -1.4060314178982751 -0.4856369070822152
Ni 8.062544937411795 0.47211135185446146 2.0622816629876315 -0.530650495678428 0.9198255256864675 -0.26858720641993744
Ni 6.733401994861581 3.8507978764025035 11.254151733828976 -2.097889567568697 1.686467810347315 -0.5264619115183772
Ni 7.676427621454608 4.491667589681815 2.8936120633399267 -0.409198781428134 0.910991215224289 -1.384570419811022
Ni 3.602362873721282 9.19796981509754 1.8197628773314305 -0.9147396265231278 -1.4474416054139458 2.5475369439301807
Ni 2.337629689086491 1.5248622842571284 0.6199761985946907 -1.3353965291895322 0.7513100251791512 -0.5219766220535139
Ni 0.8330513139873209 0.5110541702642071 7.782541406473917 0.07631985490866211 2.538231093148222 2.1810621837331343
Ni 5.658439656249937 6.088142383992388 2.845220820390612 -0.4120529630474774 -0.029411877503213862 0.8328319931140431
Ni 0.15640670209264385 8.733083349318528 10.157369944150307 -0.47589988230010943 0.9937858792240174 -0.6666302283415679
Ni 1.0329724148159811 0.539499968848733 2.416672746383987 1.339784373844583 -1.178847457015473 -0.30071931106779176
Ni 9.011934071015366 8.188459373955219 6.786374040611095 -1.4730639339677407 -1.7722822350099734 -2.077362651259938
Ni 5.021194375224457 0.3567050021049725 8.00820150978914 -0.206552914896012 -0.22825379690821337 0.8251094276588048
Ni 8.468868693745943 6.945583452530557 8.654257020158347 0.2906441862199769 -1.4543465600638952 0.2590687254065409
Ni 8.458438075733007 6.363875909501451 4.928735385103426 -0.03397198607007053 -1.1066141134713587 0.21823472210931444
Ni 6.513704220941021 1.5211732946857985 13.262955037248428 -0.16813986233545233 0.17779024094102283 0.1336048046730602
P 2.805098447565434 7.729134059954986 11.2634387650748 0.7556107094370342 -1.0221883416261106 0.622839713519179
P 6.462270483842753 7.265603297843438 4.640309890974202 0.0365924544120531 -0.6703315884525552 -0.31789068064075576
P 5.583709950008719 7.122120048466556 8.750660462378523 0.8802544482620648 1.190752178872859 0.4063199172184422
P 4.5065526626021315 4.785384939351112 11.696077006268636 1.2504161703923948 0.13282267509139706 0.2483423401279723
P 1.8731305672124694 7.94705189640738 7.772593123847432 -1.5761073209141758 -0.11864226982595696 0.46373830723691095
P 5.058858958747737 3.3526182797422384 3.0988222529664817 -1.0863980435348 1.4455006796374912 -0.7101839445628026
P 5.487159870453082 0.73264439583486 5.97070155649431 -0.15271761424311117 0.17328772508497897 -1.2911311316132539
P 7.984698034982802 2.4861391867543103 1.22133775581245 -0.5299393285440164 0.48719268160510926 1.3455680704058957
Ni 1.2708476848492705 4.331021316324319 12.727528635133838 1.4728711012306441 -1.0953614233756748 3.650711692702687
Ni 3.8224664364946888 7.270528098921163 7.6747325307465815 -0.3845431876629829 -0.8478570057679656 -1.5841222207988526
Ni 3.52633279865617 3.5098337927983967 13.328690064667352 -0.10520234227096721 -0.009482742679454637 -1.966204862736485
Ni 2.4095557632534987 9.23639986395687 4.141638736453557 0.21047641832013425 0.16204043430593384 -0.05788530235255837
Ni 7.291518449582032 0.9590819537022404 7.21480130020926 0.9880852292948146 -0.9066699621411158 0.39997057796164665
Ni 8.071499959596197 3.784995524923904 13.089586361106809 1.052654885646084 -1.8852709060945791 0.6361053202798335
Ni 4.064869941226786 9.214994501969228 12.814550054626727 0.21415078184792796 -1.147691600237959 -0.4401229818108162
Ni 8.327340608841865 7.256574495867608 2.703977709930921 -0.0658130418400673 -0.7313906605474049 -0.060352018725496066
Ni 4.206121351913013 3.0221585939424935 6.2480591596621515 0.2097148575637614 0.02868348397762157 -0.23669781391050848
Ni 7.505000276074901 7.98823946497128 0.5729664822398391 -1.113550692690192 -1.323067318200218 0.40005285326280776
Ni 3.6772585844932104 1.8866876038871072 11.536490395165508 -1.0816152774341758 0.2805958008450393 0.3370669964588905
Ni 8.188348704268078 2.0475828840406667 11.19107554564359 -0.2877277839041303 -0.17324915853755968 -1.1356596087740893
Ni 8.099333385911883 9.089587301491862 12.231071796603384 1.5461256869504212 -1.1625068108739207 -1.2758268971560158
Ni 5.648009038237001 1.864378439454489 10.48338808650617 2.3298077007023745 -0.07096424702370359 -0.7796626081799153
Ni 7.116586564109562 2.5783362586157765 5.61633814051974 -0.475243222552717 1.6681620700595914 0.3040866848781279
Ni 4.621464687749063 8.78994912356058 10.283239190571482 -0.18939722905233186 -1.101262105130826 0.2843529538946264
Ni 9.291550258048254 1.680786650963321 13.134602178598357 0.6820288222848254 0.33731485080363843 1.514094112436173
Ni 9.157630714135045 2.834241465178941 7.291213185695004 -1.7792684365198195 0.42711551380755475 -0.5524670773328872
Ni 7.942412992021432 5.360313964042899 7.003489521831725 0.0017352375235518502 -1.6594637709546454 0.3334751653425741
Ni 1.8586973955146404 4.120343121905662 5.879023709915009 -0.8724552639326201 0.0659559951758348 -0.6915408755403186
Ni 0.49357850441742385 1.0546544510214735 5.451703147188244 0.9112614381665403 0.7993001799051848 -0.16804987372480737
Ni 4.599201635686086 3.7076097461913284 9.01380438872803 -0.4689419629250375 0.6359307423751822 0.01296890145584218
Ni 9.378610411931643 4.243933495019146 10.988916150392525 -2.48817942790747 0.8992219905035029 -3.266514832635529
Ni 6.182912526079856 6.816053806207231 11.175148333169373 -0.5698029975081735 0.6093823024626924 -1.523647560452563
P 6.177618826044998 0.09836229568255134 11.616115390567881 -1.1616992273709605 -0.39918304906334473 -0.1570442666429231
P 9.268309623748875 8.30931067231199 4.459193414485396 0.9662869024728002 1.4226433154233435 0.1737628649491846
P 6.977124313365429 5.861020518559526 1.1067042493781547 0.30764663431524436 -0.028169263345364386 0.36762892840614747
P 3.346346997470977 6.927830190218532 2.765151301744894 1.5857034492430433 -0.2677379710457647 0.04045116603651098
P 0.3183644112427466 4.570547409190779 8.645874713604893 -0.8451354930717444 0.23169547559991063 -0.021164807003073226
P 8.387830815337749 6.966693695352493 10.816208725631567 0.09257616886652444 -0.11646917343403812 0.017561920143163302
P 1.9990081138601785 3.738016242733016 1.3503426433692542 -1.2487074152314042 0.6932174919117933 0.7579964360603914
P 5.933398493949021 3.9337079170181464 7.248491919716823 0.6955438260521246 0.6597633260184057 -0.7795998732627799
Ni 3.1610306063552125 6.008192757507737 13.027212003187369 -1.9858501477712382 0.26697872428223696 -1.0181159713289498
Ni 7.123152965546528 3.1539385239043307 8.794137048971432 0.7603675073957292 -0.36009096815788955 0.1918019818390826
Ni 3.1961497870742748 0.07117075355227763 6.459397683214079 -0.4615952927519792 1.129976699456699 -0.19709614035848638
Ni 6.8574996040411245 2.2744096303078227 3.15487921624502 0.9518064494684381 0.04719954050393806 -0.30985084105541477
Ni 3.4704722740723044 4.839244187092532 4.0496362587919785 0.7904841242754516 0.47358537523431987 0.13883288584121897
Ni 2.3840556228416796 4.915670828536561 8.340940991143967 0.8890010841064431 0.14189506970631047 -1.0822703945196714
Ni 1.3952219682466627 6.905299686411634 3.5145206540487712 -0.3227611213591796 1.6278726264119256 -2.5100790561940385
Ni 6.37891776447855 5.232923931670944 9.146705771519551 0.7503476612658819 0.980602547764524 0.15874736537695885
Ni 1.077507741415863 4.841254686408906 3.4133796269716155 -0.4643566575472003 -2.6270040862185726 -0.07712023932277041
Ni 6.508253738849381 7.4435140423947574 6.775926822145089 0.1316854761631603 0.5120408509970408 0.3618506311614736
Ni 6.031922182925318 5.014600306365705 5.302509341954943 -0.31463823514172906 0.08113527401943445 -0.21720499529321946
Ni 2.8731418602086167 2.520880246042311 3.0848917060977463 -0.3817023757800781 -0.12449178662819851 -0.8005906165818341
Ni 5.245014594990979 6.601889516643666 13.275251361737066 1.7905730628993612 0.5405132474051207 1.3204694755660549
Ni 4.511717248001994 1.844974354309293 1.1271025172128242 2.297749129604933 1.407910122978227 0.8790105485526346
Ni 7.7055521941202585 5.829092313819664 12.55027268623143 -0.11054715152264831 1.2434705923124973 0.1893110970964288
Ni 6.970373462449895 8.580017949530117 9.48788197202401 0.4295709173265828 1.116807766174909 0.08119080984771823
Ni 2.5888867687897803 4.240161503182461 10.727796557070286 0.7478742600247249 -0.5777556766963469 -0.09562292611264822
Ni 0.7015535917276903 6.568568718340627 12.36022055475347 0.7712191053982523 1.5707239451150756 0.6241946848851766
Ni 1.7448828447651805 7.145406795135577 5.608010246562462 1.4856944782475574 -0.3465006310679645 2.8181285823746562
Ni 1.4769976445691213 6.483030272655412 10.088206000924833 -0.21230267289559568 -0.05843783242191872 -1.1450577621595377
Ni 1.669728904723259 0.1826289622130506 12.046296764707211 -0.7242435079796623 -0.6587353989745236 1.8364479710546049
Ni 4.869549236421007 1.2377943382901533 3.7687695042944087 -0.5812755169241473 -0.9212177780483038 1.2985796174714992
Ni 4.100431800694407 6.047720280764539 9.802695730804352 -0.907771679845727 -0.03905891367467467 1.3986626362380299
Ni 1.0403965063282827 2.4583610952821955 9.583879625391338 -0.9756297771402811 -0.4908485331901417 -0.02737453535821092
P 1.5548998818416835 2.2893223706499244 11.635821972857926 -0.3286191228018534 1.2855405248993539 0.44932881667980035
P 8.065311679590293 1.3549843144973803 9.167128017786434 1.7596874290640985 -1.7607729488187933 0.04743968153920217
P 8.534993831812033 3.955915634237553 4.677537329233279 1.3612816244864103 -0.0855359741902914 1.7902655589612717
P 3.4863349292290238 5.4810822601343165 6.225206791515156 0.08212977672221985 0.11934392387867189 0.2266113762087839
P 3.8456794033722836 1.829120921626502 9.338620842731032 -1.5160823465107953 -1.8293350141589075 -1.3820340265424134
P 0.4432164187896261 8.879296450978194 0.470555520502753 -0.9757845575505906 -0.14595535581861316 -0.21298247257143962
P 2.540348888505005 2.0078247989356575 5.126292765864257 -0.7399002406803128 -0.2772968183787934 1.201619717714982
P 5.418249545260638 8.912460467224452 0.9339876021432678 2.037342402113259 -0.22966481832312702 -0.4323952741492553
