# total energy = -340886.9641791152 ev
CRYSTAL
PRIMVEC
9.12014185171304 0.00000000000000 0.00000000000000
0.00000000000000 9.12014185171304 0.00000000000000
0.00000000000000 0.00000000000000 13.34824947805095
PRIMCOORD
 96 1
Ni 6.119204633914358 2.169499293269366 11.063349242634503 0.5077386240772611 0.6198916866344486 0.5969985840863589
Ni 4.760759536670068 0.5476143446893915 6.00640489808531 0.03673926440256253 -0.9505358102861308 -1.967915674780004
Ni 2.5736948506024966 1.6802036942955076 4.640425651832401 0.83283353577594 -0.9215965015439612 1.5949172545318273
Ni 3.72656283514465 4.425603451550024 4.659233207921942 -0.28925579051288247 0.7488037138175297 0.633586924733354
Ni 3.6566751897590635 2.7173097210040127 2.800329458336709 0.9332919356040186 -0.15012979891127692 -0.6850701802143105
Ni 5.136190167271351 4.724050966569978 2.544950900196422 -0.831740045601445 -0.30341048474670973 0.6389846987101576
Ni 5.1841256317300015 4.5581191095759355 11.3858830517251 -0.14411470306544857 1.611330148672212 0.4053704088209793
Ni 5.901962860054949 8.016285296403685 12.237741673460686 -0.8737585561250759 0.11695896858626309 0.038723127601810736
Ni 1.8200793066247167 6.496358971285559 0.33165577475869834 0.9303549644628817 0.9042844926280749 -0.001632650507416543
Ni 2.86813862344259 1.8652331278832364 0.28707561040932056 -0.8741349656278881 -0.17077215775197685 0.38191603445278094
Ni 8.175249365184941 9.041580739688683 6.923496244913541 -0.42406335724479227 0.3073836104618448 -0.04442917684765252
Ni 8.68707171400904 2.653505210092156 1.223270917930386 0.31639764103499707 -0.4144726282325636 0.10880085825550294
Ni 7.040074455423948 0.9751073038413238 4.962598303314063 0.3055218746627577 -0.679634611021036 -0.9502658444541957
Ni 0.9789104029051094 7.56994556455316 2.4409137964548675 -0.16100273707003884 0.36306933405992314 -0.07631908357771372
Ni 7.9907853803788775 3.898824070436695 3.39140310196795 0.15997249603331157 0.6465411709011769 1.6143026010369748
Ni 7.4819544380126235 3.8912817133006024 12.417262541497992 1.049562105653373 -0.7165204283037918 0.37332546457029253
Ni 8.607936245000722 7.080978290678333 9.397393945622815 -1.0066334246106472 0.3879560699992738 0.18507674730010706
Ni 6.986292980174203 0.9658959607851524 -0.22879972935949458 -1.075821296460218 0.45407455889490184 1.1780714980813969
Ni 1.8907695244746028 6.452336047590373 9.450533362901119 0.9302644616316044 -0.6458487728198425 -1.760537949989852
Ni -0.14535955349720506 5.131785138859341 1.3849609970477699 0.5142597130252304 -0.14218894679764543 0.4632369421204603
Ni 6.666121287768307 2.3416054861535356 7.012262583493458 0.8932220641663261 -1.6558032913839227 -1.4323942241625203
Ni 3.6350422137895206 4.607431715422192 0.4103881335065367 -0.8154341093525699 -0.30445872350556596 0.227601250925879
Ni 6.292815650169091 5.629133822901119 4.725574030223821 -1.3465797994998616 1.2063814007696836 -1.161752449206399
Ni 5.587664538865068 3.3079665741623163 8.70544788739902 0.5364524470721858 -0.4181932716172604 2.8302744737085703
P 0.18582927000953686 5.629772232815903 12.54661989447405 0.5681780603102409 -1.1246743134071793 -0.9065231521506065
P 4.187248549794538 6.5252150994338045 12.549343168767685 -0.729543322926021 -1.1516462140103325 -0.10811848747649765
P 2.343894641705119 8.83578474358719 1.038978391787151 0.49501423453205723 -0.901085526074803 0.48701219016318703
P 6.26420576584512 7.561609755094407 5.832971724592554 1.5995385553539228 1.9629408472732326 -1.2584508677714135
P 4.587695728913721 1.1166427819489717 12.50226408560901 1.4123126229212968 -0.06825096185759859 -0.5929128440527596
P 4.074833683942687 6.310827929907644 8.159811701431295 0.007838522207812306 -1.045330584070529 0.9648913076768544
P 5.010204530659517 1.0492175748061248 3.712267925138468 -0.2255464252793793 0.11411738537240991 0.041789939452592545
P 0.37871570561993056 5.871811671793857 3.665615664608534 -0.6855849150671999 -1.877796966315037 -1.1184918387455511
Ni 0.6414879625875821 -0.12142374176361902 4.901062883642181 0.3631274409913681 0.5318843680855291 -0.16013910351816293
Ni 2.0814808063039103 6.581212769102014 4.646605459807511 0.8897310202939323 1.2017446733286206 1.2018012375981688
Ni 6.357140009154414 5.900412435976188 8.874263533179558 -1.4812351569246234 -0.5303483910569768 3.26675651633269
Ni 8.527861401403511 2.454065952713585 10.123765802494262 0.018286457014013668 0.6664075708078007 0.08133402029380186
Ni 2.5650124757614323 5.348041937421654 6.854473188955406 -0.026830747039598955 1.5118132868217964 0.10887619157812861
Ni 0.6096522841656241 9.033445573346006 8.848728048602357 0.42586492922990526 0.9515295416579677 -0.3514173516432916
Ni 1.0567690520838575 0.7797894384697664 11.015829656634626 1.8148167659380747 0.6625640286919945 -0.22157458511582487
Ni 4.1639739483298355 6.950423463104973 1.6131888935264507 0.24726659056529024 0.798023112964974 -0.5144561453067528
Ni 5.550746205507264 7.978026302224834 7.886398975212519 0.6835424307158744 1.0484254209457686 0.7831418249777674
Ni 5.580523467961126 2.966526711452469 4.59329275983805 -0.02221201732066497 0.36905769043287406 0.6696407330331177
Ni 1.0122354004568426 7.544892535468701 7.0052409864449965 -0.24275893250292385 0.08962685643021338 -1.3452698224391864
Ni 5.298036200810775 4.838289860749784 6.9725644309638515 0.3762634641526939 1.0884346143488546 -1.1490663690982985
Ni 0.9372769563195426 7.394510519970473 11.307715229744764 0.3440663105948591 -0.18106634058913335 1.2188453375646493
Ni 4.894351371409472 0.4480032456856193 10.13730100470185 -1.4727482024995344 -0.9994196804710271 0.10437753237682668
Ni 8.143356229870651 7.244958437361464 4.571214720956486 -0.037361985588225975 0.6050078275440807 0.4559866883159502
Ni 7.4654652219279125 6.430648350770991 7.129980811708838 1.7910793131118186 0.13462039042176815 -2.1126057907329487
Ni 2.6151550144969082 5.344120276516551 2.638722372508247 -0.8484712423131968 0.020035064274004206 -0.6214086374996073
Ni 2.529015276709245 5.097466045868872 11.639085544070136 -0.271429560964739 1.1325570585893656 -0.5003294760973835
Ni 1.2541836380183988 3.410704969734367 3.7966027868956194 -0.27981264282211166 0.8244854209215607 -0.2318129750143814
Ni 1.5155760175559525 1.0369327440173497 2.5692177730715318 -0.6837229221577967 0.9674984062823982 -0.6329405493986067
Ni 1.473167358931005 3.5735998195623653 7.891111352397791 -2.1983595373610005 0.6428318403703897 3.0333833959200405
Ni 4.18917289968053 2.873300623610702 6.947256037913479 -0.4540120810880826 -1.1030068557360746 -0.701914762575475
Ni 4.222552618082102 7.04931315890504 6.072198511888802 -0.7253231141970863 -0.46686682556356374 -1.9277385883404867
Ni 0.4535145472785345 0.3691641812805956 -0.008146110512645863 1.251439983671219 -1.2859657853622304 1.7693804879821464
P 0.3001301811524926 5.799096782499942 7.894314346141679 1.2272716139551316 -1.539005273855556 0.29057142400051245
P 8.9530515247914 1.8501119330444917 8.029719265039072 -0.2744423796491338 -0.7814232996247639 -0.340331269032459
P 1.9403101338618534 3.5051440364142237 10.262654615498048 -1.169212247918554 -0.32495118703196296 0.39491604625687465
P 4.2716919412372025 6.533131382377127 3.796776069586775 -0.31662698343698376 -0.7313456662420824 -0.34709249901569256
P 6.9077320800891915 4.185287719341987 10.217857391777642 1.2666845685351151 0.015361827168050962 -0.35226890101030944
P 6.61406351928848 7.996640511311612 9.870803169874351 0.21241940097911802 -1.029863084562549 1.5996385712668968
P 2.7099953674089146 8.77455211261775 5.699809448524381 -1.6474968284007563 -0.006567625915188689 -0.694562693085778
P 6.8756656620837475 3.984617242842046 1.5400946063403202 0.8404357736032301 1.1035722413212414 -1.66040916558705
Ni 5.377527355343043 2.943398032254003 0.15352116825063855 -0.1328023633764229 -0.19897510254875408 0.3923341444623114
Ni 2.1361560554343537 1.458702814290324 7.158505878715558 -0.7124591137502245 -1.7425145168292377 -0.7908142539213606
Ni 7.021670009594885 0.8690081360750165 9.182860853830418 0.47942563606518085 -0.2918178948131039 -1.474804313697615
Ni 3.0978111503570114 2.0626568339594176 9.193006099390502 0.7089194760280824 -1.4557560388169122 -0.054305041200467766
Ni 6.470922896252231 2.1761296362414817 2.5111525672935846 0.2511702964950706 -1.5504919343389167 -0.36349896539817395
Ni 4.189802189453674 7.13916479434009 10.275535903550065 0.5417522620185443 -0.487499928432883 0.030304050300180064
Ni 8.265867092517732 7.212426892132392 0.16088385859642784 -0.010344833569433796 1.2662377108056837 0.694650624813894
Ni 8.074034033266733 4.069252157259146 7.941086992541258 -0.4246200010792106 -0.2471105246034002 0.5190782174597964
Ni 3.120392621057091 8.538431645564009 12.210017354889938 0.05877336138446652 -0.04211544111281134 0.401826657333779
Ni 0.10031790998085473 4.767025073976592 10.203108298717801 0.3404102018995105 0.3410858878102964 0.43271691915473215
Ni 0.11452800266978612 2.523023343651914 5.932442373415073 -0.6492709111275141 -1.4629803244794934 -0.509694205141735
Ni 3.729681923585452 2.8286392900007304 11.392997674218288 -0.7221218336509693 -0.54609459814764 0.6768303088030214
Ni 1.0493270165058022 3.444002606861181 12.756013786452433 0.3778935435569492 0.6632016622759933 -0.20754844604006192
Ni 3.1185503524458564 8.357059388773829 7.762060436180828 0.3727112280250613 0.39224698406514386 1.5905224678982415
Ni 6.23520371543064 8.165755297737936 3.360649072344469 -1.514501889397553 1.1237572009095487 0.730558908674729
Ni 3.3154177298820113 8.750912705487456 3.4494008186977627 0.3933600146236645 -1.1477322236679073 0.3400314784038531
Ni 3.6316495210995248 4.431704826307032 9.345282368307311 0.22923030188886973 1.4508953682905013 -0.6672969153912894
Ni 7.462583257169745 6.163254918034466 11.450234771135342 -0.6198749744639003 0.007488852177877425 -0.8450527035499511
Ni 8.20874764542783 9.411894970830055 1.97977207472299 0.3404379698136524 -0.21106905759881067 0.9624194490975941
Ni 4.5673030922071876 0.4723658800479468 1.4616066673884278 0.6754781656505012 -0.24067042540501135 -0.4675761929257624
Ni 5.871820791935497 5.4967914475663635 0.24323144149027248 0.44952653451290325 0.6072927669235154 -1.1193403027887754
Ni 8.182290114530845 8.754387479452209 11.558702439685499 -1.3398535365196216 -0.10470329114736161 -1.7055322831779334
Ni 0.11879714097136419 4.832051683868178 5.755030994139047 0.20529153168508515 1.617624723431672 -0.37986429413007483
Ni 6.849609417418915 6.336665291173123 2.1410727237923557 1.4133822018363917 -0.31856328122774813 0.7102453939283575
P 8.771834310409098 1.6549865026615331 3.7426224925581266 0.0023448460830927356 0.13572082257479853 -0.32253332161908965
P 1.9849714674718253 3.4755491767931583 1.6880059754683339 -0.8265621009449313 -0.3359218271108537 -1.5464103080703753
P 4.9801992646646625 1.0300105565127613 7.967222582438358 0.18280466343647872 1.8450963907582223 2.3814696478530406
P 8.749289320275576 1.8613023468364938 12.215690082989878 -1.28959592591565 1.21865070505534 0.07134579873283842
P 6.58741446541706 8.289150814124074 1.1513996417381493 -0.8421167608500786 -0.26730422594245573 -0.2645747428264347
P 2.345828111732751 3.389746884246167 6.072078126019156 -0.6366041142931229 -0.5131479680182904 -3.1530268533170016
P 7.12102483261858 4.082731726602732 5.772209692931725 0.9498141016287577 -1.243811777702 0.8466141344997999
P 2.5173962162601735 8.583567226539248 9.885606983784031 -0.39851687623425563 0.5519461718324108 1.277546965170916
