# total energy = -381171.0600888003 ev
CRYSTAL
PRIMVEC
9.20189158415532 0.00000000000000 0.00000000000000
0.00000000000000 9.20189158415532 0.00000000000000
0.00000000000000 0.00000000000000 13.46789847486599
PRIMCOORD
 96 1
Ni 1.244749076027234 5.250038020621583 6.612240040786227 -0.300161895902425 -0.4720175165265677 -1.2064029980362385
Ni 3.417674552027227 6.991091119059598 13.127928313971685 1.8945847272963368 0.050937410279815507 -0.8139742369775917
Ni 8.706599766469296 6.701185524806299 12.410358367176311 -0.3429723061997319 -0.021880859233491347 1.3181649958025943
Ni 2.355785465493773 2.133541380034142 8.884004874633975 0.810113725580921 -0.33997517124462096 0.38758917357815825
Ni 8.917626746091925 1.4405101175173047 2.7431418521552837 -0.47443152528469906 -0.31422583019465883 1.151736459731294
Ni 8.858504592685243 8.023432931727083 4.667812255764181 0.6939034622352244 -0.06741715310239356 0.015421219651076668
Ni 7.730821981349027 4.499301696001509 8.219364208211399 0.3731308320609832 0.653463866162939 0.06896804252928122
Ni 1.9987796778332354 7.158666766637659 5.008010788452376 0.5828896554888027 -0.024084037532397233 1.6245499897965956
Ni 8.747428559413333 2.159030619712975 7.355950721184354 -1.2777673087118382 0.5003958105589446 0.15549620542951284
Ni 7.683496652948941 2.170256927441559 12.456809515876223 -0.6743990736537094 -0.3835589693728427 -1.2319849602704007
Ni 2.1039941061681735 0.4389099842429774 7.219991852888784 -0.018778823269399916 0.8416562762738925 -1.0787171299507745
Ni 4.234673697920685 9.154271791875516 7.327452462958597 1.7237552339438635 -1.3895743007835164 -0.6548520047597174
Ni 2.694139018920017 6.929107177371288 7.311735632138579 1.0824367448942067 1.1307901964969298 0.8607798844772206
Ni 3.5688064193503877 5.551666824748828 1.8100452007542682 0.17464552466445404 1.5498080208980147 0.4168681250479337
Ni 6.001455285218635 5.168343627167184 2.5110084938137605 -0.48611256116705315 -0.6963408680321233 -0.5490048298158996
Ni 1.9484453308862255 5.12673267343878 3.467741123929235 0.13848373003191636 0.20295002803610207 1.4726538430135154
Ni 3.7103315118631865 2.1213304699064124 1.474573679771133 0.8483773970478098 -0.24155308512028073 -0.16409191751832383
Ni 8.513129995982846 6.140643097269909 6.442409929770867 -2.7284179079813846 0.3708232669737291 1.3939055811690189
Ni 4.397602390250439 6.215270437990247 3.941393770024704 -0.35520175838638823 1.166530587321333 -2.387545164623159
Ni 4.343697709370077 4.219131703040703 0.12075918378239385 -0.30684727834240055 0.4487868281334013 -0.9109086828128119
Ni 1.8446111862884087 0.8061179090991549 0.19800630303578756 1.9206284596582666 -0.10881782753636744 0.6897493308575346
Ni 1.2654073226261437 7.283794088353462 3.0023720206348075 -0.49700272571699566 1.6588544195054205 -0.339943289565421
Ni 6.4109118548897674 7.148774733188293 7.031158915569903 -0.7702055765320736 0.37043117374163304 0.31686301070718975
Ni 6.7762821619972575 2.668447337626406 9.418370681190446 0.4354520586977081 1.3865167449041156 -0.5694669543249935
P 6.145492494132994 0.17738670438151707 12.623972918711464 0.7248798560120806 0.04543936327972174 -0.14676910996916012
Ni 6.092848472399202 7.6705311877115845 9.379004068818597 0.006833477982065651 -0.5692435254602778 -1.9286009363407817
P 2.4209256559943 8.819957868853246 12.003399190880211 0.5310127641138531 -0.9158927662909645 -1.2987891623791439
Ni 0.6837824412889689 5.641753343324921 1.6079458963433382 -0.6210288855626853 -0.9345911140314164 -2.0438277527272866
P 2.3690085836953916 5.173570301585083 0.10243545707753449 -1.3523478123318904 -1.5183572585879013 0.1518850910394868
P 7.38808832753032 -0.25442494069602645 3.5379764017980544 -0.9043292298230812 0.5902036726517126 -1.5206051740818134
P 7.339741589164763 3.989958593220725 6.09745677970287 -0.029856935460432454 -0.12460157273318541 -0.27285472344703976
Ni 1.4121406857736791 2.947540709272258 6.256875870583705 1.4679070723571492 0.8784024826549904 1.188043007471812
Ni 6.692213680515013 6.800179474432612 4.671596073582208 -0.9034036326850182 -0.6296274258649738 0.40758592841505936
Ni 6.407203492582703 3.5120675558631365 0.6346112134377729 1.8062375089094957 0.19595457055487542 -0.9141667847387933
Ni 2.097893252050099 4.133646130255014 10.52672471926118 -0.6626542744129555 -1.7400382873746032 -0.11731275238125603
Ni 0.5116444958651438 1.0748361479876476 5.453286641290955 0.20631971583928338 -1.0937364861777423 -1.3678945018172377
Ni 0.7407016618512037 3.866809678194796 8.748181274144644 -1.6270488449590497 -1.5299326221303264 -0.7828877999854323
Ni 5.403589985430496 4.351592932346408 4.73317145128433 3.282907672171256 0.4613268695819409 2.021207444224609
Ni 5.63923202503178 7.657298867618385 2.176533537688827 -0.22489799306210304 -0.4550580058540937 1.4139892392927713
Ni 9.010317399985384 5.6375112713061695 4.400070337572411 1.2201159767469565 -1.702169537353288 -0.21102406329348816
Ni 9.300811915299855 1.9633431933555507 0.6332686574561335 -1.2421932682619703 1.4466571618394375 -0.481327481073584
Ni 1.0257808639703698 1.4801334626642562 11.53948398645555 0.5830336372658346 1.5987610537579497 -1.372054032511566
Ni 1.7795630147036896 7.802725562161447 0.8329036953017236 -1.780734479542385 0.1870446696597553 -0.7281654687418879
Ni 7.573377616401433 2.2044603584474154 4.506062325745927 -0.828255172376638 0.4799514266616637 0.6799675688804224
Ni 3.512049152079975 1.5105181086640782 11.215810210668167 -2.062777554356912 -0.0482979157744394 -0.24481581503195257
Ni 1.6730695234390196 3.2978935293198726 1.8850617814884747 -0.23703128599052725 -0.021540702285253222 -0.33674509434309746
Ni 2.426483598509107 3.0386578397054005 12.813385575199936 -0.049724106698004686 0.5013018673129818 0.4390145792379858
Ni 4.684765820812658 6.126094906680654 8.576222765606643 -0.8445932474150293 -0.7592089683112537 0.12308230787518157
Ni 2.0083772507520163 0.7819380985922706 2.907356048738877 -0.13994745906163641 -0.3419083837115918 -1.1466919553288508
Ni 3.7683310344970082 3.739694747897539 3.4276613649598753 -0.6866786623520109 -0.5078152429514673 -1.5480758686982565
Ni 5.8606663440323 6.156728003753158 12.697817178458275 -0.40448363534065185 -0.6868031037450172 -0.4098194457312684
Ni 7.207519609040159 7.650802332162336 0.5175171430720144 -1.0248214083735834 0.45794149804947587 -1.1024355566136368
Ni 4.85976739489643 0.5329303114698647 3.1877846148531037 0.23361480410981056 -0.10713452629667355 -2.169352865716006
Ni 5.055859704483409 2.1216985455696444 12.809048723697902 -0.0769592882648739 -1.3229061100320056 0.18722696087389046
Ni 9.000775038416089 9.151870098172926 12.544431767886975 -1.3239813453740554 -0.9744797226962378 1.4588747869515521
Ni 4.5901703753619705 9.016528676802428 0.6125183919414154 -0.9783407483135408 0.6255499133614905 -0.2145678147806885
P 3.300120387082427 7.91063614472956 2.2575966813807806 1.4266850895928849 0.42341826746162564 0.7757586451398188
Ni 5.943179705837389 -0.19583281624440116 5.217894893140668 -1.473268593779379 0.3812452336380015 -0.41815779039363465
P 6.744830096574063 5.793658169540869 10.650575738614725 -1.1168489038254894 -0.016345274127242817 -0.10421478154671729
Ni 3.4013411944712955 5.287609343946014 5.6541473710951085 -0.1428003551293992 -1.4311472391292965 1.4248490648254106
P 2.5799159387274697 2.235802001171641 4.46125463488235 -0.6739298473267749 0.668729534072758 0.16623030401756533
P 5.844977118887026 2.8723336493823286 2.506496806371691 -0.6538137933031901 -0.8481048601127136 1.8683193658419048
P 2.7673492683369108 6.204154552960634 9.644012105021709 0.37511058149517335 0.571173395493139 -0.275432511476545
Ni 0.5280422666621404 3.3543379322765374 4.103304733145621 0.38522581555230434 -0.5479979858179401 0.24710409684549706
Ni 4.37295972459704 3.6497002482372545 9.661709182909917 -0.1308616947102843 -1.3929627576397752 -1.532299579700606
Ni 8.855081489017184 8.672028259800207 1.4643246129284313 1.2010864709193314 0.6475942947560395 1.2320106713020138
Ni 5.573410894554273 1.0856299668119334 10.497755324186485 0.9737150766160715 -1.4967944448154609 1.3858156050720327
Ni 3.7330877897425205 2.408696342083409 6.637559045470814 -0.46207557482250744 0.05907032379959503 1.5482082805110629
Ni 6.175969159048623 1.821468428962681 6.654367220632315 0.2662179348568125 0.6888268190432654 1.2504218268193497
Ni 3.0424674228198545 8.87603419614668 9.57291460991177 -0.6429832783465894 -0.3741399900517879 -0.14409310579889378
Ni 3.8446515232682144 5.322686954652047 11.240294603786374 1.691392501342442 0.8977778018578086 1.3011268093733852
Ni 5.727938259870752 3.878238427538157 11.422636526784157 1.6180363570477942 0.6026817505140654 0.5197947839108468
Ni 0.5500366279185834 8.052225650483425 6.897220782665477 0.5729734248163552 -0.04446542940222665 -0.03617387881739576
Ni 7.0914193429651275 7.944968402217548 11.223217733390715 0.8400002287277082 1.041707899716277 2.5349807045317245
Ni 4.5754013393747766 7.766764569863656 11.144982330981543 -0.26022083673311314 0.7767945426035009 0.5756933948506795
Ni 0.5077465745915143 0.4889995608739378 8.790833881999996 0.3305847311686565 -0.7640477844607938 -0.18482169386650749
Ni 8.185119368693428 0.8368614288706284 10.326362731980705 -0.5899409059086292 -0.8950884279511037 2.2049960688409125
Ni 4.913377615246207 2.1703673501405283 4.7819525189325 0.4858726772421052 -0.8225432095935253 -1.440210120662513
Ni 0.5453160575376298 7.937478062470772 10.709107130581916 0.5026966907779793 0.45273809947166543 -1.126547362060176
Ni 8.72799416439467 4.388621344067572 12.740146799919142 0.2665742897549667 -1.2872621355761509 1.7933987052736147
Ni 7.897790304082755 6.5773556698033895 2.798979850456774 0.22348722875750543 1.2843058811613042 -2.7507119434928953
Ni 3.2202019587031256 0.2442780148498715 4.827042707867609 0.18185181260490615 -1.3977262404666895 1.8848142781731343
Ni 5.536584924447887 4.266530646573436 7.342159846272199 -0.8742401237471848 -0.3185900207006255 -0.23457845357466053
Ni 8.790401393095697 5.1592797639600905 10.615235873998637 -0.0057960378564867925 -0.767721119547323 -1.2676680154943072
Ni 1.584823383179088 6.015055680975067 11.807199219161735 -0.05733894293078511 0.49940722139343025 -0.39852356110247494
Ni 8.269445503139936 3.96912551068178 2.401919148934145 -0.5670004950623719 -0.39611109500624037 -0.4510113465885458
Ni 2.818907466864168 4.3849589912184115 7.928335983185241 1.623410991096146 0.3094461494178284 0.5659643404883736
Ni 7.7743101209599175 0.12829277241959988 6.386490954823466 1.3363390956084598 -0.5454117131480025 0.48593926881398253
P 8.364445831820179 7.6674577559235955 8.474042200925897 -0.8926944737976303 0.3585197670160277 0.17702765174338542
Ni 0.7995367162405624 6.164706043753717 8.856449810295251 -0.4819406891775507 1.1929710409010488 -0.7542194855164623
P 7.374874411220282 5.441170510646508 0.7171153733512813 1.1835906281274133 0.79804728133469 0.4991891918453532
Ni 6.999501647964454 0.40265913236039147 8.553664328396296 -0.6145702744215352 -0.3671105940088323 -1.7148985548841822
P 8.776046442229639 2.7992522264475657 10.473634405785718 0.4616785964944049 2.073642264985558 0.08313404961701812
P 4.3561938781368115 7.422144528270883 5.580841422005774 -0.024953327511227995 1.1090363497596059 2.139145231784374
P 4.925386083759159 1.5347466891963408 8.533152391873521 -0.7683536109249992 1.4404106667090935 -0.2165660761576399
Ni 6.8228989447456225 1.0895959820832608 1.1553002485376913 -0.015775517666701863 -0.32166583141247185 0.7082584454053158
