# total energy = -340889.0926975075 ev
CRYSTAL
PRIMVEC
9.08516150175905 0.00000000000000 0.00000000000000

0.00000000000000 9.08516150175905 0.00000000000000

0.00000000000000 0.00000000000000 13.29705220002556

PRIMCOORD
 96 1
Ni 6.611608129966089 2.0336134512928155 11.370203098816095 -0.06622081880144724 0.5081677411948796 0.10150895257978002
Ni 4.763023076535261 0.3953153615560436 5.824560594525453 -1.0306321015180895 -0.15530285847178416 2.1858781170645387
Ni 2.637404195352024 1.609654392752618 4.809224756515982 0.47576284250161294 -0.3094489776313058 -0.7751179262320265
Ni 3.4891108247523857 4.756472675137909 4.4848563291514365 -0.13084986763574238 -0.05585901595114896 0.37499925272828966
Ni 3.684496306654571 2.878433528322589 2.4819743449414045 0.12962293720717677 -0.37355969206828565 0.6068762482113871
Ni 5.031162531239117 4.824502363991418 1.867251426122924 0.020184959588307173 -0.3964687354559753 0.7984943961744376
Ni 5.473273742333976 4.348512585891385 11.781068622690738 1.3045849431253145 0.521205033994812 -0.3833509671270946
Ni 5.508097166128781 8.07744441714298 12.35591313388988 0.6221498865410059 -0.3658852062421634 0.5698171385755606
Ni 1.8663919698508165 6.6320134025575666 13.519910377038087 -0.3279462651045449 0.8223380355612547 -1.5041493425186354
Ni 2.9562842766914086 1.6351655260726838 0.026757617469465103 -1.021801390600337 0.20629529035925118 1.3940549622626894
Ni 8.083885796603067 8.899160928633963 6.4834165020650465 0.4990426389651599 0.781789424714931 1.3011304089178106
Ni 8.89651714665528 2.623367620929124 1.6515869553732603 -0.931855460267808 -0.8158416292036336 0.059256728778788265
Ni 6.646740449249813 0.9760098082056113 4.713007445782545 1.589576044824572 0.25198276509403694 -0.4789037021234397
Ni 0.8063235224652744 7.652204350839916 2.5149516639318517 0.33372173413574135 0.2642885790445835 -0.32303365829427594
Ni 7.839004355182464 3.821736755348629 3.975792020833562 0.1134373285862498 0.2715804847203065 -1.5481105785909337
Ni 7.797875829349152 3.8075184776969544 13.038158789553586 0.18730717929252258 -0.1004098059783303 -1.6816598474357103
Ni 7.836524106109679 7.462824160648757 8.910314781332339 1.6464552745101193 0.7106518853381567 0.20012027189679082
Ni 7.121094898290866 1.0860401983905537 0.4101223576689508 -0.016790074974145277 -0.5987230229766334 -0.24616204464720184
Ni 1.8762402848504431 6.711980993541619 9.105674824782497 0.4926490767339903 -0.44981912605265756 -0.11267808182272208
Ni 0.5039911541704651 4.999573424916514 1.2586455465011674 -1.082301247757607 -0.6264366868418179 -0.06686282326082034
Ni 6.660313680439335 2.2357946339512007 6.912871174759555 -1.3110808352623033 -1.9614362377032477 0.4562412275289175
Ni 3.3195272013363066 4.259596110890144 0.04548395222705762 1.1120247429639687 0.6688488332594417 0.7589914529838089
Ni 6.176029149945705 5.723951516752515 4.644779700409671 -1.130176731282647 -0.1861751225706084 -0.4402278828197967
Ni 5.600783983127112 2.9680495607546153 9.391867403781331 -1.155829398853745 -0.009293252376467866 -1.0569627689928183
P 0.26116386775116723 5.449843110983388 12.22316893159187 2.0078294802558068 0.4919114272370173 1.3416556227253669
P 4.29995239800116 6.073693891499402 12.267993301098473 -0.03667832925764006 0.4564895960942976 0.9124480022754737
P 2.3513215468065987 8.668634042286614 1.1432921602292498 0.8805853492389221 -0.2549981548815931 -0.36741424129218014
P 6.41891185584978 7.953195749306363 5.681244898377289 -1.131662057578922 -0.8239004949523681 -0.28960263232933997
P 4.913437009315536 1.1460113490478738 12.495758298368433 -0.06584749462242853 -0.39840169081263 0.12199087458321572
P 4.359096798967553 6.255569738342136 7.9850128931810795 -0.3375056266582058 1.4007285176281232 0.8451573474486155
P 4.565293622981874 1.0066722280614597 3.833087756050228 0.8539757170711938 1.4579913559053341 -2.3546211602016287
P 0.3402756365276878 5.577562310489616 3.5077753804121943 0.10132563292438033 0.23318620121282418 -0.5765786256691101
Ni 0.7951996507996445 -0.1396961678309576 4.844741378128565 -1.149843099363323 0.858638926874818 -1.6204441951583384
Ni 1.837828222287324 6.733621848088769 4.534999152164295 0.9046974117957773 -0.1665041265042423 0.9005718196631781
Ni 6.501568654619708 5.643865818669759 8.97699986629291 -2.5755282869367835 -0.5510259740109864 1.8873213608657045
Ni -0.20898778560831174 2.3848094518699043 9.82938061467203 0.2769255510823037 0.07916195234314753 0.927568659966996
Ni 2.4437903199303985 5.610368828445014 7.029446515244987 0.6838422213444804 -0.8524135147903965 -1.1497173724187362
Ni 0.6215694964787375 -0.14608757890313223 9.007529642791754 -0.27633753978931763 0.003987009672206036 0.5006642337289828
Ni 1.621892105210641 1.5492198988619206 11.259172432356744 -0.506630735725063 -2.262982415547709 -0.4393796758868885
Ni 4.128188335839776 7.0259914283498235 1.062128961999855 0.6826443443816373 0.795285916539469 -0.7091138514270755
Ni 5.721389501226781 8.17331104064488 7.9453607060815665 0.14086251467673805 -0.6580717972485957 -0.3896511983135096
Ni 5.022340839482071 3.01513795249176 4.725825700056506 0.5970682609820298 -0.12920821826726137 0.7784991839994334
Ni 0.975864445622591 7.448642223642837 6.7682526664610725 -0.6129401950172798 0.637128105117393 0.1461813557864902
Ni 5.054865717432867 4.5366390238039935 7.090227153786501 0.4797531946079286 -1.2065940310011218 -0.8684307161542593
Ni 0.6862549374066352 7.4708191027148745 11.112904967257123 0.7563838401576329 -0.3485384874335997 0.19014567718258218
Ni 4.624874111697327 0.2988382152054582 10.19201755904896 0.11222556766633575 1.2482153060863341 0.8604569539201633
Ni 8.187729191848208 7.096246981755831 4.752432503846088 0.8550573801711466 0.2865283642793904 -0.04026681793984678
Ni 7.134350148830031 6.141632728738522 6.929253537865945 0.9051607245854411 0.03314486218308485 -1.6711394075203605
Ni 2.475679236580481 5.780988160265112 2.281122321401511 -0.25645339927088084 -1.225561059021928 1.118445301778332
Ni 2.477051095957735 5.474836390101444 11.205837992130446 -0.4985896105881414 0.42014113937225067 0.41020254010230006
Ni 1.1981874311907292 3.2479452143602385 3.5781971922725315 0.17869166970936967 1.5576848525429303 0.22588298268319162
Ni 1.6224917258655998 1.1628461531939143 2.596794432236866 0.1887184578177524 -0.7677663709629616 -0.5941140634497123
Ni 1.4130878398633926 3.583487481778327 7.873330820646568 0.03129701034106868 -0.7689863594129918 0.19083241883696167
Ni 3.6394248207568336 2.427982139026939 6.8362405635719625 0.44844949939864065 0.9246985375080525 0.4902348108655428
Ni 4.189340557484137 7.119995593756776 5.926097267281289 0.7256954099348405 -1.1611600670380389 -0.6894037745926578
Ni 0.3418255650691419 0.19420077685056986 0.6755862323290878 -0.1468372442029342 0.661031651207868 -1.1128665221389737
P 0.16681446620954185 5.953270076628506 8.012564553760292 -0.7332418548235308 -1.252999614848855 -0.8773614429849856
P 8.810090005888261 1.4117250656475768 7.879274333259811 -1.663751342586406 1.6763947423820291 -0.6541164121452735
P 2.1331141393702233 3.4540784422444886 10.210806581420481 -0.8875509819234779 -1.203330529758502 -0.90146759200457
P 4.283726299671517 6.339970888108308 3.253230052769171 0.4156013425203681 -0.5182451800355397 0.607815729306521
P 7.29543914630086 4.022191757333648 10.12369714502941 -0.22627996101129416 -0.11521961729765319 1.2846640358316714
P 6.265554330763344 8.019544683293699 10.263236139567478 0.8464963779750132 -1.2678881019249133 -0.3725577331663326
P 2.6234403022206343 8.592900136533029 5.764418642833085 0.5171966841663673 -0.027856874311268154 0.08581776709676833
P 7.159452449885353 4.1363013850045975 1.7125801866924422 -0.4886024174684424 0.7721328754617734 0.8585633364418762
Ni 5.535398076252285 2.7724460349778997 0.5360136226936975 -0.7952625195007013 1.6766801348329319 -1.0162457508894305
Ni 1.5726777856968246 1.0303754142552104 6.980061394696122 0.305868459368899 0.14185470338667827 -0.1881643850864953
Ni 7.1023976360498775 0.8353615154558707 9.242155753980272 -0.6974441283986311 -0.04714400467565429 -0.9809712439578524
Ni 2.8415841135269386 1.5421153026168024 9.048524616751914 -0.21821903838003062 1.00520800501803 0.39063927325839176
Ni 6.3022038720073414 2.3343777207232925 2.6901262956973495 0.16878829455272865 -0.39626664674749823 0.2569249395906607
Ni 4.175712815325982 7.042226611840905 10.203200484263943 0.3715141223931666 -0.7125010227317536 -0.04534371824212191
Ni 8.365752930240903 7.328527304260861 13.133644744791203 1.155375342035462 -0.28301623736107384 0.5130965459550647
Ni 7.947226798241091 3.8193201024059165 8.005676184357416 0.7279726360047915 0.8492975948692341 -0.3940693819858632
Ni 3.020589049355022 8.666208304182463 12.113880799096476 0.09829327385595975 -0.9835734574673898 0.43760947136034306
Ni 0.33114504928172406 4.822449117506255 9.84848852621005 0.08079794528467377 0.28749047108234355 1.007695033105942
Ni 8.933557349841145 2.5860094370929025 5.784749417100763 0.007335357319148658 -1.7979662700396388 1.2971734811525917
Ni 3.928741786774461 2.715663775985588 11.370362089141274 -0.5149816787929196 -0.01961520312776622 -1.1931397052684292
Ni 1.3712688417607346 3.561728520132473 12.253592411701879 -1.7420105806096258 0.504739175129305 1.1369377041555646
Ni 3.3177919355015018 8.480871010831557 7.9389647524286735 -0.01558499892245058 -0.5560617366626811 -0.3710968323500899
Ni 5.648708209716624 7.9284114289013985 3.504424772873576 1.6598661485993864 0.9009387160842935 0.21111405190413318
Ni 3.400248860719777 8.355223228133369 3.1526509560289813 -1.9709886572783735 0.30155671936742257 0.04474028033016811
Ni 3.559838806553209 4.5931941537603365 9.194393243264372 1.0076117293635163 -0.000965706347378982 -0.7044383003282771
Ni 7.643491681020135 6.018038192525497 11.320618104715576 -2.384653444897661 -0.12817026392105021 -1.7734055499811392
Ni 7.939540751663891 0.12433134280570994 2.7127846883256415 -0.5231806696639442 -0.8371231642902294 -0.5477146502495663
Ni 4.7677837011291775 0.7162586830581729 1.4695366734309012 0.07538243069605727 -1.2989457425616662 0.46673955595708005
Ni 6.428914618593866 5.87760885216643 0.2797975338620843 -0.21205121900642188 0.3709374239540902 -0.16587754866383692
Ni 7.9131756131685815 -0.18647384704689604 11.355735887740996 0.25673082130198366 0.44669652126327586 0.4215768433775127
Ni 9.372706798306965 4.817179723871769 5.731587594941801 -0.7733880880251133 2.7460837006922643 0.428485654682204
Ni 7.656837783173689 6.634457310984596 2.4904844156611 -0.4863750707998204 -1.3565816479075798 -0.7058806892017585
P 8.743477602219201 1.587223129160295 3.9342119624767444 0.12037802157014107 0.47872938132910464 -0.8424875139259361
P 1.9018331846234577 3.162399334252781 1.3234263816241723 -0.24503255902844898 0.17142136130020152 0.09912811105242929
P 4.955492221615602 1.1546876782218989 8.218615106675449 0.02369065874872049 0.9502743290946278 -1.1561631280440798
P 8.58875730291695 1.8142249728693998 12.20993821098859 1.632864937420194 -0.23721074899118502 0.4807093878736109
P 6.835057675552635 8.094933352912612 1.0544810731006986 -1.1990252175149287 -0.09625207505621489 0.7261777488878978
P 1.9542182254794052 3.5786450907314626 5.614201858056031 1.858896272755792 -0.4610160232097415 1.6080620194439015
P 6.915897442034809 4.035874010460435 5.880714160346201 -0.3363684277299691 0.9432410763969304 0.15605336348456353
P 2.4426001637819197 8.585968158355247 10.013505038970859 0.24596047015935704 0.8019437881756188 1.2051117900286406
