# total energy = -381165.77400754753 ev
CRYSTAL
PRIMVEC
9.32059158932528 0.00000000000000 0.00000000000000

0.00000000000000 9.32059158932528 0.00000000000000

0.00000000000000 0.00000000000000 13.64162793082191

PRIMCOORD
 96 1
Ni 0.5791945934782485 2.2430748659877047 6.971690460572311 1.2237777418692601 -0.7694157336409265 -0.22509082579919942
Ni 6.14000477646063 7.021742035962923 6.327710300944143 -0.7193586690835353 0.19984362119663648 0.08893471545919523
Ni 8.07891146529801 5.514108428112325 8.134830352924821 0.3113598215007734 0.9692619259407242 -0.4189394057546656
Ni 4.2040806768457815 3.3922292110639374 9.017333765033653 -0.5562553407307259 0.29447487281997675 0.8477770444596496
Ni 2.7709651966018773 1.5486814920256922 8.333097039433493 -0.4292266466132866 0.1386868471816579 -0.8012418770125878
Ni 4.509097027806264 4.369446608052531 13.677232368049388 0.20016655175369397 0.7617026812673849 -0.8393901059475352
Ni -0.0815514458170766 6.021922205022331 12.42117922906022 1.1152527629829632 -0.635076621905003 -1.3792695764233989
Ni 2.21808636065768 5.600034959495203 2.7981431088330666 -0.3305245673546824 -1.4070760571127057 2.549298663816293
Ni 8.305653490349671 7.690569027933045 5.100153937858 -1.1062047938480817 -0.44609951110922524 -0.45165977880582214
Ni 3.551518116729778 4.389252864608406 11.357678322041178 0.8584116413553602 0.5077483942692739 -0.7985545599884118
Ni 2.6087216634874664 8.606820437094823 1.520509072700615 2.5177594555574316 0.09814749230671484 -0.4004575449003942
Ni 1.7289137663884984 4.2955995630209065 7.523139517807957 0.8158755677653625 -1.4539968900339604 0.36691801838205196
Ni 2.776809207359776 9.155644815814643 12.669647552479763 0.7856548212076082 0.505780986130258 -1.1718175467518852
Ni 3.827491505135856 0.7001646841076115 10.376490353150087 -2.2148302813225142 -0.4454981300798005 -0.16945678137466297
Ni 0.05754719493048761 8.77439534844451 11.42473997659154 0.9618358086799823 -1.259412203243418 -0.8398001969017601
Ni 2.539329861106999 2.407396890966568 12.003854412984435 -1.0811362809152283 -1.1208271717469471 0.9942610190882232
Ni 4.69206023542595 7.276063690731684 0.694680448174681 -0.13787617835490446 -0.7399411212205772 0.6485569157796249
Ni 7.6313087083178655 3.0480756971490455 6.843267625123146 -0.315705757174295 0.2047711404052409 0.7140981920155444
Ni 1.935756328971081 4.406896743977946 13.06706917784994 -0.5389538733378008 0.13899846488480577 0.7330847604203762
Ni 6.313600789803304 8.937664146604167 1.264918885453146 1.005326018653133 0.9946104320078418 -2.2219980027155475
Ni 7.713320591346171 7.387547283515132 13.161414999372548 -0.9459425344884934 1.3923588055071894 1.1228380315293889
Ni 6.913091902940881 1.9003567231361564 3.5610512175322953 0.9976990982354947 -0.9442798020740898 -0.9695938553588462
Ni 5.903410886383292 0.9588278703134205 9.705650113454757 1.601660229682616 0.3867993306870113 -1.1306729541927751
Ni 6.875278263953969 3.2989207713552933 11.226882464041834 -1.2299044235922882 1.6768631973780155 -0.3543350395107188
P 0.7723153815189205 1.436209916562281 4.673785352024019 -0.988194501179169 -0.984727368566175 1.052487249719968
Ni 6.86784043208028 5.2107231806329155 0.5083059041317233 -1.142253202831207 0.1286009237005656 0.6538497887474481
P 2.1161936563429364 4.176351917667556 9.676225006656216 0.919436774888481 -1.768168469951916 -0.18830322465720473
Ni 1.3071476885485365 6.473439610357048 7.701107820539035 -0.40321453882024105 0.96150722169597 0.2989866446474012
P 4.224548695385407 0.9914312987522216 1.8957085442446668 0.35554834309252964 -1.5082209414848475 1.4590658199164355
P 3.7520226772144807 3.2682653465024583 6.697547636301561 -0.5384620213030469 1.7896459230994017 0.027638073432242723
P 5.441873845379132 8.481300033782835 12.66993462669243 0.5469533466035097 -0.18739433968969016 -0.09840640239505634
Ni 4.581536663548505 1.3063461176949809 4.254823840112368 -0.6111031418085411 0.10087954652589723 -0.6861207329660118
Ni 2.1370904220833 4.540069352763992 5.205699381911214 0.7431074347637009 0.7631589540979372 -0.08037628436622286
Ni 2.232654444891484 6.180148563277644 0.7791473749567824 1.331824495567558 0.3773991204190339 -0.48538622452398983
Ni 4.679440154778113 5.1018679946018235 5.615930295933033 -0.5604356973606606 -0.9235482259536932 -1.917312507911156
Ni 9.338766473486775 5.861412301893516 1.4442386739256836 -0.6786791890863022 0.1220150429529318 -0.1736638774774751
Ni 0.16197603214351539 3.332493541291417 11.696863028723158 0.17743851402855895 0.16960282003422406 -1.5717318175542996
Ni 4.466073178271241 7.678964891739133 10.790104641821218 1.3059121465771704 1.1724580085493612 0.3830971992450757
Ni 8.100516595978725 1.5643400854439842 10.676769979601536 1.237275519245379 -0.8516031030739591 -0.28321755473860255
Ni 8.583984988359814 0.12169523263409096 3.641496309159639 0.21233532590574397 0.25126002799539954 -1.4226559138288337
Ni 9.320460832133488 3.2528118060932156 8.955742365529238 0.1612639611512255 0.43672784008633814 1.3838140012609716
Ni 0.7459390401412868 5.664589374980377 10.086114787035708 0.7353907828457336 1.3550808949923374 -0.5546134342519288
Ni 9.251003785613777 3.7895100955051775 5.238739946082942 -0.33697006586970996 -0.7271514256550768 -0.7534818360194895
Ni 7.011358897231984 5.021524497419873 5.564597139235865 1.35342304767394 0.22041913135514296 -0.28051018310976855
Ni 5.926125167431136 -0.02189872930730793 5.895134201290766 0.4392493209566113 0.7181759616293438 -1.776617629160534
Ni 9.270325371420991 5.8163938458159254 3.8504854039233125 -0.12992144228420205 -0.6932493735909931 1.327455419965585
Ni 3.653075279756987 7.613459775939277 3.414895025036915 0.18585193490323476 -2.014154651142886 -0.8982853376218465
Ni 5.814818665882776 3.0629700020790644 1.7473694692620463 0.09992361037053113 -0.047374375518905505 -0.2689412473252465
Ni 3.759553715001373 3.452850337011897 3.902460749362458 1.0721585028966503 0.9188233096741981 -0.14813282308590617
Ni 3.336883539803331 6.7257666585832405 12.492688669788684 -1.2500981249313439 -0.8406910841471457 -0.5927639771797211
Ni 8.318851447659375 0.9984776657904529 5.829626289313515 -0.9604929214988426 -0.8831050303369823 0.16706591254498324
Ni 1.2826438539671732 1.3256024593629518 10.399557884608974 -0.3295871431420775 -0.09311584342007834 -0.425606533362196
Ni 2.4032492278289843 0.2838241224752611 3.642805852240157 -0.6348804467337968 0.16154858227117985 0.2550092106251866
Ni 7.161923729421919 4.926622236595438 2.890032954542744 -1.3109952175270325 -0.6741823296572131 0.6050039708893387
Ni 1.6181198973627615 8.71287012513847 8.755005722320657 0.28416269226069124 -0.10990694683548814 0.8613905214780261
Ni 5.417230201927963 2.1744566726868317 7.390283809126805 0.6674802350466892 -0.6899136243495408 0.08465022915122841
P 5.629991339999007 6.744221429397657 4.071657443601897 0.42871551130482294 -0.3138499349124788 -0.14356422987861728
Ni 4.474685404651303 5.201738130600038 2.3406437479889095 0.9401266991376648 0.46518301010323754 0.4124802803928832
P 6.913930756159718 0.4574695349519323 7.601019582703923 0.6520993817152447 0.020252065380816735 1.948874341877837
Ni 8.86351884265029 0.7377825906767942 8.738758067530915 -0.11418089162049368 0.524442052874871 -1.3429406600853775
P 9.089198320291425 5.7780302919411115 6.210023854636961 0.19128673276556088 0.3270620627273787 -0.45275455453189767
P 1.941777430964067 7.458150762767253 10.718172046246806 0.47677791402968867 0.7662105964400676 0.3549508187178468
P 9.034402563918723 3.9772081635156336 2.7948147256725475 0.6970486927324253 -0.7983331880062251 -0.47292871548692744
Ni 3.776768847170174 8.62166813906824 5.408209733648068 0.40209610894508174 0.49537778851906294 0.2924305886964383
Ni 2.711248168011998 1.7475269872553612 5.645505464251833 0.29113938068884054 0.3553346844198268 0.19818217433381352
Ni 1.3390054696817044 7.145743182889683 5.37099540868306 0.6096959770483693 -0.9075654773721917 -1.1651131381485158
Ni 8.814399326391719 8.013126731758543 7.266813003846176 -0.1181532460046804 0.86488490778453 -2.28477894259751
Ni 4.526507892392793 9.039389080275143 7.84377251952579 -0.9465531714892987 0.24877454256938447 0.11948559166285873
Ni 7.102952348137673 8.459666941328159 10.939698268395565 -1.5931609339623531 -0.31328712043047335 0.05389597868750719
Ni 5.712450611410692 6.094510970225699 12.327611676912868 -0.03262164268976317 0.5031939421293721 -0.3227480087330571
Ni 3.4002355990081714 6.97687270934646 8.969001838741656 -0.3168732951198349 -0.6700616226206202 -0.731558810694153
Ni 5.675186887311685 8.947366882168716 3.323618474236121 0.5515198829282696 -0.9692521557487114 1.4359839983963076
Ni 1.7416736559061425 2.643151927825068 3.315338060907067 -1.4703190242327515 1.478383546408441 -1.161423862222387
Ni 4.4377479012485095 1.7302093285820357 13.40098961455415 1.078976554259748 -1.4011290955006515 1.8858365487900617
Ni 5.3959512919434625 5.347819758364856 10.087956535880624 0.38910663866394923 0.7326546148614931 0.418674325018737
Ni 8.648744456854038 7.847201565072569 9.306113645913976 -0.19611526450245578 -1.7863860214012075 2.855883946746559
Ni 0.8696409960866625 0.7711810655552264 1.6865554070737543 -0.1672356053536281 0.36530465114834504 0.8964068896522112
Ni 5.881740511563335 3.0142699124299117 5.069842442824888 -0.33203226224846044 0.9412541278738887 1.3357369432480866
Ni 5.944701105932718 7.518771888715212 8.81700722784317 0.8714962424534604 -0.5415409173386867 0.23690890148005003
Ni 1.7715275099054222 9.059465633979311 6.39766413498123 -0.8900045856702931 1.0345270656971215 1.147371755004695
Ni 7.554451112289749 7.224744514921496 2.816586694937898 -0.339311569518693 0.84681005256069 -0.7307792522156511
Ni 7.444887561318307 0.7230169099069975 12.70498005005718 -2.3322507629262286 -1.22753669469106 0.06572973809764164
Ni 7.967977787402466 1.8900947520923828 0.954111651105292 0.30757412920609606 0.5430252151936972 1.7783927187830855
Ni 0.9321802997283627 7.555569583248198 2.8328473985554887 0.0697709980465508 1.91646481519888 -0.18658315664230446
Ni 3.396386194792841 2.9024134959936476 1.5004968310765583 -1.722479966775866 0.798460971833341 0.526815181092738
Ni 6.866768564078433 3.81671690156946 8.991388034975023 -0.8383166703776982 -1.3670920605206003 -0.30163488090352564
Ni 0.3462804728542097 1.0209030085073643 12.990553647523283 1.382487312029748 0.4030294193926285 -0.6069533813062257
Ni 8.750385505203129 4.165260413996266 0.01813880276865374 0.6906070508721397 -2.114163622138372 0.8924633316234307
P 8.567627350592492 8.845343689575488 1.0113344894578293 -0.6397418885911563 -0.10739343638501503 0.42250064074336274
Ni 3.463941840683187 6.711990824611672 6.541269281632214 -0.4406747405492281 0.33157974809207413 0.8782487306859454
P 4.606702260113618 2.31469428969375 11.510996456907161 1.2843426479365108 1.391252716927204 -3.420472747043645
Ni 5.206333182121001 5.176842831183218 7.788864916057242 0.3921837349273761 0.616809448164699 0.2686756523686857
P 6.587001695004947 2.887826770577203 13.195259930575226 -0.07963657798672091 0.15359461753142578 2.811777700455964
P 8.14199322735456 5.040622389035397 10.439078123866654 -1.8286744977567733 -0.731700735588656 0.5033183835223785
P 1.2217058279143198 2.5609349917877138 0.45841464291182205 0.6178134639491812 1.4708090764952926 -0.02716576178151451
Ni 1.1094113436859963 7.948162210255271 -0.012869872495224852 -2.66883619176301 -0.044604783193568344 -0.23650163873930238
