# total energy = -340897.44008107827 ev
CRYSTAL
PRIMVEC
9.04219266890038 0.00000000000000 0.00000000000000
0.00000000000000 9.04219266890038 0.00000000000000
0.00000000000000 0.00000000000000 13.23416296978430
PRIMCOORD
 96 1
Ni 6.242259700340835 1.8908310163246256 11.29153317533689 0.3738026613170272 0.5537968518879043 1.4041460279501043
Ni 4.567157319328736 0.39299449520259855 5.988259984092763 0.1801091188821866 -1.0903506004246446 0.11660775589443143
Ni 2.711681276768548 1.418349317062935 4.850400391242171 -0.03862979655705605 0.20530592986278837 -0.4106018324232477
Ni 3.2470785533839384 4.276134344748567 4.93650195931883 0.5022187227002963 -1.0954943494091132 0.3044198998478305
Ni 4.990142055320211 4.383356666717548 2.6949649749786975 0.7959430905074938 1.476190395411864 -0.44420923606504786
Ni 7.279417296435116 6.091426882600528 2.655633244830218 -0.2896591965988882 -0.5132893786921612 -0.42091504142379765
Ni 4.974625652512085 4.546161347696759 11.51172322856639 0.3995188351362087 0.28676850531465453 -0.32439042943248647
Ni 5.714394570310043 7.911403276311819 12.434608304982195 -0.7178507170794411 0.5277407782308009 -0.20044423089511285
Ni 1.8827744225588674 6.606189875295088 0.26156260628811745 0.12436785945582451 -0.8990396992893678 0.3714601292267796
Ni 2.6768055392213768 1.5150736532159275 0.3096544128005326 -0.0870431548634372 0.5092591744868455 1.3962604545544404
Ni 0.5155162073530187 9.082520958421485 4.660185207073824 -0.10904382750424446 0.20405791638830018 0.051000916527899266
Ni 8.613448165837337 2.559808606858699 1.5014154210238086 0.19002226423084048 -0.3737031596246855 -0.5057316209495613
Ni 6.764337826993305 0.6597645003119283 4.648328179683208 0.28497438952870924 0.19811172610719427 -0.6328999259686584
Ni 1.0800537586360957 7.441046492353106 2.667160232184414 -1.2671054581226178 -0.8176653126759338 0.24733498190938047
Ni 7.74943047706824 3.78483584231455 3.834149249071358 -0.03535189713673267 0.1907977089442843 -0.5279348965194779
Ni 7.618571863175926 3.8447313272801873 12.616141175644502 0.5289983047869857 -0.3638607196129669 -0.608567776981197
Ni 7.999646035638457 8.871575643088853 6.641299805635225 -0.31853551331360624 0.6725949305654352 0.8485820568594482
Ni 6.9704003582254765 0.6676556219498376 0.5536353794498842 -0.48534740086625444 0.0966678224373948 -0.522154542392275
Ni 1.7638153343632268 6.550173491031481 9.327199982353347 1.0427983045669782 0.24189504184073177 -0.4658604957862364
Ni 0.10361900814669674 5.039268288686502 1.4029667387079319 0.34692306331736383 -0.5780068734752045 -0.18123320518430078
Ni 6.368922736783867 1.9544157159439435 6.717754258236365 0.16355429984729897 -0.28210066752533997 2.4218202837559453
Ni 3.5013269299334224 4.395843934944835 0.45247494351969664 -0.36960199297211827 0.3156985580854434 -0.14672720098763117
Ni 6.104085952490609 5.46284076720859 4.710051996028684 -0.786174184046188 0.4790926782057942 0.7703896675184216
Ni 5.5453779028919135 2.8727408145414843 9.190000982884657 -0.07177800117425058 0.34407428101465903 -0.047484161623892414
P 0.1660092340999576 5.5840061504422165 12.427660284051097 0.4092054662963533 0.2361288287809159 0.19451500989487144
P 3.998132127769625 6.324733540674709 12.515693264505272 0.004844215466178753 -0.925051292861781 0.43501419982934114
P 2.3194942493810813 8.442089570489543 1.2794422473783615 1.363319995072678 0.8818796425703136 0.314304248841078
P 6.329390269955703 7.773419414509943 5.806700891071397 -0.5328372189171017 -0.02317129591014074 -0.777404408273358
P 4.6451371898516305 1.0846291081820818 12.68663953586236 1.2367078196673669 -0.9127529351104023 -0.1032678442524157
P 4.06641876763383 5.9636787830240605 8.060200696457656 -0.5661654007555863 0.8870503881379755 0.7446344129311885
P 4.7114164629189785 1.0119027516635704 3.744275278167455 -0.291288247561879 -0.3603501353565472 2.391125939995882e-05
P 0.2029502084777677 5.6032388944823595 3.6321692678787376 0.655805112701606 -0.6038315478477924 0.2061186555720708
Ni 1.4083757784281075 0.942295951653686 2.5590635301737397 0.11464883239584772 0.9219957938649088 -0.23548348188743312
Ni 1.8687951925231074 6.320673596117104 4.993447881000079 -0.03450728974825025 1.0844296069545196 -0.4735534935551199
Ni 5.9626841418184116 5.699339319333626 9.281833492744411 0.01289433946416489 0.20413813480693233 -0.9892507103578253
Ni 8.438680663811999 2.479902749273956 10.287126401486804 0.41730649813693294 0.004481689920437443 -0.4634156337901696
Ni 2.2728365346433566 5.048138679802337 7.16215723626258 0.2778154098864248 0.22458329003516161 0.08810759157220954
Ni 0.6541212677987861 0.2758637383867968 9.179229018627476 -0.32697541655084333 0.033701763127819376 0.009032799626229606
Ni 1.4041711587860453 1.1508179593216448 11.397419965432467 -0.003141888063091363 0.5196348612942148 -0.34342327769422143
Ni 4.046218508966373 6.8009587077467515 1.7878829388821034 0.6053253587844994 0.08217374258627784 -1.1229668437977691
Ni 5.55331694815155 7.734773082574083 7.909980035168463 0.06434828436908273 0.7873736036709278 0.6892934742670387
Ni 5.246289292353208 2.803956854074455 4.918583045889422 -0.5021112505881546 0.7283786131939585 -0.7754619398350064
Ni 0.7749412392682683 7.548503911334331 7.1236058473508965 0.6767166660432926 -0.5063139758155925 -0.46854909836199304
Ni 5.1564822336758676 4.301470568914286 7.225853154853075 0.4041247093393363 0.15538204844915177 -0.7903859081346905
Ni 8.419655890205764 7.326038842401726 9.188889697392163 -1.4128322428701927 0.008800886121081618 0.08271701668425754
Ni 4.643862240669843 0.3314451931777501 10.430597970086028 -0.8000748532876801 -0.7316541986214368 -0.034346852910986006
Ni 8.195201538861863 7.178795775194534 4.719660230075255 -0.3362031057966984 -0.20747465537933302 0.2901474490892164
Ni 7.313470194439431 6.233497815538343 6.958668113095206 0.2801237463046272 -0.9273398317856416 0.47396075629586765
Ni 2.409165675166743 5.288272193424382 2.5405360771703296 -1.3030250548373623 -1.3226600554594705 0.3745647362940323
Ni 2.306726673177657 5.26790917528691 11.34069829013213 0.271171679317662 -0.09058073570305045 0.6836961826849193
Ni 1.152590229106256 3.089455048866881 3.891995773153358 -0.15040619250111514 0.9587893085441745 -0.32335324641722374
Ni 3.505314536948798 2.7148460442410682 2.8370865441960733 -0.2700077409165479 -0.9213633024872325 -0.11261226158179315
Ni 1.100217848532438 3.2179174816728606 8.374565187476577 -0.39872205026652624 -0.23198138227144566 -0.3112004131047737
Ni 3.594976920541681 2.457713208195201 7.042864491153408 -0.02966230295112311 0.8457926670397691 -0.4508092578800688
Ni 4.2479407876648025 6.8511157510898055 6.006509841777869 -0.343722296991879 -0.1689333047710252 -0.5795731895210599
Ni 0.7457403819089645 7.515156304366747 11.412718451394628 0.12189651509719653 -0.15453538417814033 0.13734704532431183
P 0.2626811255348338 5.652256621535306 8.1101334934198 -0.3181647602377488 -0.9504833597816406 -0.8086361125941298
P 8.256842167033774 1.6037594799887185 8.025540163098617 1.5169030426398777 0.8368935647779264 -0.5981627795977892
P 1.7849469388868824 3.288202446141142 10.473873904724547 0.05667174166043143 -0.6223810287152055 -0.47530929990396215
P 3.89892118860251 5.997107769726652 3.945660283075242 1.0661598621110542 1.1333389310607127 -0.7312896161931665
P 6.918226905892789 4.201897942036025 10.42695848749263 0.12637460547320814 -1.33532762362481 0.3088262564456423
P 6.293691692865676 7.810519531480658 10.18686475951881 0.1138337926937201 -0.27671369218181374 -0.19774225858291752
P 2.304782601730252 8.46460463050833 5.71705297498696 0.7198284096311023 -0.5270278113241762 0.9153600337159462
P 6.9755182393381805 4.093029940981334 1.5842220140519354 -0.6979480646182431 0.14976573070363883 0.1468693829924503
Ni 5.41674366842314 2.9596995824935575 0.2621449235030612 -0.0501460247267717 0.03029273744627041 0.1517832753542999
Ni 1.3298714607240523 1.0110166167712649 7.009514171527991 0.11998772811025786 0.5078746354344931 -0.33437505144902413
Ni 6.73337735891928 0.6816809671687687 9.133716045495525 -0.13965383908061757 -0.6195412452735652 -0.15187866328158361
Ni 2.8398814859839474 1.591859954292043 9.181452493831742 -0.0747162578669681 -0.31242554376112647 0.7578763655427594
Ni 6.107521985746487 2.2044142618874725 2.5137892709311456 1.044558996011827 -0.4808608258498105 0.2460527727628472
Ni 4.0564723555773385 6.801067214060096 10.274725938310192 0.003094579764923703 0.7518597270350341 0.05644831279571569
Ni 8.16303845914828 7.265573699291035 0.2890933706412086 0.09700000896583295 0.08568818349743952 0.10752559108750515
Ni 7.76710796395046 4.008756704284513 8.23898112363815 -0.4374081539828144 -0.30207171133062816 -0.413745520258552
Ni 3.032805711108771 8.45563477527193 12.36379165957853 0.9520771866313216 -0.3561535807766963 -0.20889801808942088
Ni 0.10205290035743823 4.89566018297632 10.271616328213621 -0.07383874035802121 -0.5120881592952083 -0.0906792089541277
Ni 8.498946878681561 2.2673388814339503 5.746365955536719 1.2084799351699251 0.2409769009018366 -0.08362821564461727
Ni 3.5809163107709137 2.565478061730899 11.560702978409669 0.06437373829037946 0.8828656606326667 -0.8095431977894316
Ni 1.1287550089417904 3.406998774866767 12.658318483860416 -0.37635165299112605 0.1673369068181828 0.23880868960592422
Ni 3.1297108911173366 8.273235662541428 7.908458234123819 -0.20823133103969949 0.1858272523128864 0.40846498858590297
Ni 5.51328716072056 7.763057061585634 3.6265974686885465 0.23513843984318858 -0.0970491170362135 0.4139674064613709
Ni 3.1253887229691517 8.318907778266283 3.541488733378981 0.20425434866982242 0.20613459641167078 0.6809237621461046
Ni 3.5526865849160343 4.155918391756698 9.309598449890467 -0.4921615955746104 0.4461236794789414 0.034733546826443404
Ni 7.351411235338558 6.234989777346818 11.250190461514444 0.08173896904170438 -0.038722356270862346 0.9780579269657994
Ni 0.5307794287633442 0.23311044249088406 0.299166373396601 -0.6409611057102381 -0.5510306019966769 0.1876537639986639
Ni 4.6546224500764115 0.2625653854672674 1.6010296419888506 -0.33415213680494066 -0.14402085780006163 -0.3775808974125368
Ni 6.1940828972163 5.671597871888793 0.22664979575055377 -1.1300420054769957 0.3461085378358684 0.7718145728904062
Ni 8.009429688224934 9.04133377031483 11.10072301488371 -0.3497656749724815 -0.6748253625578506 0.3290670089725494
Ni 0.11788849257065084 4.875468966501641 5.935588306937973 -0.5283976950885093 -0.8689048275772004 -0.23638696753830907
Ni 7.99969124660235 8.58936880646785 2.5609298387632493 -0.27762514825248963 0.8629370400295396 0.10274513897972629
P 8.50996931167871 1.6575514848287813 3.4697859530830097 -0.9952676059758666 -1.1400693078060107 0.6919067435201697
P 1.8001016539838643 3.1699305645966773 1.6392627457147266 -0.04157808055210259 0.5546872249126577 -0.8648388850379428
P 4.789351122477981 1.0607215504753873 8.181082154838032 -0.2961661444794706 -0.85132079594685 -0.1309434557908132
P 8.389735274301282 1.6494044691352368 12.370514529909439 -0.05377128018418481 1.1102452824660427 0.802903838096043
P 6.222430171577302 7.628418811111852 1.4511390207360766 0.5700963603788762 0.47181414226651003 -0.16380935328089852
P 1.7450979953114654 3.064751778195667 6.058281820751186 -0.7964238867986543 0.16237673459943003 0.39156332773455793
P 7.010592905126482 3.9650738709709583 6.022060604918555 -0.1803214920033088 0.4505344069521273 -0.28431978666384583
P 2.4078455150210636 8.500538304610599 10.235248628857976 0.34083957612744525 0.312074588179611 -0.6228726236396434
