# total energy = -381174.7718555757 ev
CRYSTAL
PRIMVEC
9.18359323807710 0.00000000000000 0.00000000000000
0.00000000000000 9.18359323807710 0.00000000000000
0.00000000000000 0.00000000000000 13.44111699575162
PRIMCOORD
 96 1
Ni 7.407816853918645 1.6561140892974833 13.410363955607174 0.10529361643319285 1.206956299436547 -1.4060499298410365
Ni 7.404299537737553 6.120855658958839 4.953884537177326 0.2314455643726337 0.09315183886433635 1.0075459091225876
Ni 4.074604164948236 7.054037294534353 0.16361214069835514 0.814444748856107 -1.114125077136423 0.14792482084015815
Ni 4.281354397807011 0.8186098823628704 10.788378312514302 -1.1594371708096614 0.39357984394395445 -0.3644890972255852
Ni 8.856308269006952 0.9573528527782086 1.9934651188740617 0.7371625300341756 0.43597193575692017 -0.14517811133295644
Ni 1.9041721241994671 7.552412528256201 0.16318969541289768 -0.7901905042944327 1.048432362924304 0.5044111023659248
Ni 3.0458947933003673 6.085241684676144 5.487940785411955 -0.736195538135216 0.9210915368830845 -0.19459317143097454
Ni 3.3427177078932 0.9586569230072293 5.073363084216489 -0.6076961730095212 2.217148645043046 -0.05666737078505725
Ni 4.498950454190248 4.522423718312623 8.130114721353113 -0.22253206393308775 2.8187194218811196 0.8444466945348359
Ni 6.122747479150235 8.09170985310845 10.230666046653374 -1.878486536182894 -0.22572511694908867 -1.5266930321471062
Ni 5.913370738647095 1.6538549253796022 2.1320161521923118 -0.3014343348569454 0.23862536995052455 0.6209900619049499
Ni 4.792917271309662 2.1582362290294763 12.918593562087523 0.9113221162011466 0.8289866512260239 -0.3757641559187722
Ni 3.1794242378775706 7.984408750602256 11.625974355380537 0.46271217996524183 0.32224870049913534 -0.44312500186193365
Ni 0.9610905751951907 8.671038460554373 11.00756221215527 -0.05978020538242608 -0.4976799542896783 0.6865377658987725
Ni 0.5747331374275992 8.861359245246117 8.68278703128667 0.6206915568279245 1.100380473856821 -1.8926479152849405
Ni 1.9759051703887747 5.748415038269122 3.1942952302849887 0.6451805431082244 0.05094563780993162 -0.12811704208561162
Ni 5.00354298048285 0.6474635218343132 8.530122651996878 -0.09158372304626808 0.039230663365848566 0.36689719244644553
Ni 8.33077715030472 7.368584543930074 9.530947879726606 0.39276223313866554 -1.2597423328893274 1.5605868566810737
Ni 2.3028870049260055 1.2210321796489558 12.311485503685507 0.7205028099903076 -0.8189508642565766 0.11385230463648133
Ni -0.1838527800276644 7.011140730874096 12.571557515162175 1.5425289707380982 -1.0452028002434128 -0.22024455345049165
Ni 3.283134555457375 1.0253298093642098 2.5551694926825634 -0.250697213513394 -0.11608685039395492 -0.5772106028261543
Ni 9.388479125565397 2.9976166440471097 3.989229809475918 -0.8455653815203116 -0.32047283954563516 0.3195485279591529
Ni 7.68475728931549 3.1032922505636082 9.365542183283688 2.3413779220384776 -0.009904403597905523 -1.308224853870747
Ni 8.554388460209143 3.837768480890362 6.318010873681833 -0.08880898851460835 0.2263090144770167 -1.9069478768473804
P 8.53768350424725 8.461312743511073 5.761225232370962 -1.8646609431537113 -1.5264420924785649 0.3941719690019986
Ni 3.0522314725822293 8.021106388878081 3.964403802080763 -0.4157952036987291 -0.22375102394185337 -0.5676610114645062
P 7.515567952489781 5.589235817990122 1.5400297982910403 0.10714172538552515 -1.3048029726733916 0.8092783741638191
Ni 2.600481341344456 6.355147487710808 7.62088448051364 -0.8097275458860959 0.02299080446821847 2.1542584332767287
P 5.362061273938796 6.696942458018535 11.704618973783655 -0.2080022457480289 -0.2849070266258835 1.0402685961665892
P 1.5437711941452874 4.539330713324083 5.107154115256504 -0.00016403638169004006 -1.8328934209341274 -0.7979490651939289
P 6.722169788434874 4.0533533303710945 7.369831675881489 -0.8018756539418448 0.20485804369209235 0.6442384909099291
Ni 7.025017140142057 2.524441189962115 5.017152147189794 -1.1226459701232407 0.6865678478057595 0.3861028188406189
Ni 8.890012055911926 1.5676669035531197 11.062334998492776 1.1893606978419708 1.8018267814363098 1.0571787416583664
Ni 6.351363847328014 3.524240610335635 0.7703574471704672 0.5940772966745059 1.134528837603756 0.6085652058780358
Ni 8.270027681537305 4.322000981142548 12.74463885876999 0.8518077628855975 0.5229251020097123 1.5293497530436628
Ni 4.336657995829289 3.1768895661648258 6.490473243110522 0.5148839768727906 -1.2356276992293105 -3.164661352232137
Ni 5.3866549364269485 5.7166857238940025 6.056768872436312 0.36336783913694837 -0.27445472094430795 2.366066940144725
Ni 0.47874805841576873 2.418315587380673 13.169633509689247 -0.3650423986258939 0.8559747497790936 0.2834651519730344
Ni 0.0924539874409959 0.06911939557536892 13.28362761489199 0.9192398283863265 0.6106326299300258 -0.15786393433074103
Ni 0.36044501130135786 2.3700925396863886 7.845619862221108 -1.1167766558266574 1.0110711486670265 2.5694329726723235
Ni 5.012267393986862 4.901155100318391 13.090652771776394 -0.21045173572978593 0.5252370379723406 -0.7679316928962323
Ni 6.9687859992104055 7.571799093421433 3.169495855310004 -1.5359428328801483 0.12943139002166096 -0.7576231118813727
Ni 4.093880526995523 3.3990774191291213 1.9195123982174698 1.1138882785352686 0.28135067673319286 -0.06293083519626581
Ni 0.5689906366233265 6.195472353401053 5.865125650329222 -0.949186752457404 0.587519183841014 0.25101423053318056
Ni 7.4841416966890115 5.987757843260256 11.311519860275753 -1.5658113383048067 0.18456406932974664 -0.08067324678135138
Ni 4.07210622760814 3.7378234365070258 11.110762840314576 0.7282893959142618 -0.16912870861128293 -0.20771685329712614
Ni 1.7963016389172226 2.6828489884154973 1.5632560237573543 -1.0818086243919045 0.15830307875068866 0.03228405684468634
Ni 6.448581364542201 1.4907083928545664 11.019364047727908 -0.00933259025483554 -0.8986275514526135 0.31414046956970415
Ni 6.363265784066121 5.247964312492635 9.374197719838985 0.16546411527550214 0.35476955594497606 -0.22183040988037278
Ni 8.753571412302332 7.595511130966022 1.4568420563506221 -0.31842418454672256 0.579685546729208 0.36230391664880834
Ni 1.9289861929235115 1.4094244097766553 9.815980897417912 0.6672223533996122 1.141951355320072 -0.21371677963430288
Ni 8.850504238128492 5.359150074906404 3.3913687110288393 -0.08967005096332298 -0.35980017639034806 -0.6120868458780492
Ni 4.02168830114811 6.260988107019606 10.051320574149678 0.0071921468730650326 -0.30741189259661894 -0.05675633095443774
Ni 2.901611361130323 3.7135511997795465 13.135895743489572 -0.7732052825903458 -0.6869141754015847 -0.13002402930033735
Ni 6.5231980589844145 4.282888057865085 3.28945837770881 0.6110699745777606 -0.41641046868522485 -0.3363799976941949
Ni 2.5275727952303972 4.317537754865758 9.466202629574353 -1.6105436482151747 -0.06088809373462417 0.9649051916339253
P 3.819493130497746 0.62271465662172 0.44769557485669736 -0.6137295236877947 -1.0396777566601256 0.41527712641173
Ni 5.410495544275809 1.100414867057691 6.363185886805609 -0.21461615152012073 0.6149554256750956 -1.5344513359362866
P 7.86795160571343 0.4467634401507423 9.745925693699322 -0.7733407797269456 -1.5454245471183385 -2.5447691513770563
Ni 7.722869200938282 6.356681147768881 7.6207366246637305 -0.33895829994433235 -1.4320846633419013 -1.9856570579238255
P 1.6688058150475311 3.1524520247604286 11.388537145970544 -0.23054002183922878 0.7735166431831775 -0.95792027567566
P 4.929036489158583 2.540181868641986 4.156611815167323 -0.15890266000790054 -0.33210502446792484 -0.3081390005706306
P 1.5038041967037477 8.556785378024456 2.1402556719773647 0.1006957126498653 0.19609623833906228 0.5345701424478084
Ni 6.787896764696157 7.0160172188431815 0.08955840051697993 -1.310984676004071 -1.4579633308808762 -0.3474524534582726
Ni 3.7604793608379725 8.575694396345257 6.600341159905526 0.7215741886776152 -1.7929500477719704 0.9090299777328603
Ni 5.496573362984345 2.816534554076457 9.31166938907607 -0.744805134181098 -0.1258873814241445 0.26662571181819245
Ni 5.17658942643665 0.19135577564111522 3.917333295328324 1.3062664445927954 0.5547414751893608 0.6880596018599375
Ni 4.646108351020035 8.346233137596563 1.9814621626111728 0.7195530444825285 0.024023359497790886 -1.028915375937299
Ni 4.278213608945567 4.684780461825716 4.247728671443914 0.08166672104287226 -1.8233348307114148 -0.5769486074140193
Ni 8.502565443995309 3.378423518107517 1.741444363522624 0.2861612107479588 0.27627763308565967 -0.2248918224145159
Ni 2.1912787972267784 3.754307986233029 7.279681851964869 -0.22497872570136737 0.593333476529946 -2.1329573578061076
Ni 7.644129073166278 8.64384584120134 11.795251854700604 0.6078121297620951 0.6534965191730875 0.28548758171970184
Ni 5.462979779197316 8.946454419486308 12.63603460439409 -0.7091372484658433 -0.23652246467490884 -0.12632626873377598
Ni 6.7640010552883245 3.685770830464138 11.263118650874123 -1.43607681522043 0.9479726775446446 1.3818509639973298
Ni 2.475520189187509 2.9874504064166447 3.6599621786006367 0.8766232792673806 0.6029177777842714 2.142738091341955
Ni 3.1334603541011674 8.452799552649788 8.960600826393234 -1.137982086259679 -0.07291314321995829 0.9650214054968155
Ni 7.270007854927893 1.708322816424127 7.468610403933236 0.06812729179554072 0.49410303557169744 0.6379346601790885
Ni 1.2792010587378146 0.650913797785321 3.9596861902733824 -0.03831072265474047 1.285007020993387 -0.49294938158322854
Ni -0.021291242387055605 7.868456703337348 3.7230415249532802 1.2920932384162072 -1.1322333567013598 0.9689117416901573
Ni 6.945230082749571 -0.16359101843408225 1.053017424388681 -0.33503325385831334 -0.2050051107929179 1.3400479119186146
Ni 0.6417338780604674 5.7494711514827666 0.964546361302096 1.1890935602235135 -2.9087707674432615 -0.11621154889727728
Ni 7.9230347974998185 0.7487998805817101 4.079056370913232 -1.0028333341382665 -1.266820322782031 -0.7645429789296575
Ni 2.0470963845815175 1.2561226891214108 7.198497970052426 2.537194681463908 -1.1527538452522146 0.1288328372057136
Ni 6.126430100008245 8.240888140433903 5.724853611652391 1.072244120631921 -1.3666495736665432 -0.6961310660141624
Ni 9.088469504145309 1.2705041960132883 5.969146373357906 0.5323913896289347 0.9943186117990359 -0.2143695827269534
Ni 6.922601709198112 8.473196313062854 7.843725286951763 0.1909468329276389 0.7550075286353966 0.5272391560040339
Ni 5.058433316812833 6.039663511812549 2.4472374773261327 -0.31711369326541516 -0.5923088919201734 -1.9509705622852338
Ni 1.4761432140994464 8.445599615610687 5.974415000755013 0.37244640439944887 -0.3734959287098858 0.297710606148455
P 4.940268023595854 6.884600000693265 4.3655403963241515 0.3223808552016254 1.1902582699555757 -0.5144224638553399
Ni 0.29590180019867257 4.84900147475072 8.056524752626425 0.6494298053028816 1.1712945843688793 1.7049339874723026
P 3.5425710622872235 2.4545448624052306 8.452056599962972 -0.6866514086585013 -0.8490628531506086 0.39713465117474833
Ni 9.264316946013555 4.562225411077244 10.426866167687505 0.47513626466120756 -0.04577489224226955 0.5881755864780902
P 1.4074223864673134 6.846570741408932 9.910431398012351 0.4600755136733432 -0.4898802557396015 -0.6490893912443273
P 2.864353523671608 5.100448255529525 1.2580429784516096 0.18136510277647475 1.4262847688306726 0.4910315957352253
P 4.687838598348701 7.109120486320739 8.152722890999616 0.8356905456087608 0.017007590301590065 -0.7073498175481172
Ni 2.026580237457345 5.673825894606396 11.707858027091936 -0.08192820223437502 -0.07501090628925147 -0.05415540299648093
