# total energy = -340868.380945743 ev
CRYSTAL
PRIMVEC
9.25846786754708 0.00000000000000 0.00000000000000

0.00000000000000 9.25846786754708 0.00000000000000

0.00000000000000 0.00000000000000 13.55070358442830

PRIMCOORD
 96 1
Ni 5.587365097746643 5.866943056934919 12.76412584761356 -2.071019739761046 -1.4261091624847568 -0.4429000303353211
Ni 6.396212640501399 4.2655336166952065 3.6196230753103444 1.235725915370072 -0.11530034993691755 -0.12438997094301157
Ni 6.029049573722267 2.3152188086371606 10.309348595236278 -0.8760710063083362 -1.5608074573323119 0.5442752855507142
Ni 5.354746088421033 8.960854577943811 0.34403633947985174 0.056800811039127985 -0.7930146040067891 0.19076916969919405
Ni 3.519856601328654 1.2945745511626963 10.772159043569284 0.07036646553870461 -0.6435252668929885 0.04901139690169624
Ni 8.105048085326388 5.996922689648242 9.238409561866908 2.101770390680342 -1.739327634460824 -1.8102036926460954
Ni 6.742895975991846 0.2455817904184174 2.4385573422305127 -0.3053562956191709 0.36785441415339226 -0.14677708038896012
Ni 2.372389848740072 4.065689584205921 4.7771519309570385 -1.1446659260377576 0.940525220127664 -0.3102640173334334
Ni 3.5141163511482807 8.232139076013459 4.49422610972808 -0.23792757255255154 -0.6593691759037805 -0.2750296196111715
Ni 8.39180135724013 3.387571610075149 2.2531435580172436 -1.4619212870873595 -0.517729930962018 0.9485699448090116
Ni 9.03731100695917 1.0135059786211293 2.504969259277022 -1.085824173309201 0.774915066192601 -0.30031590498178606
Ni 5.051438675664536 5.069409362116318 5.401554125254764 -1.2365365841968252 -1.5125460512227629 1.9143264286996389
Ni 6.568059065659316 6.813760290315357 10.58738131610987 -1.8957244973277352 -0.6549391651568849 2.378768189761477
Ni 4.270005456755078 3.0657102273808006 3.9517919104656762 0.46798679810061977 0.08280340575047675 -2.03162555423414
Ni 1.0688345835855013 1.6392302821539462 13.450605144224808 -0.5378159030786157 1.3082922167735727 -1.0908645639465857
Ni 9.017118288179502 7.606331446268346 11.560552778745844 0.049427915613824557 -0.4611481779122316 -0.7304028427128388
Ni 5.729130760265797 1.9994402394404014 13.086064075592581 -0.2617894667718137 0.18747352966705777 -1.3299159656909354
Ni 6.019596677860716 1.124653887355615 7.633138414610689 -0.2611333212450535 1.3793431099738116 0.0711172276618001
Ni 7.36365774065905 4.129258225719538 0.06917556975431752 -0.23454631478514443 0.13790368915873025 -1.3583459388968544
Ni 2.9619968684767017 0.2401563281511614 13.3344076670252 0.10344345059833153 -0.743131860243733 -0.5348452504860659
Ni 1.5886327543543657 7.350538491456487 0.2318838869638009 -1.4051603281472316 -0.7399755740029385 -0.3155142099887792
Ni 7.994251998377152 2.547578580857851 12.009609772816034 -0.6110509484143669 -1.0590348210304987 0.5234935729186726
Ni 1.129144244351552 3.191143952289989 6.781381575910839 1.435697063283508 -1.2036344341521659 -0.17587939707155517
Ni 1.690022237782217 4.9647608979409 10.364486475759174 1.5523264164444943 1.1081912281504913 1.0641389750262835
P 5.63737008359212 0.6069268358857012 11.486308197743536 -0.6334200601381865 -2.0351582499777465 0.003670763983367871
P 0.922134157604833 8.279116542812192 4.916777961513799 -0.13156720541774117 -0.19276923084835831 -0.5298038314074166
P 7.457612674256514 1.9308627667210063 4.011428480605738 0.2307238557152607 0.7261867477489622 -0.29952863319380024
P 9.027182242931222 5.72431635688871 13.086307573301845 0.6481080011676644 0.6513959278903169 1.190424620330111
P 6.075897421968539 3.2490649283035618 6.668260687638551 0.8697270663681796 0.01796943999422712 1.082610808578226
P 2.4321902937643154 2.0014215515994334 5.298392571045423 0.8820771032931002 -1.827272475202924 1.5941500373484996
P 0.9891376907586416 3.895111569168507 3.003405366753668 1.7383508723698513 0.9972584111536503 -1.0692863235551777
P 1.2007677530537577 6.253104500117481 8.509015414229747 0.47750527911401636 1.215331667984436 -0.3934502603446256
Ni 7.72644155205864 3.5526408366330116 9.665906361428977 0.9604751808870298 -0.6978778735019401 -1.6153765508274438
Ni -0.05968841756104577 8.829412107281296 0.14305166372891812 0.6640799511158886 0.32305217023703714 1.8451552690206159
Ni 7.441826986260487 0.0004832920313152972 12.620949194566196 -2.263504606599766 2.8205425911327877 -1.9141464514783484
Ni 7.311134451508634 7.129316656279328 13.134819168253621 0.5696014230203287 -0.31097569868847735 1.4463373166061737
Ni 2.6779285522924883 5.66860815473499 1.7637594547363247 1.0244336860168615 -1.8149764314443904 -0.5560128857026165
Ni 2.196682642412453 7.453298228153201 6.449050717564932 -0.8241768885422065 0.2759989255029763 0.2826421418511068
Ni 5.4142224870641265 1.0991560663931181 4.340087430529812 0.21833885178734655 -0.7595167293596596 0.5529031364290414
Ni 8.653167909807772 0.6664143446904338 10.505643856928568 -1.8535856591761561 -0.8873064700128397 -0.6927634350935101
Ni 1.4245171500038878 0.640692468801542 6.939830071978403 0.13841173914340035 -0.02850607785949284 -0.0199432758911463
Ni 5.214748793296155 6.840109890336877 1.6634569154555312 0.13625175537760406 0.38805557169161553 -0.6724383503829129
Ni 4.4912087749961715 7.57912080871977 6.439308031653953 2.0473568489264675 -1.9737685340163555 1.0294594213662271
Ni 1.1434763528664194 6.005310861686014 3.636195733089164 0.38020265130610004 0.7186253904619365 0.3516322958675751
Ni 5.710317553223025 8.708996472045918 9.363075759776171 -1.1708181589530933 0.38272130396289566 0.42849568198453303
Ni 0.6323339238614757 2.2124498134724138 4.35707949691052 -0.5794798584763053 0.11752178306826859 -1.135572962597554
Ni 2.6090733255321075 0.8717727207400905 3.5357033952136976 0.4863156783167948 0.0407319305017234 -0.8661254650598503
Ni 8.728791076700173 4.766851885270482 11.265960361948679 -0.07573775715294698 0.4184591236841374 0.610533128237684
Ni 0.5192982134950901 4.238332237614664 8.69056749142651 -1.6552091094433496 -0.5627535468605599 -0.727513951200818
Ni 7.995687060922245 5.655063016002916 1.6094985637600225 0.9632375741235154 -0.6367491245114194 -0.14596229779714862
Ni 3.0637103982857026 7.74978214996948 8.756125777720388 0.3234298652914301 0.7940895822385228 -0.7287133708255579
Ni 6.809001437746467 7.206254525632395 7.448482898929311 -2.872539553025369 -1.0836819301552174 2.1997371344348178
Ni 8.524040056153472 2.034085426819364 6.128075370261328 -2.319259492872883 -0.5783125776410815 0.9557916593684315
Ni 0.30903840446883724 8.01878693866423 2.514672133775459 -1.4026108222525004 -0.8428497823613613 0.9343813120134554
Ni 4.1537283567303875 3.7411062119099117 10.979023772367885 -1.2623905691454518 0.01924367872096041 0.37461950079136774
Ni 3.8656696408240117 6.136392252095247 10.217176842581942 0.18171785813020316 -0.5233292794266665 1.3118105143394763
P 3.070515372289855 6.068611007626678 4.792328411756503 0.7125884402392372 1.1593687794655712 0.8068625656334749
P 7.8501439434456834 1.9041983787863694 0.8089901231624629 0.1955308527538955 -0.8704449183708105 -2.3215855699028984
P 6.517202300754816 8.875158197831658 6.241128671716976 -1.009316627869765 0.5189172664018998 -0.5940022204621963
P 7.150481514202446 5.6644603610562685 5.53504271735254 0.09640377014273074 0.48565644746624104 -0.3927933434869171
P 0.06236966990336206 1.9278815400144256 8.481615903933301 0.3719972326771722 0.39519783916335166 -0.051210461435544065
P 1.603992552820881 0.4255238200242666 1.6542160385119338 0.9290838110599418 0.607529822634986 -1.5640056525546353
P 4.865871200881921 4.812607234288877 2.2256218359427637 -0.8013570624342135 -1.7079028402926393 -0.1655484474591923
P 3.784241414475007 0.7757337059884294 8.533515172338301 0.2001603811061069 0.12052560289159889 0.1975327136752727
Ni 1.9711833950041124 5.264346406548187 12.70797231314746 0.9834513300672288 2.111445966096893 -0.24114607948984923
Ni 2.520960485263378 7.898176875600162 2.2358524431190743 3.1069521704461267 0.42352188291902537 1.1370750010643773
Ni 3.886556744706144 3.424049974124618 0.3470092335652031 -0.1808583383433853 1.0624996396506474 0.0209981995182219
Ni 4.677516927221415 2.9873280370146067 8.49115582939436 -0.5864640031036223 -1.3786090600212644 -0.22764341701772406
Ni 4.161746190046845 1.4599400486976104 1.554889341761804 -0.7245589823375521 -0.865449007818116 0.891328189577723
Ni 4.008750005803831 0.5121701189565911 6.355090228886648 -0.945847660781842 0.619174863073082 0.026298014464580514
Ni 2.350012131504649 2.9385544274174995 9.222731272100063 1.0629670662053694 -1.5215341136539862 -0.5780459542432561
Ni 6.043076152792049 2.7704484233448587 1.5839822258614602 -0.5866365241257446 1.2011880294942021 2.5904584258840546
Ni 0.6410628075228563 2.485139472444242 10.748472178954014 1.8552753881737531 1.1948965400585356 0.4407302763775119
Ni 2.189599914367315 7.638365745662042 11.469749427666764 0.7820992426458659 -1.071166571297026 -0.6577429531542672
Ni 8.644103869603601 7.142824761139271 6.423114971064481 2.462886714778952 0.5216968860295661 -1.6265845037281212
Ni 5.690597016313033 4.747659081038363 9.328250032270569 0.8969658474794746 0.8398451912070826 -0.22209703327819816
Ni 8.243091843696332 0.13374134827507397 7.810002003595613 0.36050054489148237 -0.29409537799337093 -0.030876634974198434
Ni 3.0667379173324476 4.719096707156989 7.805490352123199 0.08861718421877642 1.3269725667918955 -0.07776352933372414
Ni 4.514910453160293 7.878900745155748 11.729068932952341 0.7275008385746955 0.7767855437424364 0.1043389658294074
Ni 0.9092713679667804 3.9990934236455584 0.7492091209210885 -0.0961965392279311 -0.21116315997451376 0.5407449037999525
Ni 4.025276371242487 2.8810500824654057 6.297595142402587 0.11900273848916923 1.139882388606185 0.07799004352223342
Ni 1.1027761273939665 8.704478339645883 9.394120328937156 -0.7849570238096352 -0.5290540977255856 -0.7530460340336514
Ni 0.9992757132546234 5.4579039392431605 6.35571332378526 0.27770973754649597 -0.18701793018687793 0.26945289685434237
Ni 7.8919459266140475 6.620082397535957 3.7135428267292836 0.9037034233136243 0.34012223834544647 0.8385167022036463
Ni 8.867418118556188 4.37958868439201 4.575164563118147 -1.242800048608034 0.1711915046775826 0.380180539818913
Ni 8.176060535138426 -0.04956520861391654 4.947605882522813 0.24110905560432666 -0.4290003895350934 -0.9818878422348508
Ni 8.125472265806877 4.228314575203109 6.808890336130073 -0.9281939522558209 0.7532332103437931 1.4938556739021112
Ni 5.593494203584396 6.738646339164764 4.076078511185593 -1.1923298077726239 1.4843122531880502 -0.646153448544455
P 7.822118560710216 8.023268037192135 9.473025622747205 1.1933271386888868 1.9073258290120898 -0.08848631506786696
P 1.3509956553549456 0.2691936614426205 11.404082817296901 -0.11798586718888067 1.4275163272449287 1.0975661443364777
P 4.808922364011798 6.410887312333483 8.339672478827916 0.15162669517177757 0.7319174795851524 -0.982349612362618
P 6.238281692796871 4.211343803298876 11.383607715242233 1.2328115699367541 0.4301298751538463 1.3918800660985577
P 4.628734059156275 8.871778856999665 2.7729074724543863 0.11486763327487315 0.17718551747748837 -0.3685064459150944
P 7.504497556374918 7.636893649244818 1.7351544919019999 -0.01666949023588097 1.2876794256192274 -0.2983662374545829
P 3.602506945457996 6.916057103610429 -0.007581759472109135 1.272380590478628 0.23308592818953405 -0.4732130794965657
P 2.3870922959762537 3.318346044593454 12.318402827882002 -0.46839534639294816 -1.9924565973441621 -0.4976678701048204
