# total energy = -340868.928674573 ev
CRYSTAL
PRIMVEC
9.20708541134625 0.00000000000000 0.00000000000000
0.00000000000000 9.20708541134625 0.00000000000000
0.00000000000000 0.00000000000000 13.47550016596139
PRIMCOORD
 96 1
Ni 7.493978306987303 4.088958721467206 4.34707475865838 0.5394806923755484 -0.18149185816232616 -0.031292639465694494
Ni 4.663784687685849 5.733822952192835 12.342817125943878 -0.06475169045508848 0.19753425633716945 -2.4189072238742084
Ni 7.337411818823222 0.26065258923405593 6.338565501180756 -0.19122065541431582 -0.49069735232425815 -0.5437878043913343
Ni 3.995626496208794 3.251887340230772 11.325335667340275 -0.46811201082457443 0.7942631317019095 0.6346793864665844
Ni 1.2254078315619017 6.990663773498469 1.7741436797264116 0.47376175291118405 0.14426922636544187 0.32285393818330205
Ni 5.1377009973165295 7.64844557966762 8.521785511928806 -0.467087426214802 0.8496220680881883 0.7675966781543168
Ni 5.9423634377509895 7.527234299651147 11.222301936137818 -1.7927132491708155 1.6416804788292954 -1.4342086516634398
Ni 0.02918369876705006 8.008120372971343 7.75393760268659 0.17200217350433603 -0.617093297953705 -0.9562022645432886
Ni 1.915138224260271 6.555417222779234 4.9376522066736195 -1.3748323665876516 1.3983695304776433 -0.292621878771638
Ni 4.982359051517978 1.6150056525947198 13.276790319469667 -0.5058414070545482 1.2277853203667564 0.6271892487371263
Ni 4.656142806758111 0.8010348487651479 3.781467847105933 0.30076199138026916 -0.3521894539226257 -0.6455556670594559
Ni 8.217756501698656 4.2312818484322365 1.7406703998458275 0.612782329283177 -0.41113507921889836 1.0210470289328155
Ni 8.15656621176402 7.058547614558966 0.52122968036738 -0.28165740934033423 0.38385593178797117 -0.8338648052539316
Ni 4.740304774903238 8.458070639162381 13.16013286391929 -0.43530370604530194 -0.20506733148942102 -0.16049880085042684
Ni 3.6795012171077235 1.6444499118801492 5.821240545754885 -0.004289114293657129 -0.9933760453801086 1.6045763748881463
Ni 2.248545202760576 0.402084470327033 7.411403640374638 -0.21921379819313216 -0.013651015124531329 0.20830332192821546
Ni 2.7065332545539227 1.1428847246277851 11.253929195384654 0.025636726731497785 0.14424608643699027 -0.4273448562095415
Ni 1.480085022335594 4.644781263306511 1.6145268841510545 -0.44257195757194095 -1.6056752643792798 -1.2301147398308816
Ni 0.19103873681654363 2.7176738279546013 3.805373123781571 0.36316317932531 1.1913674438593547 -1.1092862609868832
Ni 5.7602564945344445 7.4505576919810235 5.3892431754927586 -0.748434246293253 1.0580963683766293 -0.11238214784885807
Ni 2.552029153531786 5.4147974411734054 10.448296328143227 1.288828451622006 -0.006509776094059756 -0.5475544705226183
Ni 2.5066198080672026 7.268892688866322 11.753640996334905 0.5534554093880856 0.982060106146657 2.397234623996781
Ni 5.792066974781836 2.1999409986430707 6.960028117355149 -0.274332850654463 0.5206288497763679 0.10923511757944414
Ni 2.258507269223001 3.481502844395665 9.218993899433814 -1.013473587460932 1.7834706475266253 -0.7176123758163899
P 2.6644660811095426 4.908536640338937 12.725575003192098 0.8016936198380258 0.2942293324680739 1.0713771446459357
P 6.639569983838905 3.1085330196947685 0.4817662706897039 -0.15107879308810754 -1.1632588585485966 -0.9816320174703029
P 6.884957225388395 9.00423494835928 3.7724927802042956 -2.079541661189128 -3.436098369396044 1.9663928103775745
P 8.99689690125156 3.1944535411618196 6.113712822321789 -3.177150742948399 1.4221447785203702 -0.6919656217825632
P 8.732497028237276 4.693265775313099 10.879135447055102 -0.33790466186883744 -0.4097819076251137 -0.10273305479486823
P 0.1952859653369841 5.736815254965744 3.2470830830402977 0.5528992797742994 -1.0976887859572708 0.6167238304294282
P 3.901152592353949 1.0410911878361313 1.6717433960032662 1.2587511726206515 -0.322242015630916 -0.6227772357123597
P 3.7174067879263952 3.494346728605538 7.053710211860854 2.4054192166901025 0.37464289783013544 1.5173478434867804
Ni 4.615088412713793 3.3036679888302896 4.514589392137127 0.8317482731315612 1.0157526133030959 0.7643455182068708
Ni 9.142203123904046 8.653537063374285 9.866599114049436 -1.2159271354765897 3.4794052597137948 -0.11494888013476977
Ni 4.4032609976481645 3.9824695710934472 0.6070875936533361 0.043666587650015125 -0.9503062107738278 -0.1871364580426132
Ni 0.389208361318067 6.676287840633869 10.720528668754168 0.8376245294066801 -0.927818314083957 -0.6624601561242784
Ni 1.4607225216235056 4.3954810104386 4.8367747748847485 0.010866253290542577 0.016164525575004418 -1.6951018318732292
Ni 7.505892275566211 5.496556360014748 9.15040387491891 -0.3287638759098338 0.08952349808312969 2.0394033984073454
Ni 8.388280931412677 8.486778331611402 11.99169939786213 -0.7743684496605117 -0.17894980846676278 0.42787501768139863
Ni 0.5418001506911783 1.1926582285980893 5.543794232650716 -0.7917480785895397 -1.4119974056737232 0.34977158850975243
Ni 5.358486906529976 7.53800658963362 3.02184094446658 -1.4821167881986281 0.2246632513434776 -0.2164066677616402
Ni 2.5407965092765563 1.838231439453769 0.08657514524290891 -0.8038433191911769 1.2447975386540369 0.5549703033707152
Ni 6.609775855306181 5.2463998481995135 0.1458844276190664 -0.2968536574647984 0.13440853152127819 1.5727684863489302
Ni 6.148049726818062 0.17989724270731966 1.6504796321446984 -1.183812514330232 0.09796340132036677 0.965738486168498
Ni 3.851240982101819 6.18611181808947 0.9104131825547183 -0.6090218337994802 1.6911055662296424 1.1124361194697745
Ni 5.6978232480633695 1.4870639931105643 11.055663817194397 -2.731754428553786 0.08424399485174523 -0.8380130230943503
Ni 1.3747559647291792 0.7512447720410247 2.818562308246018 0.9858982489458246 0.9927196427430324 -0.14777286864332614
Ni 1.3728132696981517 3.665248648823219 11.575683686532978 0.9481004613717605 -0.48769841759693433 0.31480407129563204
Ni 9.14251616480952 1.4888225464324896 7.860825419860554 -1.0085293560817792 -0.09159349323828098 0.021376665903563186
Ni 3.4612380493089763 2.8778679077879934 2.600623229855291 -1.2736165197682583 0.11978846761525822 -0.26511981669662726
Ni 9.052388005289485 2.6485838586994843 10.144127370214155 -0.8116484170578925 -0.018615558218658262 -1.6133836887671311
Ni 0.25544690311773893 4.360613777820113 8.208937955249754 -0.26863939981411156 -0.6149148022451474 1.232365226427955
Ni 0.40129266097789384 1.4800666081646838 12.08632429791844 0.18711511788637453 -0.7058575492733069 1.494162920729885
Ni 4.005128208398464 5.7020124719454435 4.96399736099486 1.3729559755005452 0.03693595379440091 1.3095965374072929
Ni 9.00429019087201 8.28929555568483 3.343150733387421 0.0492466528409539 -0.44859039585187904 1.937253984030089
Ni 2.5062791459053635 5.363753359410296 7.239645461209633 0.800912261587311 -0.2937313097857328 -0.7989595087363144
P 0.24440484553143008 8.147322297967094 5.634713280811344 0.4510082612647523 -0.06516795205690068 -0.13697037871118345
P 7.645398034381979 1.232175039371405 11.08831490434384 2.2718866600158747 -0.9936655515960692 0.1487295761296406
P 1.5911316800096296 6.443302543192407 8.74871254714081 -1.1298671704620282 0.43202632084561077 0.024394626794280568
P 4.1272786111313575 8.729753316771655 10.954166748554398 -0.29129878908484025 -0.19445947406658767 -0.11051912649819032
P 6.071934751360699 5.126063241301276 5.485000547060045 -0.5907315201307246 1.5452723378111903 -0.746100970174386
P 1.5601590445386522 1.4896511841234492 9.230582857896156 0.6522541621255541 -1.730434445736252 0.901495617029028
P 4.938643809777134 9.389661959680936 7.032634272545571 0.00010361545739982157 -1.6047933759949586 0.3307274273941078
P 7.236483748064349 7.6501765117331795 9.43537053542281 0.30416381797296643 -0.038483757897495016 -0.727781860150224
Ni 7.193578729843554 0.7877296895739739 13.292125641003691 0.8761476251825426 1.5116376804758807 -1.3328634783550335
Ni 2.298291085474515 8.895499269134476 4.905405310575656 -0.20227768455942585 1.7220917301985115 0.499956666138997
Ni 6.451128565829247 4.250506242862499 11.525016174564982 -0.4030641292853058 -1.476129974487574 -1.1030721617563712
Ni 2.572238706105744 8.74535932661806 0.9946239482527559 0.14638498715686402 -0.58586776428052 -0.26672547062085034
Ni 5.300113984744603 3.6144899867092186 9.256307454657723 1.839855196963941 -0.7455078166750774 -0.6838303942699384
Ni 7.116957364686161 4.289783669413981 7.242529120374172 0.7013213519658502 0.07210607393763065 -2.054149446368269
Ni 8.618181855226679 3.7762584781554343 12.878818654215431 -1.5296755118141976 -1.924014345411364 0.48784317070491473
Ni 1.7110447609769324 3.1120685405095294 6.636845607252739 1.7870984740871998 -1.9005070063180434 1.7175185090055325
Ni 3.056770785266162 5.315305675745528 2.9780179798259114 -0.23023945987967442 0.6140573393408586 0.5306430394792603
Ni 0.4587853853937589 5.757061635881523 13.01124232289913 2.5737177160906057 0.01361810500406687 -0.3868129575337661
Ni 3.7550453532668695 1.9829484086371283 9.139677620363711 1.6704372392470133 -3.072116807934496 -0.8112738073272933
Ni 6.138225766637463 2.973557146922912 2.5404549264061718 -0.3635514159026642 -0.9557176115973864 0.022281437106019687
Ni 2.193717008875419 8.341545765642557 9.67670297653787 1.1071859268144286 0.5295822023149137 -0.9001871826302497
Ni 0.27170661603145646 5.7602564945344445 6.473778916757353 -0.827737352199955 1.0678963851861867 -0.02090229737030594
Ni 5.024730058782376 5.631127121026581 7.341479509177288 -1.7290573628830674 -1.3719768994167274 0.25260522916938427
Ni 3.375796296285591 7.5990956016282505 6.566530174923547 1.1851610579383265 0.04928213406457964 0.8804318543801933
Ni 6.992716953554957 6.708245634248542 7.180352751587294 2.206856519088419 1.4056023007806566 0.21592587147047973
Ni 6.605227555091359 0.5468566820231225 8.808934251685569 0.4473665507471069 0.36597108108775034 -0.19866014241149657
Ni 5.363007585488433 5.164631722272715 2.89511646167959 0.5380706994018991 -0.32024889646028715 -0.08807056768668703
Ni 9.008350515557712 -0.17882277583470876 1.265113387587047 -0.1945342931685811 2.251045554900807 -1.436804437415074
Ni 7.500128640071314 6.472019442726882 2.588993760216946 -1.04195009763407 -0.3977923393634052 -0.16049520130600103
Ni 7.532399474591461 6.290897657654034 11.788879274497233 1.5156588858201316 -1.045313357679348 0.13631834694948133
Ni 7.983196792644371 6.687078544787252 4.798962195629173 -0.28696288071364773 -0.528057023919639 1.2797935951132478
Ni 7.961486485141229 1.2368338246116888 3.0160727054289556 0.6302288068943984 2.1600745257378735 -1.4386481754920322
P 0.7350992269869504 2.4889329969079435 1.398365693961708 -0.44519371146550424 -0.11707929621421127 -0.3092258058769061
P 2.9913452360221773 7.680182403231371 3.4027795016288707 1.1554079950456102 -0.9832091321494356 -2.1948155287634843
P 7.366911320621384 2.7515282811730266 8.570755237338881 -0.1742032949207129 -1.3159965273963659 0.9562907104920368
P 6.432125141449907 2.0700566441278876 4.78085185853898 0.21691780307010383 -0.11832422436490589 -0.42983059874587265
P 4.854785675452027 5.55088737128533 9.648148121707404 -0.7686446598028568 1.8858380914519588 1.2605010654322226
P 6.086030799192467 7.248646307950545 0.853338459818515 -1.4672828085095893 -0.05789018744856482 0.8358373555992702
P 2.206339923034369 2.1375445805138162 4.435676383409958 0.34211201508196565 0.15829407988962418 -1.2501459474501437
P 0.8666657160147813 8.042039275787953 13.171128886078323 1.2503117836040467 -0.44135171201159473 -0.2551886736258444
