# total energy = -381167.65651353274 ev
CRYSTAL
PRIMVEC
9.25937735589449 0.00000000000000 0.00000000000000

0.00000000000000 9.25937735589449 0.00000000000000

0.00000000000000 0.00000000000000 13.55203471255618

PRIMCOORD
 96 1
Ni 0.22570287388433186 5.615571503311765 7.895266271503344 -2.0758382441956122 0.25627342204959086 -0.9718589972439392
Ni 0.7628078610132183 6.759539773212303 5.931074594700175 -0.7520633584054081 1.1210814538495983 0.7029321480963959
Ni 4.610160553223054 8.925548834579663 6.9574654415564385 -0.01492293985841946 -0.1634386002050411 -1.0130843224423134
Ni 1.2762569913755148 3.8464841626322923 10.06192441520957 0.6491420988591337 1.3070244058047424 -1.2526309186555267
Ni 8.91242829714493 8.851446039173752 6.207929045825651 0.4650002046684701 0.3349455792405135 1.9479577436008386
Ni 0.6444554281007098 0.8732064889458845 7.8798438529068076 0.7100299354834417 -0.31251604659240373 0.9069350428770444
Ni 5.689952080032455 0.14461758216259032 4.172278125795554 -2.5070518393319405 0.7717119858742709 -0.6322180694102854
Ni 8.814954833788935 6.49694383697444 0.25508195167308767 -0.2625070616641285 0.4774016636566165 1.4621184906998304
Ni 3.161873593604829 0.4262572794039939 0.941664768035483 0.10127755329526429 1.257234478865809 1.9170623395735626
Ni 1.3170908446480456 5.148667410053859 1.4425331826514332 0.15017582165786397 -0.11946090907251038 -0.10714635337121547
Ni 4.112154212087044 1.9194411069922521 5.736101741732142 0.29954380270245184 -0.9111637362464113 0.5012597012211367
Ni 1.0640968825243808 6.350432712182772 9.72729793217405 -0.18341298644443896 -0.050872618480151094 2.150776131155083
Ni 6.767410243797712 7.277361181469223 10.126188196446005 -1.5384383456084922 -0.2800553549605371 -1.3119167009000372
Ni 0.2859786413782534 3.3938302508225546 7.81860233237517 -2.234086044228333 0.22395542664317558 0.5845649863086965
Ni 1.9914142456515225 8.549266265579865 2.7049724054921183 -1.395225842642339 -1.8969563128523073 0.005095412245036386
Ni 2.7208031626213804 7.736931848016961 5.150030390371708 0.8108847994189906 0.6518139892643419 -0.32565772618068434
Ni 7.842609119536099 1.759587219714027 7.915051708617345 -0.5748760411557067 0.1266890513898334 1.2424220964433248
Ni 7.9303880150063 3.1953092045270757 3.9100599721457905 1.466500164707294 0.9405205921419737 -0.6902974900515209
Ni 2.1142769211783277 7.3598900100900995 0.5217140504146912 -0.3899736146499348 0.5847256802562768 0.25419031426831706
Ni 6.4883326162162875 3.5005075350748966 9.561624526351203 -0.0687502700915203 -0.805222973147523 -2.122640035040499
Ni 8.938715668900192 1.910366917376134 5.5896720994594755 0.4430712658058628 0.04678302179180975 0.7426765178738695
Ni 8.198456243145312 4.979054139249727 10.323763860333518 0.6713250627140761 0.4754121440304135 -0.10504653341939327
Ni 7.6675050380764995 0.6698992705967614 3.2605109606697473 0.3604033571919858 0.9137664639765811 -0.782419344989446
Ni 4.4513066786780335 6.937143886504915 12.504326810719872 0.27266111937899495 -0.05317324158886972 -1.464750786116355
P 2.0183960706937345 0.5754601051358715 5.494740335133711 -0.19311504422355127 0.7850794083201124 0.17946068666491027
Ni 7.10484972561423 0.6888272893858107 9.968348223699927 -0.28406344767866565 -0.9939776835198494 1.2982389463026285
P 4.802301888655772 2.1059805192435914 2.158432113037901 -0.2219042005411017 0.24112293956139766 1.281512120466251
Ni 2.167555377352963 3.0691687094858766 4.973880925230824 -0.5383041555689438 1.0555933994491176 -0.8328211944807656
P 5.5789599260238765 1.3635081023476368 11.668437463601414 0.7381488052068449 -0.7021639024718036 -0.6423515582998615
P 0.026771637180695803 0.504673092690708 10.325783330491962 -1.2184933535418692 1.9005972520390044 0.05217513934165853
P 6.400674092649155 1.2941831455559274 6.448356181268708 -1.4967386518768608 -0.11285137417579275 -1.3787170463540386
Ni 7.404159092288732 2.075119015171631 1.2090431725761266 -0.9126899430829507 -0.8580241761089545 0.34675054229524155
Ni 3.0121216868074048 0.6857337314768872 8.15599366543046 0.20493749077977608 0.6789542971245598 0.2910115968617247
Ni 4.772542250465769 2.2538712912319956 13.556370761995987 1.524083619548717 -0.419236111059478 -0.02436300222539675
Ni 2.9879824905530987 3.6735838129366076 0.01789096854720729 -1.5151868312797196 -0.9629164433386707 1.1537190373789614
Ni 8.163965063226904 5.288965492771633 2.4783148898226623 0.36745640738402524 0.30959295940833775 0.04310865826401608
Ni 6.067438368062962 5.297021150900228 8.203805385330242 0.7722015239161798 1.7524196917580916 -0.20947163120470377
Ni 3.093724577712351 5.204945904428109 12.003809326498258 -1.64573330874243 -0.19804282054247183 -0.2971063969055528
Ni 7.051765716359938 3.45402546173519 6.594433041271605 -0.20326575950430797 0.7561041041336849 -0.7578012893304498
Ni 2.5782643106310537 5.3510310978704485 8.041032016433688 -0.7592907293917827 -2.0651565961120495 0.4043368253501423
Ni 2.148731063588098 1.8191250148483518 10.87522273393476 -1.2842079221308593 -0.327390649711391 0.6271709939046812
Ni 6.365525496952437 6.462684141485015 0.7342936090511414 1.2676695581562039 -0.37223043173390086 2.014807968456169
Ni 3.550452615472183 5.3126046826593365 3.8478693654553244 -1.0759953601442371 0.3635974386492512 -1.5177985578709539
Ni 8.444801972468596 8.114445914178946 11.394862683865766 0.20712215713592072 -0.9187508045650499 0.5817133757925143
Ni 3.363533568757312 8.925650687728414 12.4866006590861 -0.1478021792193648 0.12892462558857148 -0.5112150126616357
Ni 0.8362763890837163 0.059701686110044734 12.460973480922295 0.7694175334131395 1.4123594169988323 -0.20649660773677986
Ni 0.7503438134190791 1.6177243022563295 3.3908005826160306 -0.39997032085133055 -0.1791112737452915 0.08412032478968738
Ni 1.192792965661548 6.238912773676114 3.7351170038487633 0.09380464195698683 -0.6139593803104136 -0.7511891833305708
Ni 1.6267707137409697 7.372954991261878 11.783575040764212 0.8718014323987051 -1.6913837595916934 0.05404870221528756
Ni 8.054334037660745 1.4669075670855851 12.561638651585099 -0.5191057282636221 -0.32549908911563297 0.06316763379742024
Ni 3.653018736265794 5.80987953299976 1.3278280184019744 -0.6079124027853853 -1.7316672897020886 -0.026785495623960317
Ni 6.453776620657765 8.273234973083852 12.683078160842522 -1.118377424654874 1.6732166017643633 -0.7819927989749886
Ni 8.034630083065744 8.61518377157695 0.7406038745852072 -2.085331785508344 -0.6401720341500394 0.6114414989845662
Ni 6.948560698542336 7.340973102553642 3.315844072636032 -0.8170847575821154 -0.2655185947969427 -1.6624832745072595
Ni 7.7394503986042915 4.301832553195388 0.19755714513319533 0.31210055632153993 0.008012071671199104 -0.7818398183368921
Ni 4.757403168810307 4.5908825299773826 5.613970557000922 0.8774573451329016 0.4502454149567988 -0.3863614718186443
P 7.686347870595683 6.912263940077865 7.225280888699001 0.499810627479436 -1.1910982493583682 -0.7076053852023491
Ni 5.028184394456994 4.868552732230592 13.343455087968653 1.1934950317253188 -2.284259322648614 -1.094151976448606
P 1.6636322942121589 1.8969223017408243 13.375532348261633 0.3955511087377123 -0.053590531631946416 -0.1891339480886162
Ni 5.138037645074977 7.099747808799452 5.070235855825973 -3.830976877546764 -2.901376531861719 -1.1851895971834168
P 4.911553279758401 7.559966631748342 8.931400760944342 -0.043045923346880705 0.3432211889857444 0.3896972210600966
P 5.717220945766605 5.050388380885005 3.6619632946016814 0.470230599829474 0.6351200735484288 0.4789690081437364
P 0.15766682239319751 5.817537037910506 12.024977188622145 0.3326845511204787 -1.4440235808713322 -2.566994024213528
Ni 6.157096917096504 4.002532445898043 1.8797618980514863 -0.9667211617967416 -0.21078597914075312 0.13254345328808143
Ni 4.183497713099482 6.5596113015886095 7.1918073143304015 0.5151745115300159 0.4887898508889002 -1.0262224024861684
Ni 6.579935634453283 3.498896403449178 11.731345672021726 0.2081529123932802 -0.5954034716850971 2.152813473300086
Ni 6.769475084904236 8.797167570265911 7.770343384558593 -0.17999933277719968 0.20144876090022723 1.3803548390677776
Ni 0.4504501800458235 0.4994137664642233 1.1118604536629348 2.230455646564597 1.814405903652901 1.8400554859002054
Ni 5.26666891257203 5.205871842144039 10.73127367880307 -0.10928911074583113 0.41337862383743645 -0.45112858889270047
Ni 2.9067314559802058 3.1995499992660372 2.624663049576326 -0.32158021367720097 0.7638955751536457 -1.041047897534775
Ni 7.005033639836932 6.044975119074491 12.127905351062685 0.5289869919330761 -0.5480617491763399 -0.334148794370831
Ni 8.910446790432838 8.225725108879463 4.139292520603249 1.1436763084309787 -0.5971669913434231 -0.7785364649952721
Ni 5.869945112632166 2.517393165185789 4.187239427409557 -1.2818548485176504 0.16676843590922244 -0.29574319800943905
Ni 2.136703132658162 2.6300705258373602 7.246340416110122 2.258416650553898 -0.06779536237741872 -0.03808600823844408
Ni 0.212369370774934 2.9204260747988164 1.183865074204547 1.013221619351126 0.315257871003599 0.1429636201801409
Ni 5.731878539809784 0.29926399572642287 1.5276398218734601 0.14988451566969024 -1.0974607291068648 0.11546284365671082
Ni 3.0334738105367594 1.0151703336146183 3.4741859036241434 2.1389040623078457 0.6993310610086988 1.2954212743481752
Ni 7.40327019208144 5.540700179601633 4.984438467067862 -1.775391984283549 0.9748733585902306 0.24785871562333445
Ni 0.5115407727297638 3.5067576146574266 12.270689576547733 -0.02255885913712244 0.5660077921317994 0.4788329967865044
Ni 3.3009957354233723 6.4645267575397165 10.184625051636088 1.0183414570761946 1.7041863106730006 -1.5662682233365672
Ni 3.6879451069106888 0.12536548517296536 10.361154151240504 4.150810540846503 -0.10395201480363388 -0.5319435034582387
Ni 6.760521267191189 8.105325427677032 5.498832979838124 5.056401668101143 1.3820288843360908 2.490736132891052
Ni 5.145296996767872 1.6425764705519015 9.13178109017341 -0.8604728947597633 0.04159453561233482 -0.478930184486001
Ni 1.7618465077408971 8.821195653994305 9.893947276349488 -1.661554849155719 -1.3908300275674885 -0.248293746278224
Ni 8.777648803214099 7.94356410870399 8.838867175302838 0.3886399834401758 0.572967254168768 0.05364555323959793
Ni 8.461431813846707 2.5931070922174184 10.469244416447355 1.047766704315847 -0.2936001835245073 -0.8136644190466568
Ni 4.667207575901525 3.582397466671782 7.490074075136767 -0.6783002084803287 -1.4877865848898957 2.4457300004940077
Ni 4.084135336802991 2.9807879545003195 11.388777421196671 0.4380383313676456 0.7453355527632712 -0.8131324578025867
P 3.3221348934780632 3.1589661491768077 9.231673102843414 -0.5458058632626277 -0.344706001061387 -0.3901497352164829
Ni 4.288786090777928 7.3298988874711135 2.8277813766313997 0.36853961314587497 1.8353274842969165 1.7111066919419178
P 0.11840150761145277 7.439066944179309 2.1909843793791506 0.07121492958192896 -0.14891341000567257 -0.863803501794893
Ni 0.06304246938912164 4.699041314575213 5.529785225806245 1.5748523654611524 -2.906422836036375 0.005762613515390076
P 0.7073747477736128 3.8907625042080842 3.138217736838239 0.10116905274185803 0.03033593197938001 0.9839321263583894
P 2.471864807693491 5.389253806784056 5.727062737749229 0.15271555736058218 -0.5076319232960677 0.6898915128623538
P 4.711022948619353 7.699264701732911 0.8390643875463827 -1.1110433528873058 2.2063122165491746 -0.15248338674511805
Ni 1.7904302050316687 7.822969980581214 7.889615273623021 0.576964034032987 -0.7599687292954137 -1.425433219463655
