# total energy = -340887.9028551217 ev
CRYSTAL
PRIMVEC
9.11181340944975 0.00000000000000 0.00000000000000
0.00000000000000 9.11181340944975 0.00000000000000
0.00000000000000 0.00000000000000 13.33605996094542
PRIMCOORD
 96 1
Ni 6.3309699905949595 1.9777920035845258 11.239364484754718 0.6833241440574812 0.467243235066376 0.5333673803889588
Ni 4.649002122441403 0.15671590186978124 5.5354913640631755 0.7403512121748024 0.03178397727981623 1.4131459174558694
Ni 3.1871847790259604 1.8856806814299127 4.843216781378658 -0.6353111065133122 0.12232923175924093 -0.8694956670836639
Ni 3.7403720853202236 4.5023383731684135 4.729526862614434 -0.2243539476331749 -0.4863488455475753 -0.2927432348408507
Ni 3.967812060817433 2.5786340942163717 2.019145968922216 0.5575789446381558 0.10809200511393642 1.1572188230021039
Ni 5.198408026154386 4.72682612110819 2.3985299895860344 -0.31065842455837467 0.09639451417135013 0.7135991408919388
Ni 5.147245193638988 4.65514348470594 11.589956086101457 0.2073620410608687 0.7257077512300147 -0.5380174775664606
Ni 6.012667011385632 8.135819774919959 12.25469203499946 -1.3342950685952375 0.45668320016234254 0.8096213593255346
Ni 1.6733572044443763 6.796118955346254 0.223305945735458 1.1591175826867133 -0.7987664188889017 0.9939712557619462
Ni 2.6176326557775296 1.9125240838502797 0.034504615168175705 1.3845549931920542 -0.05070061167866108 1.2885805972772582
Ni 7.919924467062466 8.890323487553525 6.839464763103867 0.8867048318730986 0.8388244632520522 -0.033872741488044894
Ni 9.354552159146484 2.1068152820205057 1.11999404015055 -1.296646405004528 0.5093512199800195 -0.09640377014273074
Ni 7.021171635719861 0.5959982506024274 4.726926351056127 -0.1061698483905591 1.3761197179405074 -0.6869781958703007
Ni 0.580127293937188 7.49786526811087 2.817002778764154 0.14674931247481823 1.4841734136173408 -0.8712825837807576
Ni 7.904170141609372 3.923856672740091 3.6151393212789733 -0.4427426788218504 0.5838047111039043 0.24221617262557643
Ni 7.783374830717721 4.028469402946551 12.415244921512562 -0.645571865009372 -0.013644844476944244 0.5129638770319424
Ni 8.397228590954551 7.6341051027983555 8.870813272596807 -0.6706925713363998 -0.988578366881149 0.5570228150243697
Ni 7.0004058128698885 1.0524691242250193 0.1601711015295922 0.029388480464446157 -0.25364678306002125 0.015361570057734832
Ni 2.309352671361957 6.751152155976087 8.919223426269301 -1.0761123453380756 -0.45547478167653815 0.490429186264536
Ni 0.30564940387288375 4.840049515023831 1.5238715265462723 -0.2917145364660202 -0.62622868459607 -0.9087854658222221
Ni 6.721210736983105 2.0107129855752883 6.933471342455844 0.07725625068000243 0.19550874126670845 0.1371503559324735
Ni 3.5183536388250904 4.487559011754349 0.27883607043689806 -0.7329927149272022 -0.13753396452413733 0.6900414081766567
Ni 6.023446286695643 5.803951812525848 4.751918232983684 -0.0009999020194240843 -1.468716198522006 -1.0089361046018945
Ni 5.135244935326828 2.8707861688274465 9.125718987372942 0.6687691290614418 0.11578834531692961 0.26120119836851147
P 0.35437938219743315 5.528601921914487 12.43175552748191 -0.6313341241434353 -0.20795005235385478 -0.05685171888172145
P 3.97621315281729 6.461533165503798 12.773611633275218 0.7962858185588931 -0.18988805264582137 -0.8426183830768456
P 2.2601397669246177 8.259868003212857 1.7849787415557066 0.6594000291417159 0.6033528084391608 -1.048243901062582
P 6.368829575475009 7.761360689425254 5.312779508564585 1.0950721742700302 -0.06574799293008678 3.2558365269860765
P 4.678843311486447 1.0150469063905159 12.541697757374616 0.46511641853136027 1.6423453661068035 -0.5919872469146966
P 4.266725101007569 6.393048775622101 7.890133392991389 -0.11561993805986538 0.7100888137458351 1.4007935665381037
P 4.900205707413262 1.07557668313135 3.47897784818715 0.5881041098102064 1.4568148190987298 0.04833005456395548
P 0.146529805615291 5.776661931246485 3.7420049222902607 -1.0633966975436202 -2.4392878444130894 -0.08122757662292464
Ni 0.39195832322325713 9.45049955476307 4.752772009903843 0.9840707088187827 -0.058973650320730694 -0.4242741877040177
Ni 1.855083211868612 6.38218749399105 4.902228529998911 0.20023828553189385 1.0841609266741652 -0.8672127845867582
Ni 6.116960828121382 5.848554139358059 9.121171281280612 0.0099797369205312 0.02015256368847497 0.7092611756382171
Ni 8.608504209393468 2.6740803400932704 9.972705784149834 0.4395771366096752 -0.8197345365001365 1.9285418009680724
Ni 2.5662693633662568 5.122934875357406 6.846773348671205 -0.5454299679804477 0.43178849380319184 1.277111163185078
Ni 0.87818017893775 9.361386019233136 9.0205240122871 -2.746085757574793 -1.7911587601995023 -0.0904228699689475
Ni 1.5941026510661167 1.0852989880812929 11.5223291178653 -0.9952809757123052 -0.7488754475957295 -1.3985803609368688
Ni 4.279490751649433 6.903601906789109 1.517323777401915 -0.5193584677043764 0.834529435421124 0.3228310553651666
Ni 6.038754133289743 7.8981381211062205 7.683797288623104 -2.147133392196173 0.17815019538360286 -0.06819336914678578
Ni 5.627702004984382 2.904809680245522 4.946277769754776 -0.7662167670876545 -0.2055067330196848 -0.9612843070518864
Ni 1.1088621376600671 7.953610841382933 6.889422102699979 -0.7438633390931189 -1.833172642737443 0.9250003850191876
Ni 5.110606591761087 4.702679815468688 6.921815510692052 0.5978411345923124 -1.3548168426976732 -0.2124685090494986
Ni 0.7523843048253596 7.286534978791261 11.147239494879933 1.071752268597167 1.1664999911937137 -0.3986670286588747
Ni 4.645220719860122 0.6013514410036377 10.26832581495955 -0.6938342995601857 -1.274897957583843 -0.25834444564600667
Ni 8.607556580794785 7.353497695826997 5.175858110231125 -0.83668479120123 -0.5228130019118802 -0.8743619940370296
Ni 7.378391170169305 6.0544446760486945 6.9054916968984035 -1.0511428198769317 1.0569332013064636 0.3609389179804816
Ni 2.437975030006187 5.3203514255405935 2.6045590258410924 0.45197191072960224 1.4068253745544803 -1.9011636660654354
Ni 2.5069970168813667 5.453365678267178 11.584435238332787 -0.8167469146267224 -0.966218254018394 -1.2746567881073143
Ni 1.364940542827071 3.7832158321568037 3.7001835209226437 -1.798902151590347 -1.6787429308992317 1.3741553951252852
Ni 1.995332244473598 1.263052244841822 2.5369183898847614 -0.5229418141802608 -0.7839118703745726 0.7224223956105235
Ni 1.056441874888726 3.3346230324421033 8.040057349116385 0.22246881479532007 0.7345536316564188 0.3149827629653414
Ni 3.3254656599259906 2.6681394377246086 7.199018744158913 1.2112991497862753 0.7364102252491833 0.48551015169636375
Ni 3.961871158448771 6.809604439250579 5.804040197116302 0.9990684677791957 1.6449894885978702 0.26793980264392564
Ni 1.0545375058779125 -0.005800580441549766 0.22355014233588769 -1.0776372666230343 0.4945406373297483 0.6745908779495414
P 0.2744924689658224 5.823469316933324 8.0756508259917 0.5618698587040258 0.718704323328988 -0.8859129320994227
P 8.668359711939086 1.643953382444877 8.092694473047809 -0.756450174619194 0.47224840159045123 -1.5712093693919262
P 2.055871133027881 3.478981492912529 10.23514605746684 -1.2130750107397752 1.3180369548651623 -0.2266337448062871
P 3.814405569592281 6.449815373408553 3.652480443973782 2.141932564721524 -1.8847916524653152 0.3112641764631736
P 6.829058160963913 4.000432352964383 10.388510634350126 -0.11234615240460005 0.5130050146825229 -0.9780386436920897
P 6.3514989062952605 8.006076663221519 10.100371402381933 -0.050257353493655385 -1.0371909856825299 -0.5756913379681505
P 2.413272903746304 8.819050882756475 5.553268512101918 1.0795869341502373 -0.1391262487119217 -0.6817809679400774
P 6.980678736753088 4.076297311739663 1.4117953099438432 0.8909736344517817 0.1490648479818723 -0.44573698556348396
Ni 5.402567318289735 3.1458353695949945 0.21988628214809763 0.8866590662368278 -0.9163293396077509 -0.6442030096863035
Ni 1.4779725886602861 1.2100123787559578 6.813299279604096 -0.17733824100526877 0.6346955844165004 0.17746833882522986
Ni 6.88410262600853 0.7090895232230603 9.02208486593089 -0.37625806483605523 0.5053343855111426 0.11035791832997768
Ni 2.470331079563119 1.6195883932826023 9.401015118284956 2.4113540941172986 2.077904125585705 -1.1788783102534084
Ni 6.586437904260889 2.054212782980187 2.461236578559803 -0.06213045078215751 0.7046681569508961 -0.025670922403542882
Ni 4.279190061805621 6.976769768783524 10.592845784485041 0.166635509875784 0.5503909115301489 -0.1356809704757986
Ni 8.448837902328941 7.5229683141625046 13.292957664420385 -0.9388560599553574 -0.04097335708856815 0.8425859871770135
Ni 7.822910989272362 4.134002426311348 8.267636735359362 -0.7200343549943211 -0.2812331773187221 -0.31178431063270173
Ni 3.104549742858171 8.56483128753304 12.526374420697653 1.1667311333679131 -0.6320656029928211 -0.6100605594766397
Ni 9.532870348340843 5.076501074021972 10.039038874876255 0.07497491084499346 -0.7627748312856413 0.9061207745058653
Ni 8.897476261110887 2.5860055512965063 5.781675251006053 -0.5960303066358187 -0.08975515447796155 -0.4350607367965604
Ni 3.692890425438169 2.804005688060688 11.365083819634139 0.629088008421736 -0.3047711125396622 0.39898147457549993
Ni 0.9541708807386245 3.264616969714446 12.261307211563338 0.5771195857742447 1.6036024410106513 -0.3187044347913027
Ni 3.1473388188140583 8.814203398001677 8.072583789584812 1.8654446153972712 0.2090638542433238 -1.6285280006077374
Ni 5.901174862025275 7.99423130573799 3.298314278211052 -0.4207072962883658 0.05357587634392708 -1.5028483643190247
Ni 3.5259802266817935 8.521431720076079 3.5181595571986297 -1.7157521611337287 0.7941371476470066 0.23841325393971843
Ni 3.668416094514508 4.693358430310496 9.159285996937228 -0.20412425084986136 -0.3500040162355327 0.7345243210803801
Ni 7.577775872057449 6.472139316358281 11.361082822348742 -0.6775142222439235 -1.3796328733000884 -0.9387886970525317
Ni 8.18800313054163 9.268354403920187 2.254421192804108 0.31015191723560137 -0.5748225622099521 -0.20846170188295063
Ni 4.93767348431501 0.295684724685201 1.1897650180912267 -0.6716842458257076 -0.13507213324720607 1.218425219308095
Ni 6.119120327908765 5.935617516861999 0.16781409065050323 0.042942050779164756 -0.03699226095363307 0.008773375317255857
Ni 8.06790942928554 8.978972320597569 11.116765945981538 0.8823462977940867 0.4322273811128234 0.10351467015589913
Ni 0.09557016653980345 5.0974764685812675 5.981796187420865 1.0582547483313645 -1.5393626571949746 -0.6594177697535288
Ni 7.53403005568943 6.080714034221783 2.2127856724308477 -0.6539341209311383 1.175270281187176 0.9455226733422555
P 8.568284664830161 1.8572062644021985 3.577811866304338 0.35036345645748046 0.023313992135592106 -0.7772105470949969
P 1.9720697847386364 3.347142664120849 1.6526041381332328 0.4997967435223651 -0.08083085540513821 -1.2724672366551635
P 4.857899557570165 1.2104041867342592 7.7746293121694965 0.2686067468039632 -1.0973697120549553 0.22332473503771214
P 8.649844507010984 1.6057748840941175 12.292073249673445 0.18310728227856207 0.5390870564815555 -0.15418854236168286
P 6.634776074607137 8.011206614193231 1.2010846239387563 0.5385144718075371 -0.9302402932618882 -0.37949919748117217
P 1.8338982455999924 3.4613592457024174 5.752456398819566 0.5909024984909501 -0.8018388871666384 0.7844937110199716
P 7.155871573934485 4.013535140703856 5.982529688403499 -0.40427280488142625 0.8080447588670342 -0.05922767531306573
P 2.517666950429992 8.64062335180073 10.117415049438042 1.0798766974765146 -1.3598024688377228 2.374851114095258
