# total energy = -340869.0251797459 ev
CRYSTAL
PRIMVEC
9.29329134470310 0.00000000000000 0.00000000000000

0.00000000000000 9.29329134470310 0.00000000000000

0.00000000000000 0.00000000000000 13.60167126325430

PRIMCOORD
 96 1
Ni 5.211789150557893 2.888642956029936 10.017005180842554 0.09340277853287784 0.7861194195488526 1.0425103410129144
Ni 8.387427521357 5.871770802350596 2.283557703906391 1.074647330756775 0.2697249195688065 0.6791378738902755
Ni 1.547611761592844 2.529949800669346 12.68704019241623 -0.35801840189957695 1.6415123286825475 -1.1717362998919887
Ni 1.0645557851571599 6.193588178752438 6.816395736943103 0.31436029888999406 -0.3189911127937861 -0.07898891710039299
Ni 0.1777304743635291 6.975916007458429 12.181016776434515 -0.6446812348743026 0.7294859873255243 -0.07744651231393758
Ni 7.911016248035104 2.3624010560001736 12.655552663618844 -1.5226895674146679 0.5287602206342507 1.2082012275872418
Ni 4.671570140761507 8.037395713272003 4.649935359154661 0.6971656779262638 -0.5962977013645925 -1.0152414779946322
Ni 3.910672641258862 5.596466347745262 8.352650167521459 -0.20890444584732407 -0.46322305816338927 1.1917474529065928
Ni 6.474226982430939 0.39249006698843264 3.197643954719577 -0.6171490908923049 -0.4512599722642422 0.06678183351123983
Ni 1.720671427865479 7.964350445475692 4.768255682377191 -0.7684885938409668 0.8720570000529368 1.0291285203893696
Ni 8.165763942797508 6.060117932430476 8.023040366558904 -3.190621780851641 0.35582782200616137 -0.4348961861942381
Ni 4.1821017934887434 4.178495996554269 3.150962824354736 -0.6117423180544368 -1.4233089740318003 0.1332152825441254
Ni 0.17816354172730875 1.0136285501032432 6.187686009595003 -0.07929539259721828 -0.13145124866516716 0.6137428934242334
Ni 2.7770026504272525 6.384983508302697 3.473757854976955 0.9417071562509072 1.0577667529513524 -1.0556859591629237
Ni 6.535051572472523 2.7359170106145947 1.575780656149765 -0.602571450188446 1.0423025958774823 1.0765597172881394
Ni 0.28385614104632284 1.5681127616893658 0.8234422777209612 -2.052758479558013 1.5517330058348695 1.3986814052911072
Ni 2.5042073844103405 6.983452866514766 12.342061146685031 1.7841000535805083 -2.075613786889632 -0.20954619319638107
Ni 5.205153740735175 5.116244825085389 11.13207000295556 -0.4771676932689395 1.4453926933047172 -1.039868532514693
Ni 2.6012200498716256 7.745437681072396 1.1051442338976676 -0.4901815890301042 -0.6738408871573943 0.8655893900507221
Ni 2.6760496295530376 5.143111729563651 0.4981036733333667 -0.4648253696535027 -1.1305454274759754 -1.0319482492263519
Ni 6.524838245588535 7.091162109995587 2.201403152204998 -1.386929921182134 1.0191796367067738 0.08807853810648703
Ni 7.042223639230272 1.2842491860101886 5.606023568279833 -0.2943064655629125 -0.6831490519321977 -0.8014755902899486
Ni 1.6061037355763024 4.316129637274799 3.104309573863099 -1.752363898819492 1.21840696447565 0.04968631148153378
Ni 4.975860370208662 2.741028320702123 6.091467920520053 0.26512033091725956 0.6298110026306896 -0.2376979730402487
P 8.309373169674911 4.896718703471588 6.2108086471018735 1.7739300550260415 3.4727633289172446 -1.7943322728314774
P 6.288565613469779 7.148696874999018 9.18307263616377 -0.013763629442995652 0.2736039429082385 1.2173361000089746
P 0.42776182390880424 7.0406251931665365 8.805449976226297 1.2960277975839227 0.0846142337069704 1.4244186621562112
P 6.753323099792112 8.462842578375712 5.381514383995246 0.19475875047456134 -0.2387706372791372 -0.8889892570319012
P 4.588004867475957 8.550654885679446 2.140644544529997 0.25786493490642687 -2.7299325448536984 -0.38915034741769106
P 7.663145588663193 0.5192830836778698 1.3104144470127985 0.627596254367558 0.2579706072463557 0.3572797239613395
P 4.219693155859746 3.352610512611469 0.9942520382259772 -0.20812283048629318 -0.3646503053937978 0.07867138585997419
P 4.609063465036573 5.328252674224989 5.011412784519294 1.2182791806485342 0.34042202897405244 0.716398815124263
Ni 8.84715733721142 1.276414941639668 3.2556415256182056 -1.3924205119830602 0.5714577595027771 -0.1025754461710814
Ni 4.166377545001294 8.16090355156882 8.603206588012089 0.004352620541740891 -1.7440582071672737 -1.5415786910096871
Ni 2.532180190525722 4.9728121707382815 5.092247688888998 -1.104145597326208 -1.919855328937668 1.3507688978805448
Ni 4.122438864830688 1.2347624110718478 2.397987855487758 0.4570248997724774 1.2686378356067443 -0.9720752270198033
Ni 6.894144339349047 6.554000592960651 11.63699123461658 -0.0006939407432310629 0.47004008108522277 1.039216757863307
Ni 2.468465386961917 2.341138006036056 6.095030968315613 -0.6043779072695655 0.30008656257979927 -0.27895569413845506
Ni 2.228020067153524 4.129501766042544 9.540225893194355 -1.263156757887515 -2.9359424427620473 -1.56843772018406
Ni 7.473004853407145 1.4677080449881763 10.204122808514104 -0.20717820718483673 0.3595070706299615 -0.30110703342451367
Ni 4.077338523276553 1.3182812179020578 12.118830719251434 -0.23139131409593053 -0.11457838416922848 -0.9516264722471481
Ni 8.63020545722352 5.602153841879021 10.495117126429937 0.3649344122931199 0.3608067632779915 -1.722598751741917
Ni 1.340389957353384 4.831823651942118 11.78010791706737 -0.019991612630578474 0.3033269238939679 0.7176897660215447
Ni 8.393700492828058 3.612385877841787 2.5053867030469 1.9584987523414787 -0.33381095141543804 0.19158549495290228
Ni 5.853639591476475 1.1090706493739961 0.24713463071930689 -0.6625246908136267 -0.7597211320609819 -1.2030803614209087
Ni 9.377581218221886 9.059248825970634 8.313286574543746 0.0630457635075753 0.2043348241987707 -0.024100749702945592
Ni 2.1422801637580062 8.075916404749831 9.579793009246462 -0.6291785112530132 -0.2791958351737192 1.7093873952579657
Ni 3.351244398824439 0.719380650984422 4.632824551639831 -0.12416319964418616 -0.8490250579341379 0.4015592626050052
Ni 2.1952333362647978 0.7152962495599337 0.16043194236912017 2.240651613260993 -1.6323769420401821 0.049668827980037036
Ni 5.657207298167233 3.566625712621807 12.94050727166943 -0.8756007515401373 -0.9699119008198973 1.832900877133295
Ni 8.699040864165921 7.952399273161945 6.23659752981622 -0.47636345220008924 -0.46256794107789373 -0.1589841639781133
Ni 7.50606108973685 3.215562349228237 6.745122699753504 -0.4551690775106612 -3.3412151496628972 0.9772634560889621
Ni 0.08070015164921503 3.278013265206763 5.037420059573743 0.4231827544120518 0.24022613877874113 -0.6485013799513412
Ni 3.630033837580361 3.6558227202947076 11.714819759325714 -2.3307674935124827 -0.8520445614867518 0.0639991285597801
Ni 2.3111299691767315 2.629536707756531 1.9309609474865623 0.6612018582371451 -1.3035289910569743 -1.1473820394173402
Ni 8.47699626067263 8.188560385787882 3.6489614834990314 0.1310406434903098 -0.4946933608575287 -0.0486936085509613
P 7.005347860271524 4.0068210306508005 11.505136162282279 2.3203275291260814 0.49672530368589296 -2.28935344934207
P 3.05576420930997 5.561495693455502 10.59849012029832 1.1898417512434476 2.307412877946942 1.0241076701360103
P 5.8767612996542375 2.0981742043481724 8.057629995914867 0.20989663455726432 -0.1308958903823294 0.14434378835711914
P 6.190558565864193 4.877974135386963 2.7871592882357246 1.3065760054134141 0.9339863905678817 -0.8840324272472582
P 6.197723693277802 0.18959336041212851 11.482530231758801 0.0071684927239812025 1.0647272434295856 0.7435514642796549
P 8.281586229380896 6.625874906082365 0.34288433792441847 -0.9714689608943722 0.9388043807818155 -1.317154295149893
P 1.0083964272318278 7.055355059509685 2.471450392053033 -0.7903188023421809 0.9560564829940437 0.8497796767119752
P 2.571862543387077 8.72377960498956 6.691369374885737 0.7723776444827279 0.41107980050093074 0.1581344143833083
Ni 6.778758837445866 5.855581889309734 4.88845417972461 0.04221879945989503 1.2873356691265634 -0.42391731858523124
Ni 8.007582835525113 8.399945584425911 10.444600654841237 -0.008779031744210688 -0.3697251488135439 -0.6225568921714375
Ni 0.16052859259622979 4.146638594772366 8.327215359196812 0.08191997470425891 -0.4040267503088913 -0.4090753684763923
Ni 0.6606516980787236 1.2224859735707119 10.057197735383554 0.485124743332487 0.533031851426411 0.2438351962862381
Ni 9.168993300195398 0.6699663637164135 12.18077236287942 0.9407437638963734 -1.6776720664325557 -0.4599109630710209
Ni 4.896616477269839 0.23710809898579027 6.728474698133871 -0.8699175851124309 1.1107816145854872 -0.3528286301685214
Ni 7.312974381212173 8.474886683600142 13.154733429387017 -0.11415620903014533 -0.10659870839786158 -0.02881461023884715
Ni 5.9211553510871875 7.4324024647300355 7.114244786350865 0.2904094445013515 -1.3633176810798326 -0.8334801682210031
Ni 2.3437680074083658 0.9031991603267506 8.44172729173958 0.5889114362028502 -0.9059847631486333 -1.8250662115802245
Ni 5.851028176686301 4.853179634816918 7.063877936748361 -1.253541603395254 1.300890782103179 -1.8335696210655454
Ni 4.816601241172352 7.983894236592186 10.981227807639748 -0.43913284998340496 -1.8289557764426179 0.11853634037571198
Ni 6.831396038056337 3.4183791335013543 4.3158777890868505 -0.07015692063105981 -0.4158304278120387 -0.03937515936351283
Ni 0.26637731920519014 8.446365573311734 0.5397385466481575 0.10013238394722755 -0.3988752880149389 0.7990474404644303
Ni 8.082040683563795 4.514569281454779 0.1765539437142908 0.41102966398928564 -0.502919862532379 -0.3480268379045039
Ni 3.595843819740332 6.699728690201613 6.351531377773485 -0.4172938997314426 1.2150599023802882 0.32696281814535305
Ni 1.6285191536328805 0.14067998153269773 2.5494833691656655 0.050772859677493204 0.18738534082862568 0.8997148709795214
Ni 6.869944609407368 4.091901110380474 8.83765866441058 0.9374152137437727 -0.24659630397114304 2.4867714918163495
Ni 4.23771284724105 8.561909061163076 13.350951047672583 1.1417410390814788 0.05892299958845336 0.32731197395465567
Ni 3.7759756805158924 2.82803211168292 8.024386964434692 -0.4902849473771879 0.7002242622469296 1.2125147673609311
Ni 4.753276755833412 0.6605085813962728 9.682186490236253 0.45374777168310243 1.1651743304037545 -0.025677093051129973
Ni 7.005756765078527 0.16331565058759287 8.01487992767189 0.14755586753651362 0.2774369435010835 0.21256106876330488
Ni 4.245407692245546 6.109418841547452 1.6974883839666648 2.5051805904511566 0.7698836744162805 -0.6154459921582691
Ni 0.11214957795322236 5.921396976654961 4.444087103335087 0.2051984577506466 -0.1774164025413719 0.7156133431084901
Ni 9.002485404125867 3.365611826815927 10.817572022599059 0.44265371865246994 -0.45142092332213873 -0.5692586949689292
P 2.205660408843355 4.227871251999791 7.040429104724996 -0.04406048065432412 0.219121495589642 2.5385316551077763
P 1.7940698407223834 8.81275357367682 11.969729157352702 -1.1071561020177578 2.0057983087583904 -0.5161839266311369
P 5.159486508425878 1.9618323310861259 4.1890699031317045 0.40044468938458777 -0.48242842744724657 -0.9469123546009305
P 1.2636645462940523 1.4429785974556082 4.421739526303306 1.1775832455910686 0.17567756547339422 -0.688962059069549
P 2.9257324806832536 1.9681053025571829 10.20400106640111 0.5729595408592842 0.9319734739029112 1.0727822525235782
P 8.877704384952702 2.070498783546974 8.11924544502636 0.4593052111662218 -1.1208672809562632 1.0409527667178073
P 0.9120296454997857 3.9933178787286576 0.9998939952335014 -1.5719791576784155 -0.5474793943103088 -0.8505957448553674
P 4.684785200660535 6.4473414913705405 12.90108977760352 0.18582056744466707 -0.2987966401237822 0.29064084378586724
