# total energy = -340855.96495755407 ev
CRYSTAL
PRIMVEC
9.41805745036303 0.00000000000000 0.00000000000000

0.00000000000000 9.41805745036303 0.00000000000000

0.00000000000000 0.00000000000000 13.78427907043783

PRIMCOORD
 96 1
Ni 0.19094075180030506 6.150773112622565 1.3283670658062081 -1.2675906252891525 -1.7829913938973614 -0.6078465825444563
Ni 0.9889619424133804 8.845750207688502 5.547786703316086 -0.24628288649578225 -0.7529033378082001 3.801975605218407
Ni 6.052627537547666 7.203401122352548 8.525728388015244 0.7388895400276113 -0.241823565172848 0.33686156531630373
Ni 6.036353134541293 3.0571484883588265 12.906399293507548 -0.7044596404845158 2.1011042178512525 0.07183507966443112
Ni 1.3679634040930706 6.585359948459443 8.834688699395107 -2.133559253056164 0.8592613909501653 -2.4528218743437824
Ni 8.480386092972486 8.562087740009693 0.9151516855839509 -1.259735648021108 1.0734587097653125 -1.934546098180623
Ni 7.8311617313744595 5.704715082999944 6.2264961768886815 -2.3803134227614104 0.18130596740376517 2.058702098735958
Ni 1.060539177858081 8.795401273387531 3.48616831052842 1.198686346118271 -0.053703403060726865 -2.8090279056249687
Ni 1.2952277476010414 8.06747020697222 1.0215295845407193 2.858857427552586 2.058598226168242 2.0862126454514005
Ni 5.263488516769842 6.296338606179577 6.189499222415337 0.40533518470766966 0.2801941945312465 -0.9592042845944061
Ni 2.9480308765348395 6.666929742694515 -0.1084150247497537 -0.4284967104257975 0.6522988993205604 0.45906918389601586
Ni 1.6125503520534497 0.37681270516424986 13.036716010497651 -1.1430523016937348 0.5922582411878962 -0.9348657078490417
Ni 3.2079975120585336 7.8468427967712255 9.302223666874056 0.8096915504418377 1.1689011444360384 -1.4305566567331491
Ni 8.674887812236165 4.787904877526282 3.537197228566115 0.40379895056880133 -0.6207874589758405 0.5173193257871607
Ni 2.808445849360378 0.903137069892266 4.749648728792548 -1.1816083075900619 -4.638804892417301 -0.24193489393973172
Ni 7.4950406845605215 1.7667710402648937 13.902685659079527 2.61815409202711 -0.4784046509998341 0.5952340359867684
Ni 7.783949010152843 0.6517116705297298 2.5581967653540314 0.4554202742895189 0.9230648585593716 -0.12052920243602469
Ni 8.553507889813625 3.172708051372837 12.249385256720535 -1.3104306032728141 -0.7790655980258647 -1.2481985939157858
Ni 4.71472657234137 2.5743317811124347 1.6630047685961271 -0.8553342879816171 0.3152290746481926 -0.43608840673012633
Ni 4.794704714893529 5.401849196495907 1.1441112510741465 0.032450664329537665 -2.052470258893633 -2.074148258087699
Ni 3.4222677335851635 7.638628386085509 4.87023376717936 0.1462366345044578 1.3622774127407766 -1.6760373590426103
Ni 6.686104907347859 8.01395680542001 3.1229665817674177 -0.3400235079840531 -0.7669778136233952 0.4629628625234672
Ni 3.682771198374693 0.6679710046444313 0.3568539581439327 1.1973478298125055 -0.8987885025105101 -1.5735647569979805
Ni 8.176465384051367 8.662126344600958 12.438450873313334 -0.6155843175083463 1.0225845486232648 -1.9882844682443435
P 3.7980199654979563 3.3303569124397905 6.5709653896892215 1.4351679302529154 0.8585083148342247 0.6827165923804693
P 4.788969118000657 -0.041830301477320836 4.625577125594996 0.7809931540658809 -0.5769766324384773 -0.38032760691973855
P 1.366296407951793 5.795476901155284 10.77463332637262 -0.32589529611278717 0.24943865851594457 1.2246755710931814
P 3.0619140253502763 7.671422061587937 2.5426889922114992 -1.5289286063458445 1.6995138448979954 -1.0573553764455468
P 0.8144265046158548 1.1898396864660148 1.2935965400774858 -3.0528759574270135 0.00018820475140612748 -1.918504214226412
P 6.146233609006203 0.3500456445251204 0.5302535782316384 -0.9004620335581912 -1.2717175029733325 0.03921009454055828
P 9.160313321353371 0.9858445654486178 11.773111273877223 0.10688512929002882 1.4268722659030264 -1.0135890299928736
P 4.364629128501126 4.312961666178806 2.9501800772096396 0.3597204721923482 -0.8569587109589177 0.17604394767387743
Ni 4.783195848878604 1.4934966897828623 6.122411574883332 0.9744568398781024 -0.06403563822467036 0.3836808396626876
Ni 8.063844254913509 1.986437808621762 9.682587921444386 0.008737636983313984 0.10032290269147884 0.613856279073646
Ni 0.4057383845354747 3.2318440331303737 0.2882387017186213 -0.20728336530413333 -0.46293175217521565 1.3512998306833504
Ni 2.5073317215132764 1.143785386291727 2.2396008395552913 2.7090184204088503 -0.7497953883068378 2.122295250106571
Ni 6.9124584963844296 3.3380420471928005 2.051031554581957 0.7034548533690853 0.9056991135874144 -0.5561699801057712
Ni 4.029675920791812 2.9529471024430154 9.160934913134863 3.3004395104074318 0.15239159836226013 -0.6982301146350361
Ni 1.2959152657836022 7.940665483547556 10.900014981339954 1.1133303491492696 1.395920040495886 0.554627832429632
Ni 6.3415170270253975 1.9216604105443078 4.061813157700753 -2.214485753498902 1.0179977005835308 -0.4693001175954047
Ni 4.534050561187273 8.567644393813953 7.157404272327762 -1.1212421477971788 -1.5911243631482983 -3.1229616585005053
Ni 7.18279441299031 5.90415186428639 1.894277408958062 -1.1432525906299986 0.8480840341771073 1.20676218114787
Ni 1.1703725620365153 2.7199349468986282 3.2853451912080986 -0.05553068607745275 0.23780107427701627 -2.3617875960430808
Ni 4.611033761519508 4.12382823957348 11.289806711262933 -1.1025926510167914 1.6738922876751494 -0.07992248465825591
Ni 7.392996033765347 6.69725588718556 13.307052868909262 -0.940183263407213 -0.5058987426550448 -0.26263921636661863
Ni -0.16883939674529463 4.16689701558514 8.912404624584921 1.635245264726913 -0.9122729101501902 1.2050400562504409
Ni 0.02330309916589777 1.3068402122462144 4.663745686395883 -0.26227669082087735 -0.9336482905021728 -0.6708854040734963
Ni 4.885824419226092 6.177831191232121 12.601959649629457 2.6021916551605826 -0.1704101464268678 0.5386785081892271
Ni 5.285818730617129 7.7416525148394015 0.7214260142414092 0.06492498280815916 0.1835058032685614 0.19113169524493534
Ni 1.6590096286914375 6.127472838873856 3.125309794422502 0.16817508644876197 -0.20054758924219657 1.3586686123435958
Ni 8.634879904845494 7.684400144540937 9.981789241854798 -0.5871777413411952 -1.172821305426051 -0.9118381366056167
Ni 1.5099123636486667 2.781538459667548 11.762827697116425 -0.4555303175048219 -1.808761046662298 -1.0819279235785884
Ni 5.609865827978421 0.9436328326508351 12.1171670339625 1.89908132961511 0.604024637695205 1.4165747406317604
Ni 6.902173977817902 9.174129611405657 10.227272788869696 0.025458292172104543 0.9851629134416969 -0.7446544675358466
Ni 5.439964074370209 3.9547929472364416 5.0934982334230545 1.9747257557233022 0.3036187441027739 -0.41159993467045886
Ni 2.7179759909811945 6.35893101496451 6.487432872313797 -1.3811745067555954 0.2797483652430795 2.937687964698244
P 7.9623835236706455 4.768795639274005 0.34275135914986765 0.8804038293557352 -1.950379979889086 -0.8954596952475933
P 6.733986310637445 5.840335108053062 4.398232756930954 -0.24419129407407622 -0.17771027963270683 -1.7024011937481196
P 8.253966577534847 2.608029590115216 3.607580254345764 -0.5630232555821787 1.2343259496987515 -0.9270572675482163
P 5.975286451038208 2.8176472913379405 10.552926606805576 0.8608490471522595 -2.520097359661989 -0.357422677297107
P 3.601126059681257 4.109597555000198 13.484085033695786 0.5902370969928092 0.23022737569481638 -0.2731678838120844
P 1.3216830705436944 4.042145428650863 4.7776307188227785 -0.05721912952346919 3.3678353233535865 1.0022761760832157
P 2.0833590362482637 2.59104883281169 9.415999449836326 -3.0354227949475723 -0.9492065499517459 0.8528382610326408
P 8.836633528226598 7.752860003020875 2.6968531720791713 -0.22909377631100541 -1.704336977318252 2.265926071557065
Ni 0.53079794194331 7.2150889314560835 12.954644233808738 -0.250013300072492 -0.9076035296989788 -0.8171490351611475
Ni 7.180891965416649 0.11439549113230435 4.993120578769156 0.02962013685927802 -0.18378708195440605 0.34867424168051564
Ni 3.7457591655660294 2.2556906486386765 12.235752618785508 -0.7853061796189378 -0.33309155675091023 1.0693832541443582
Ni 4.698725292996562 8.949923339432427 10.882412632254935 0.7115533141065036 -3.343518086764461 -0.3837690285011197
Ni 1.6204426840669572 4.836671578201632 12.667986823910006 1.24034901596438 0.7500830947505855 1.2148614132162368
Ni 0.7424160385355677 0.6180524755618592 9.314312685218374 -0.3904893779440888 0.014579183365755538 -0.33129898362686167
Ni 2.0589380136814075 4.516485884331435 1.392143324393166 1.300940918614824 -0.1486053918469505 -0.05402504806620373
Ni 3.4192916274798315 4.992926566788872 4.873845592152129 -1.3594787669497168 0.742911773813127 -0.7805272701730558
Ni 2.86734637968553 0.6847464482989183 10.484667352946026 -1.383072752219573 1.1604373299394015 0.5133755106480643
Ni 7.949311260144692 0.16725527950821586 7.785842981474938 0.6836686718810936 -2.0058276193344295 0.9462168711958027
Ni 2.5539322690106947 4.774879704286805 9.397790577861485 0.7532388667707478 -2.0844655808533066 -1.1551310872351397
Ni 1.9380384121809306 2.445869479603787 6.1529157206572584 -0.94718334887413 0.25375579783405977 0.6336856550947474
Ni 8.968721781793956 5.3814967746806435 11.806662161186198 -1.286982656662519 0.6479668476041098 -0.6466028773770477
Ni 3.112893969490035 0.9625631278144993 8.058578619079675 -0.7239442315716886 -0.32745132774599733 -0.3698789007825888
Ni 4.934101380922082 0.2262518740177809 2.3088941961058684 -0.19640579915968112 -0.07718683089464771 1.858940495730166
Ni 5.825878390104691 4.1183657663421736 7.411696528331004 -0.2661436299754513 -0.03862414013010122 0.750193909296837
Ni 7.369865285047954 4.307047126197323 10.213502647298156 -0.22137661017240584 1.28920408979387 0.1835022037241356
Ni 0.14505315124014512 4.2278977726871565 6.652692465481127 0.4847110528338362 -0.21379648383230276 -0.9175174463785811
Ni 3.597471853450659 2.716610372673368 4.24810798183726 0.47987275090492837 2.149097457901079 -1.8018982581041936
Ni 4.626752499145455 6.486649289946823 3.0312733177455677 1.8530896933763439 0.48165452539569953 2.234758901925641
Ni 6.077999783901355 1.6995355292333516 8.165806968610214 -1.0991144626602039 0.9111845621820179 2.0920287379125453
Ni 7.625132309981265 2.047344385150825 6.713219494301187 -1.0205024692832554 3.145838048878047 -2.6501463286629905
Ni 3.648451797590418 6.153184135290176 10.82633846092412 -1.1964705694138749 1.3804327434935646 -0.3469721713877444
Ni 0.09047362560210173 6.460372910092782 5.13704262132813 2.2058787285561814 1.1269078307233882 -1.1493605032999497
P 8.58608494999826 6.064456617510633 8.396817786979339 -0.4956500683438432 0.23591337033600013 -0.4070172003957829
P 0.10658227080007755 1.4581883929825752 6.69678875154371 1.4966810591660482 -0.969857393432878 2.4698358924032755
P 5.040647863104438 0.02677930411361343 8.837087478588233 0.4434098800922041 0.27450974255195953 1.9641014432402368
P 7.538561527322359 7.971933433768136 6.229446854239316 0.30226968627404716 -1.6386638034901586 1.299013619685124
P 4.27582626626322 5.797652472390512 8.0252349290312 -0.24912678370248062 0.13625664047361052 1.041442304759716
P 1.9131464867493067 8.417388707723854 7.435212475591777 0.7660923256946484 -0.29213516894320657 0.796257279313803
P 6.470591502258243 7.090196073662376 10.888394982248943 0.09554964967255157 -0.15706457835789725 1.092532438567312
P 3.1284808543138483 8.454881993816663 12.170002335389443 -0.7597165040752917 -0.6783184633127737 1.1731835738614762
