# total energy = -340886.17795801605 ev
CRYSTAL
PRIMVEC
9.10899662456308 0.00000000000000 0.00000000000000

0.00000000000000 9.10899662456308 0.00000000000000

0.00000000000000 0.00000000000000 13.33193731153712

PRIMCOORD
 96 1
Ni 4.870361886733976 3.146921504719743 9.881432266343555 1.515938107623447 -0.18141986727381015 -0.09860309178689469
Ni 4.86575273443485 0.5393537108671309 6.566992669841514 -0.6781279445685224 0.9304320975577202 -0.5190687043780996
Ni 4.066001047560052 2.4975957883345963 2.5073105332496515 -1.4073123414932278 0.8192979631833501 -0.8378199332469377
Ni 5.084323108777783 4.694658450572241 3.0434542337013437 0.4008540090078645 -0.39305996688474243 0.2808418554175744
Ni 4.793955622929494 4.5536694006001674 11.984731471681888 1.031153007018566 1.807883529153351 -0.32365457970772643
Ni 5.884402719531569 5.903859536351595 5.198562679220976 0.4376323541784785 -0.47828972268852465 0.649824726748455
Ni 3.717946285999583 3.222307560900702 7.556195090605005 -0.8684847093206461 -1.958875418954607 -0.12126839459489436
Ni 5.42406135640722 8.252477684662075 13.071764516343821 0.5176522836465471 -0.38306300357303064 0.6654629475063443
Ni 1.9963732482962613 5.845425322915049 11.764408526385692 0.6529655863702819 -1.0427394263045848 -0.6463200560293063
Ni 8.018540432989843 7.3028465670959415 10.383952838402891 0.9594444256296704 0.5807651529466321 -2.5981151710983643
Ni 7.8354313825609365 8.723804497732564 7.526971607589085 0.422351259649692 1.6723743083687264 0.4784144211918471
Ni 8.773922197238077 2.6406343625503528 1.9084003805601006 0.036190590987944124 1.1877607003447028 0.6794016690746235
Ni 1.3051097113870527 1.1634010506805306 3.028082801873725 0.16210599743654663 -0.012042532986830874 1.8547981914270186
Ni 1.9141918806229152 6.798690930139981 0.6627296049388298 -1.7290177678943834 -1.1663716931459653 -0.16436265468120725
Ni 7.585097936939246 4.181065893098703 4.281618285192754 -0.5976213052720224 -0.6803020694017058 0.5500882926880655
Ni 7.525005886114478 4.1637861264752996 13.08478947063734 0.8395384585999411 -0.03872492737402363 -0.7347472357244637
Ni 4.493978145627496 0.5746301221493928 11.263447414550884 -0.057355655101333475 0.8418586220926857 -1.2407891888255922
Ni 0.29627375926874827 0.5227297920017069 0.8436005748936357 -1.511624567849758 -1.6055665067155576 -0.7830425803957418
Ni 3.467321352485457 4.994353548978443 9.959730468749873 -0.22859755340087726 -0.17398423693137133 -0.3874775877009585
Ni 0.21650445390530054 5.200563014882811 2.1189912738476298 -0.15829947920626286 -1.3157916104744112 -0.880605146733264
Ni 6.700341093433139 2.050508015319393 7.765333098928679 -0.9998032890626912 0.43347230926351793 -1.481942724514609
Ni 3.442244284739423 4.6241639255862035 1.1260204611747546 -0.5545373295983547 -0.09720235478462615 -0.9235546537115965
Ni 0.25979860402884813 -0.026562745097788092 5.30371147101886 1.3478270416434013 1.3338212142826127 -0.23861148599345358
Ni 7.200907785713496 0.9103002918800366 1.1087516253473184 -2.7960734023468294 0.5951445615967557 -0.25971227252781076
P 9.132133490050572 5.888729492934899 12.622198185343256 -0.07676542708651296 0.32271149906816676 1.7924769647902936
P 3.8899150335394963 6.2775834504396055 13.072377551817599 0.18878993448563616 0.5597736382966295 -0.18683846718622016
P 1.8751598300265633 8.661881538583438 1.6748375086497154 2.0786055225281044 -1.2454647399243903 1.394911910946346
P 6.226919211135777 8.03096510440488 6.148022547650306 -0.749016086938652 -0.450627737996882 1.0157747247902826
P 4.530395914188573 1.2309260427623876 0.011729654971510484 0.2784748978472946 1.0512821736682734 1.0922557878671575
P 3.8835296268958457 6.655488393984729 8.745911121674753 0.5116564710744286 -0.1339408478562403 -0.3493365578548629
P 4.574037117084051 1.3732176792537794 4.140073586425726 1.0052152041068816 -2.0753317368728386 0.8390126680034582
P 0.06639820919766358 5.659346739581961 4.544871020746954 0.8528739993665829 0.8875913482431101 -0.7504026828735334
Ni 2.586299197601172 1.7901000194154233 5.138501598984779 0.32090915575210543 -0.2574977813749952 0.4473354403988554
Ni 2.0372544252102465 6.649540219179731 5.238038337953628 -0.7473662100400548 -1.5333997547433205 -0.5350617373722463
Ni 6.681895375239998 1.0581465945216397 9.811265665236508 -1.278442737512308 -1.7538546244324054 0.7043333993192966
Ni 8.207451914277533 2.601237952088457 10.303348238047684 0.933205032317167 0.42429578497057246 1.2289556865257738
Ni 3.3261501225806116 4.4070145547188915 5.268475139321808 -0.4486279339580338 0.5004467184015381 -0.3540288211242097
Ni 1.5006252152377175 6.84993814522868 9.30138593479286 0.09710799529860695 0.10298090913961618 1.036221679790725
Ni 1.088051430486126 1.5165021963787773 12.054591099602217 1.1625965423742493 -1.16115801015551 -1.535761827217594
Ni 3.815886217857687 6.971497705370643 1.8848426934533828 0.7600970273431619 1.0954853505480489 1.2825559883497333
Ni 5.585709610755612 8.161159993360226 8.658160513456576 -0.18790264678467636 0.4375688479303948 -0.2968580283401726
Ni 7.057085837786822 0.7741526736213727 5.110985141938931 -2.2120444910472616 0.4327896813741966 1.0470246839435
Ni 7.930064748639233 7.374607242614742 5.089520702259761 0.1718507355281363 -0.7851053764620414 -0.1707862988193639
Ni 5.0058946477195345 5.0383682207361025 7.710379433107738 1.0824143762967036 0.6004628884858756 0.002897119042136946
Ni 0.7431055694784074 7.482794795691258 6.930514507694307 -0.6464936054926931 -0.8189050986203057 1.7998783994606873
Ni 6.105705792866078 2.3115627499847027 12.05495090496944 1.0380615612129411 -0.3077733897010958 -0.751969256029705
Ni 0.8307723749275115 7.565613793129305 3.3639542804300824 -0.6803056689461315 -0.87194721394795 -0.8656994332660253
Ni 7.22011865962428 6.471732604794483 7.396892402891049 -0.3005344487504953 -1.168906286642361 0.26955625520142606
Ni 2.2637405176321126 5.423669669551761 3.051614072890191 1.0673729085825487 0.3970071244579485 1.3157476446103533
Ni 1.6777496548750719 0.9586125882517826 7.735896465391416 -1.4710728716796408 1.6024053353787564 -0.9336997125653985
Ni 0.8747879575848353 3.6349815446153184 4.2459556524530155 0.3723584726713329 -0.9413723986193079 0.3018953336537639
Ni 0.5844487096261275 7.883854808691674 11.841959791067644 1.3984777739207332 0.18369195113743847 1.472772885089883
Ni 2.6414450632511874 5.437041676617207 7.434035247584558 -1.5581476511119616 -0.25838815439974855 0.10177634730855376
Ni 6.356449143336506 2.3975972232361715 3.020470413382857 1.0731761455278872 -0.1991586793144699 0.14390850059191346
Ni 3.9701652939254615 7.241388166775384 6.32139134797357 1.0720595154249408 0.7935753616062655 0.6799068908458161
Ni 8.63734190163908 7.251280537124892 1.0090235974490593 -0.6581301612903568 0.35882007186526593 -0.47995708308861856
P 8.921314871847079 5.762442363537508 8.613551024218415 0.23945275094782634 1.6497054060163008 1.299217251055498
P 8.771717820051538 1.5511163836054138 8.464567007896651 -0.9829407089793976 -0.28199011008940467 -0.041450810945618935
P 2.043466760917764 3.606543257109645 10.829879214346674 -1.6574953343743648 0.5943750304205828 0.3266717692674954
P 4.0926175357380075 6.303334583936896 4.1314610301039405 -1.4462031050211546 0.4538071641661281 -0.3592916121850458
P 6.712929726787669 4.359420047282266 10.86464916541583 -0.7212240044270483 -1.5925464403068057 0.8011184640608461
P 6.174323864544566 8.225077822773201 10.942093854837111 -0.1157682907122716 -0.10562914539574067 -0.6285367639039562
P 2.2611535625867534 8.821871955543607 6.055645480039387 1.3411532291676516 -0.5783740270066362 0.17436913107461582
P 7.118863052989729 4.309074622860788 1.8636979795562272 -0.6861703552570247 -0.2770034555080907 1.1435292413301532
Ni 2.1479105163758208 1.725280399335227 0.977016405060387 2.240650327709412 1.1066413671648685 -1.1987153995839936
Ni 0.8925896697156289 3.4892740343844557 8.508988851804057 0.32719138921639135 -0.5216482921798177 2.0266489269551546
Ni 0.3195946124628627 0.2826494329964114 10.138805144567549 -0.07215955288338541 0.3864486322158119 -1.9322940689216528
Ni 2.813960350589416 1.9199669844917804 9.748766106600161 -0.783033067314045 -0.8509811532192442 0.08344361043763693
Ni 5.268042461981475 3.3271156762243024 0.6243588674984393 1.3401335296538857 -0.37661056307946755 1.2818911010722245
Ni 4.061255260311347 7.272376973339862 11.055215751392751 -0.4172936426211265 -0.1895116431430091 -0.42409960979936634
Ni 6.928785620132302 6.43296471510065 12.165859315341903 -0.20510281271304676 -0.6362014795380656 0.9901886487910624
Ni 7.307865624243804 4.276564613857665 8.686143351130319 -0.07374515220295041 -0.25476572715581286 -0.7024755201749515
Ni 3.0238862871223278 8.75344517279453 13.035688335156692 -0.8715728613276666 -0.161586891708283 -0.3313198095624681
Ni 8.772920207607832 4.9822112564592045 10.706572548649428 1.0805852935077649 -0.34935892645236605 -0.32688645638146285
Ni 8.627950526104696 2.485744983707793 6.409089124011245 0.6621220560585693 -0.030429005913818565 -0.7826468876192199
Ni 3.322843556800804 2.8972530158526695 12.425819148611254 -0.3151077185789799 -1.0360108493314997 0.07984895110784312
Ni 0.9646882890097211 3.5886805147013727 12.947843904273135 -0.1192516212751817 2.2280840610086274 0.4013746573980249
Ni 3.0642755782178295 8.568896900896727 8.670998733319001 0.9158331166976227 0.724670825325068 0.10522239687562523
Ni 5.497926210149534 8.087960096372527 3.974330838088288 0.4463584211975668 0.2211441824466256 0.1372765970976926
Ni 3.0050944270569193 8.370175030229278 3.901631025016049 0.7468581600553846 1.2197755626884024 -0.21985143177713104
Ni 5.209872409447448 3.0710071267337464 5.413832864081749 -0.3429476236093835 -1.4508380326900046 -0.6503212067688993
Ni 5.954842590537774 6.021429355965857 9.842395661248885 -0.9073528471407536 0.7035890649541043 -0.41698845267588186
Ni 8.036239213458622 8.893341143169973 3.1008755267116785 -0.13449826302160708 0.24166287122526767 -0.37721862897711167
Ni 4.726111815965287 0.21727325322159743 2.0482389642567207 -0.03028013904078011 0.41417977958249313 -0.7702757676483766
Ni 5.841945686199108 6.025901873315404 1.1127185933834238 0.3254844338276136 -0.20476625530923445 -1.368466572270624
Ni 7.754206459534643 0.2946177436798529 12.023087634727657 -0.1413620800209759 -0.47122818785605297 -0.03243626615183446
Ni 9.20482328322651 4.874187665322183 6.792795587515486 -0.5449044344942809 0.5663032118850312 -2.764188380712775
Ni 7.456706629318341 6.260832005621242 2.910841817038116 -0.9643184658925199 0.9080120779913072 0.8617967557775094
P 8.643417602397019 1.6711638503053725 4.154898478455029 -0.016553533483306973 2.1370086450573456 -0.6877320433171897
P 2.104342185453451 3.395041464158257 2.3303564318494385 -1.6260687404339673 0.04724273503704767 0.2942519581758932
P 4.628882385844993 1.3293032064591441 8.632069614384665 0.8036977947522481 -0.23163145513119462 0.08069484404790618
P 8.38848411347284 2.0731165449763695 13.07396433903204 -0.626948850591546 1.5273342652755308 -1.1070650849658483
P 6.590650555911256 8.078486739868396 1.6950494612910796 -0.7326728696939382 -1.5089084544701756 0.548583683118081
P 1.7100865929420612 3.4125945006808167 6.537555125404587 1.1780308746514485 -0.3789471816324442 -1.0669203944261627
P 6.5682150971904125 4.154139699035034 6.464056453327144 2.334309188117154 0.43448403835748395 0.9926954743733161
P 2.389353581278249 9.026405366066475 10.739448739317423 -0.6341366265892369 -0.5389369040569363 0.8824239451095576
