# total energy = -381169.5733080385 ev
CRYSTAL
PRIMVEC
9.27072926721843 0.00000000000000 0.00000000000000
0.00000000000000 9.27072926721843 0.00000000000000
0.00000000000000 0.00000000000000 13.56864938224500
PRIMCOORD
 96 1
Ni 3.77807240521175 3.738542016462482 1.2697858025090825 0.08893728656235651 -0.5773844093998572 0.6259839155751156
Ni 7.729099531930615 0.9333213782701213 10.143799978829787 1.1199529966721098 0.39577505182306033 1.4918496992156758
Ni 0.39590092244470837 9.238077560997416 8.770245978780968 0.38452107617579584 -1.63358047542998 0.242199460455028
Ni 2.8367225755680674 0.11819345197075315 5.918197033916399 -1.4640370478787819 1.0388979410713075 -0.0759807264016885
Ni 2.4933255001314745 4.856415798304759 2.726809738801546 -0.9984467750347966 0.8106893955787328 0.8523752053532934
Ni 1.5496765296787347 7.119780863885205 2.493660173450857 -0.3576620470014228 -1.9650206126203966 0.3726497786595066
Ni 0.05156564922635505 5.295811273248545 2.3465893275037684 0.8196777151202722 0.5824088591976422 -1.2536902131579764
Ni 7.379676482599318 7.918537609722018 8.685712689913133 -1.341406225718722 0.9546714297210591 -0.6454582222496432
Ni 1.0724008557599236 9.206816662577499 3.6942677956487207 -0.1347898261200969 0.45027164020904387 1.2151342072616493
Ni 2.5496451792242985 8.76289707184815 10.8643766664296 -0.4696911823862362 0.6024940599832914 0.08976415333902604
Ni 7.311824016544933 6.702301392460009 1.673122776739857 -2.0089088293629143 -2.4722573573605744 -2.640705237854749
Ni 2.326220608666757 7.361070129358281 4.810941018076592 1.0628937897652728 -0.23471240804936352 -0.8546233779575216
Ni 1.5876587066735166 2.8700972002156666 11.972595911019651 0.03682025415214304 1.2257142967703407 -1.2336476926848043
Ni 8.63023293887394 8.133173529122358 2.2052450109024635 3.2201956378540153 2.1772687781289726 1.0121584681939342
Ni 7.91397641102018 7.3174791612768875 6.362420704559204 -0.9005779903107651 0.12465967966463046 0.5644877559428472
Ni 6.428638741078762 4.634761936999356 11.284014363582006 -0.7615106198612369 0.4107167607345572 2.161341565375755
Ni 3.5979514101344687 1.4426923162250407 11.660558003731106 0.34368193067224684 -0.24853003065874615 0.05814806909564179
Ni 7.141307496782906 4.946332599542834 3.0940316608719907 -0.873040961232761 -0.6468499603908473 1.4213644487109198
Ni 8.147737844489408 8.901327598303137 4.661604405945094 0.10302616055525482 -0.5880354613558002 1.5049610397866533
Ni 3.5294685345034087 6.627384630855217 1.1107946531253594 -0.19747383541287925 0.9412986079585789 -0.4297766055794856
Ni 6.939743305369543 2.5119782070178545 6.992400119407293 0.4830148960783359 1.324610494317622 0.27673708922058143
Ni 8.589339752951563 3.4366963487121502 11.259496066413808 -0.8239472890299036 -1.538763333048079 -0.73408800487391
Ni 4.223280627281659 8.858116730113565 13.133190139483764 -3.2916807903781953 0.05354476599567552 -1.262355345032142
Ni 0.19446652123830752 6.7224744989136695 8.121718616284976 1.127209164013891 0.31430630572360707 -1.3416509947396764
P 4.868050563286076 1.1375369981971555 3.4862604475325565 1.769076583588482 -1.7558747401862278 0.27502344896358444
Ni 2.205645506398235 7.597177057281909 12.970542614555315 -1.0641178919803609 -0.4125723258860572 -0.17231070588369035
P 6.616630585135435 2.995706308368535 13.204656335729156 -0.21764465393379936 0.042621177104636275 -0.2776891687212056
Ni 8.594790941644005 2.9226436925774983 2.7040009640736327 0.09549848471964197 0.7245754373977844 0.2235921297664859
P 5.102034494252955 2.9844794554662455 8.422860635698987 -0.6958922105304789 1.8300405248663645 -0.9009037490813
P 2.507426279045085 5.106197051604837 11.248138496231649 -0.3483299709672194 0.5735521801379605 -0.25695759260080914
P 5.061002247394545 8.494945189573269 7.694740355855911 0.24043414102448912 0.09177295623893872 -0.14846989471035074
Ni 5.916885225753167 1.2079111025582465 8.930898442813817 -0.6024374957137432 -0.9931117359751283 -1.1170854453163277
Ni 2.2092147370897144 1.923741176874844 9.383345250140628 0.8980027733844211 0.3921821922654794 1.4887579476642296
Ni 7.041526639815652 6.596995180967763 12.658423124850964 -0.6976739850212501 0.9537864560129445 0.38954732574579365
Ni 0.42518252020844255 3.46294178270586 0.6122760306183512 1.7319261997904303 -1.6610077184029974 -0.4140067443397386
Ni 6.359664516807056 7.933018488527448 3.2087411728586974 -1.002514260235951 0.8616466033528903 1.2159590171557897
Ni 3.105953818454439 6.803862229408469 9.615437025304571 0.2190641599891453 -0.43686333722293796 -0.3682840454916432
Ni 8.946151573350678 2.4166936536489585 5.483755836586968 -0.19716350326131207 -0.3256944929558907 -0.9119098703838167
Ni 3.3958217042479095 4.180116112737431 7.9061537698319455 -0.13332069777373812 0.16085027065257457 0.5466586981812263
Ni 5.319479444561135 4.122192597515707 6.2062052114586725 -0.6660599576603947 -0.5070811929989203 -0.20256744788570274
Ni 5.905704726496221 2.2183649466805977 11.285330807109771 0.2829288198535902 -0.46053934068363905 -0.04462638046012314
Ni 7.763911119583876 4.522836424952002 5.583580265980846 0.3090854236442999 0.3041681888483407 1.2285124283407682
Ni 6.052553074945659 3.0269764775175223 1.7897995374349582 0.24341919179474208 -0.2851271130564896 0.6166837212201121
Ni 4.738093483199951 1.4913172901907794 5.899512806551184 0.08405476165907459 0.9727288014434021 -0.8893499828054297
Ni 4.978511300140561 5.401238004218685 9.343629446809985 0.7127609612613595 -0.05097134884154448 -0.22689548310810603
Ni 1.7727210003444562 5.378737944768761 5.800638626886857 0.8916017549540838 1.3929517018961817 0.8584638347495344
Ni 6.926856991963942 3.6667309490957303 9.367578521213357 1.153950179553161 -0.9484640153587666 -1.6003520523941535
Ni 2.1013868872907615 4.9436440881128885 13.403708159564882 0.04507940883714172 0.9628058859027354 -0.20064451983137704
Ni 5.545119719366114 5.329176627167076 0.6218146837572166 0.20815342661391248 -0.4595016434477441 -0.9915806440425827
Ni 6.228548595587333 8.941163921111674 12.189504086114749 1.435462835785515 0.4047037217712578 -0.8623690833412115
Ni 4.775788267593601 5.7214489862542655 2.695059345886796 0.871503441542312 -0.3252283519527496 2.7367634517326027
Ni 6.6259105849332816 0.3313182425328826 6.577293954623705 1.0188168540507165 -2.036932311159034 0.048872814441302925
Ni 0.8674491399448285 4.60287062900276 9.698883784725544 1.0345969997031084 -0.5569929902276988 1.3406937730327297
Ni 2.107496297747086 8.985802481577839 1.7224041183236654 1.3269129171985536 2.23325146414218 -2.71097297303206
Ni 6.525999937759065 2.9126683880994935 4.370326442260262 -0.3695346300692926 -1.233382869059192 -0.3278462491915709
Ni 0.032112878421338906 2.21235751424403 8.815469522251373 -1.9858887143186577 1.9745131254918642 0.8815477131521914
P 5.617218179333999 7.816374175384088 0.5338438085506785 1.4315897259833539 -1.661115447625455 1.3804126888889066
Ni 8.94241546953596 8.478749225890114 13.065686252842365 -1.5093452848972781 -0.2640121854547453 0.020519460109590465
P 2.282657452772571 7.198869453570946 7.418319662576703 -0.1636707708205052 -0.14324489886598554 -0.3212544549066661
Ni 0.45237820393170175 4.3322765889432775 4.346906726486716 0.4563576985021237 -0.8969529919636682 -0.38133162270422066
P 2.7539164235257454 2.2403921989480136 13.667293528448369 0.5282097474474193 -0.3343593677197403 0.4009162297043676
P 1.5942965486867615 1.8965037748707754 4.554520995690364 0.2113001997730103 -0.7122840216249411 2.9077212431328245
P 8.448619356416586 4.8423706437655625 7.891540319600831 -1.1564904294765115 -1.096085703136209 -0.0447168832914004
Ni 2.880730726457555 3.321553893677932 5.795482247378803 -0.14086714266242836 -1.1166943805254963 -0.5067852590250562
Ni 6.21667279165023 6.201542961809984 5.250226171344458 -1.1074391804758152 0.6216372085706455 -1.6485558657928898
Ni 8.108810053129611 5.87719723460973 9.846049192109135 -1.992674369781923 -1.2414836437894556 0.7504967852492365
Ni 8.26823878092538 1.4533907375704098 12.796783193765028 -0.30486444358441683 1.4427771100587412 -0.980882026678156
Ni 4.777716579239907 1.0033246534684612 1.2032924253361814 -0.5629006139613854 0.8574703604880135 1.2129233156532595
Ni 1.0506053717192272 4.002312799927344 7.533734677045543 -0.10691264009385457 -0.764356316840148 -1.1948626014968067
Ni 3.801759117982477 3.5997684730319492 10.323408302589563 -0.21615058588677613 -0.5763554539147107 -0.20994754239985777
Ni 4.60468769190024 8.221328891837365 5.413538407547139 1.9871706663548747 -0.1993535689340954 -0.1227722328339305
Ni 0.11231859095986876 0.9972152430121368 1.4656039960456175 -0.29104347854092455 0.5928303116412823 -0.015391651964721878
Ni 5.095535713175742 8.629723048775158 10.039890866208207 -0.9234574660121 -0.5514013550725342 -0.08295792905047003
Ni 8.882906659643476 5.306361362928815 12.37095821203212 1.5724301291729048 0.7801847992319725 0.4624396430301455
Ni 0.6725329883466853 8.28522275657938 6.1658654880617005 0.3986084075067974 0.8156860774623758 0.7434630183309066
Ni 8.143667994428215 7.989690455324887 10.885964486139155 -0.5573902256661175 -0.08814847211247401 0.3823253540760577
Ni 6.551086530619177 5.82531823474085 7.562499895200147 -0.016194350371675336 -0.4365908002878417 0.4876145996338763
Ni 4.294628158194972 6.245708715093642 12.309261510079406 -0.23796562487933856 0.043534947168157284 -1.0825820122228194
Ni 7.118121403381894 0.23236989703600497 0.8400142714115949 -0.8244831069287155 -0.49480571806567686 0.5418242529070605
Ni 7.625285907818443 0.9213500858236088 3.0698257872734125 -1.7798934716983281 0.9715638346010236 -0.8216240402133657
Ni 1.315878013293231 0.7154342141853608 13.038088219477523 1.9013243600130156 0.5221920804984298 -0.3311115502064039
Ni 2.8787282489786987 9.104236045431474 8.442725953947564 1.0697622347503317 -0.6629664063367355 -0.520648904381026
Ni 1.6189288758225038 1.708484118626896 7.16979644721126 0.5864169519157707 -0.1121116677962908 -1.1791323352457435
Ni 0.8624957894033807 6.915268580627969 10.280585877947972 1.026746650420754 0.7769490659034941 1.5486037161772686
Ni 7.789693017124147 4.417826876789958 0.865473547580272 -1.5863575378872745 0.40919698165592105 -1.3644985887618115
Ni 1.9119673509574966 2.4287641428965068 2.69207417112665 -1.3726623555195263 0.24325438408210365 -3.5210527600512522
Ni 4.280796230424356 3.574107094969573 12.641069247107119 0.7112674074349686 0.4702694234872094 -0.6932357467442384
Ni 3.9059435712573998 8.350247650267788 3.045157304294302 0.46157883769174696 0.08626385349525144 0.1911772037708901
P 0.4625899120009604 0.21468134597277722 11.043224790405736 0.17736523758846226 0.2617293029578396 -0.025602273949136552
Ni 8.631197094697093 6.506559218901838 4.336445635805507 0.26824242148600896 0.42732017361919306 -0.5473552100276186
P 0.3658007193042011 6.780101350805191 0.32318039655630953 0.7313500371174565 -2.4560882037998795 1.9265314554062627
Ni 4.235184243405969 6.242324898983537 6.723116033365229 -0.9425934155106025 0.303596889725903 0.32125651178919507
P 5.977997871774549 6.76971813424816 10.694456254546694 0.7696910987895003 0.22281257128798398 0.17828543540988648
P 8.845573433683509 1.0035656924242495 7.032888174469365 -1.6466303666354027 -1.2401942355540705 0.03781141442081875
P 3.748406072191661 4.971400650944809 4.544669918981881 0.18474533210261732 0.9747286054822504 1.0898106687607747
Ni 3.8657735022023867 2.9038611954841547 3.6163704946483164 1.2073203676441853 1.295607936437685 0.36873527409644885
