# total energy = -340860.5349791318 ev
CRYSTAL
PRIMVEC
9.34029493539174 0.00000000000000 0.00000000000000

0.00000000000000 9.34029493539174 0.00000000000000

0.00000000000000 0.00000000000000 13.67046576942886

PRIMCOORD
 96 1
Ni 1.2257455546724672 2.510036076553291 10.453093679574518 0.38329825951228824 -0.6534440686685972 -1.9379993468365464
Ni 1.0204178561815136 6.208437848371289 0.3889438819410932 0.8383464951743691 -1.150342921817877 -2.3524938294459807
Ni 6.289698412301203 7.23786908894273 12.503882409974755 -1.862242820630522 0.9120862480606808 -0.041877614070392394
Ni 6.774431686585197 4.474019844086969 2.8733539259428773 -1.5869239519137057 -0.25906821118590867 0.8234160991167818
Ni 5.751043616687625 2.4150639599970423 6.402890641737691 -1.4033641554787573 2.3520760251822717 -0.051567844774962804
Ni 5.708115622225338 5.751800180558696 9.296654979669034 0.9139312716892195 -1.7358530456486618 -0.9296772216695667
Ni 8.869002114383717 8.428532496704765 4.598060825822836 0.49904855250243085 -0.11894617421962096 1.5245438470145871
Ni 0.633234619792235 5.283627248785936 6.25334972142883 -0.5956281861013935 -0.48805194428161114 1.685084813956859
Ni 8.34592693033739 8.945592530961337 11.932374995796728 -2.5663404497899287 1.4164862946830121 -0.9228072340226107
Ni 4.4470637535695285 8.801593207500707 1.9243370186011146 0.9066560781840449 -0.05033448658849397 0.13084549676036822
Ni 7.980814810335054 4.677049830080595 0.6471731415798915 1.1342370173949499 0.30352952682307727 -1.3388078688639264
Ni 8.990846258805064 4.47096556771857 2.630744441138561 1.0935711642444714 -0.253090396335919 1.3998157760058665
Ni 1.4913368345974216 7.291809290861725 5.555389661422212 0.3421040446621657 0.8657192307603672 0.5062872363427152
Ni 4.608473386359511 4.547789491663804 1.6026432585330537 -2.409704731439334 1.5858744276032688 1.1508000639599536
Ni 7.569103960051526 6.874597006997195 3.0634830968905256 0.7738079491713511 -0.5485726273744875 1.8926036923105665
Ni 0.7852339056673449 2.7655865396708137 7.666479334435267 2.8328473766420696 0.0659667938091122 0.43951131636874635
Ni 6.1365269194406675 6.3842502155957455 1.5537300032240682 -1.3168856148695385 0.6757159926929202 -2.2072054177874048
Ni 9.373359347842051 9.003745205792102 0.39134807379805414 0.15369386211345143 -0.08264091203068348 2.3485728971250195
Ni 8.276192290072938 8.373807710030585 7.06176623855296 -0.4386703085246897 0.492398651286081 0.8621474542487088
Ni 3.115856931387561 8.0562376900746 3.9980365578822337 -0.29461756904542813 0.015784773638082495 0.4056668570154755
Ni 8.035502235830414 1.5339752799238648 0.9888448579915953 0.48861450165330045 0.6796790911057262 -1.18527572913932
Ni 3.0138515729187576 4.523486044842467 13.245423351043508 -1.2729935414722784 1.055184594046473 0.2909558039231247
Ni 0.9913228381767225 5.228304683250663 8.67433449423911 0.41276284463030843 0.4188990394350334 0.6250261796475364
Ni 0.7616216406541468 2.297591073497441 2.245757108034331 -1.6016286051137318 -0.6597442998550122 -1.3949108825050816
P 1.5683008629632251 0.17265908373218747 4.410885056060779 -1.0680956456811863 -0.08587227448378759 0.6843451291228279
P 6.534087223246743 8.439666127992634 3.9956715952630324 -0.7362757565538481 1.4317843584926633 0.627838452285351
P 6.508027801020942 0.5601710984950674 6.6370789168363515 -0.5443531899765012 -3.134769449768711 1.7627316152070611
P 8.908987916014057 3.3401080669500094 9.280605551278141 -1.0943622926871992 0.861104100585859 -0.11764828134380383
P 9.044534272767034 6.135919800284869 4.491472184742491 0.9901904485632754 -0.566304754546928 0.22888011763830257
P 3.0177277952211616 2.033363476599357 8.127461173314963 -0.7064237061894222 -0.03647495499758234 0.22281514239114528
P 8.518862486792834 6.8532824544813264 1.224863830852354 -1.6959826918162855 0.8317351605054385 -2.628573230477905
P 7.946358463169829 2.1868992409533714 2.9564433195759494 0.12469104712319817 1.7829754530577617 0.6282572849903245
Ni 6.011553776293283 0.9354118340750599 2.794365855714589 0.9637641360509466 0.48069730368875285 -0.7772791955494034
Ni 0.19096606135317956 0.899969151789031 6.206609952697601 0.28442288790061343 0.17862867768191817 -1.774991920631653
Ni 7.442673730930226 0.8286662760436782 10.242254273178387 0.8286300392175535 2.153776351433988 0.2946301674509184
Ni 0.96531945771915 8.21316398140638 12.290418380766635 4.695984426952087 -1.8814520465691211 -1.7030185156171442
Ni 3.16278257198341 2.4595424433802893 1.31085151793226 -0.27390399064716053 -0.3792667697553919 -0.8764834112554066
Ni 0.785419777531966 4.166098348560824 12.010419696259852 -2.354333453757881 -2.0860691778950007 1.2613058207217052
Ni 3.312199266372701 1.5879435027269733 11.959866285200741 0.849343360505505 0.6761690210699387 -0.562715751644089
Ni 4.922634198748321 7.598871479275048 10.122460323444697 -0.5120326234669247 0.40210279381330105 -1.200559651881584
Ni 5.892623803819767 4.751473298286751 13.377001950605978 0.2530063212625449 1.497036128512622 -2.9691726655700865
Ni 3.9541016796507935 4.100959133291028 7.579070054501322 -0.2695405714721423 -0.2495600145851573 0.6671609040340575
Ni 7.780325384501076 4.248050094298877 5.073191343121043 0.09103196430785612 -0.3673463641687222 0.7405892963275374
Ni 0.6940922439694475 6.762905762919734 2.5681887513840547 1.40560075811876 0.9210501421221879 2.8087787657286403
Ni 8.379645394220953 5.497109024553995 10.27715521837155 0.4947033881598577 -0.7104713938962345 -0.2796918009735312
Ni 4.613190235185328 0.13863052206443316 13.266612743610336 0.7500697250141469 0.6927387525031617 1.710285481592203
Ni 4.686987903646276 1.1424114453181349 4.686905709052875 -1.00751119922991 1.2791117385548745 -0.5769532353997097
Ni 8.408600307805175 -0.08350877286530821 2.581476254630801 0.6546828261717047 0.4561844061490531 0.7347431219594056
Ni 7.463175677806797 1.3235384402295016 4.890773519481502 0.2809866085255548 -0.15855967484618497 -0.7843602707659008
Ni 6.550834371652068 3.641967711212878 8.605051924238358 -0.7748903836022525 -1.9922745632403431 0.9311988005204157
Ni 4.629190160014287 5.739545713906276 11.550558692744707 -0.7010557570092893 -1.3954209893722807 -0.12846002724732716
Ni 7.977172095400264 2.5472758315404826 12.586001346988018 1.5777597689159342 2.2186627676947275 -1.157337093747523
Ni 3.7255913697030527 6.127466833577217 6.073350100088305 0.33290078089634284 0.06881223367770731 -0.3094746886629186
Ni 5.199162963772348 0.22637605260774243 11.02203157867931 1.3841521013266809 2.325269960733021 1.9988578728848156
Ni 7.784509836528731 5.250030208733534 7.779903203180428 0.8418344537229695 1.4219892267791123 -1.106114805237437
Ni 0.8976845157042888 0.026132276524495773 8.513309681590956 0.8118304511617116 2.8558332960142816 -0.9226673660106368
P 4.656080868468795 2.809803494802332 2.835336124406793 0.06827230201383726 -1.0119499517275539 1.2800589329594925
P 1.7744505073881829 5.78975913823814 11.652349224435303 1.7280752014754561 3.9459237007990042 -0.45994258763990464
P 5.427869419908886 2.3024853879226455 9.933397814152311 0.7444642059019114 -1.7425628535686697 -0.14285331985452174
P 4.536534436544776 3.219534202608486 12.752958180803056 -0.015836452811624338 -0.9860538006870825 -0.21112022255172025
P 7.210707511941789 7.31387106695396 10.437345942702583 -0.6645116393366685 0.5846991978937155 0.44794324918618333
P 0.83259947414378 7.451369545300198 7.732835590105069 0.6732436198930276 -2.288588289041271 -1.637677271207173
P 7.1177902602205485 4.1639967822522905 11.312583862172806 -0.9181059718921994 -0.019200741298166932 0.9749762027166823
P 6.783146181544576 0.9625267096024783 12.722240753608078 -1.914715436607941 -2.5909456499331185 0.326716763572818
Ni 5.977452360326832 7.1934373070330055 7.218840106541073 -1.1935917052041831 -0.1349068113139354 2.0818029464194794
Ni 6.968653774672395 8.812147740516892 0.8882209291096005 -1.4723687076729288 -1.015705047894612 -1.470089424720449
Ni 4.6222223001646645 8.665159522750793 5.977698010077563 0.9877283601760279 -0.32941487923027135 -0.5372628587886231
Ni 1.582264603546584 4.577958643559623 4.219990914976824 -1.5850550170257671 -1.1530554356530334 1.5398539950090964
Ni 2.161689785545689 -0.007113568447014075 2.3188112890367942 -0.9870508744930291 0.9631036196488123 -0.08612989902054845
Ni 1.952345760331762 4.614628640569834 2.0270018018760623 1.2841958379460015 -0.24186573126469316 -1.3891400414595754
Ni 9.30705259573418 7.654166023926209 9.669912770683242 -2.307683872220142 -0.37098113270783206 1.394146236424915
Ni 3.4112997931883777 0.4385903503843888 9.648149884021553 -1.0548241253832609 0.1725089379374255 -0.9565977002094943
Ni 2.3494110285184946 0.3391787917550494 6.456806558890453 1.518098862720192 -1.852835668384009 0.5157067298844022
Ni 2.954540701544625 2.4366867422381633 6.013433043587845 -0.14683030222439875 1.3961123590123505 0.3484454134991612
Ni 4.388668231076446 3.9833835035496765 4.84068432106921 0.40676728916850596 0.21680596008258787 -0.7012205647219278
Ni 3.695721107237781 7.784818066253983 12.06939431702462 -1.5834478204396472 0.13706576663846717 0.6566394356774433
Ni 2.9654781866436974 7.1010898132887466 1.552158031625286 -0.719275879561742 -0.9053676983899246 0.5450458451681517
Ni 2.2471908432714853 2.171721262058416 3.7930208252344135 1.684394472758054 -0.04664392511078419 0.6901524798332244
Ni 3.833845385329226 3.6100425839125974 10.483046136633192 -0.4435361212574232 0.26589757540291625 0.019288930136599037
Ni 2.2186936041277883 7.38797696514016 9.993246686501427 1.1386986527107292 -0.7473618391646807 0.31333622850085396
Ni 1.181248390699811 1.4869001946127425 12.564702672973148 -1.5147782829873913 -0.09670176099912377 1.3654038741849002
Ni 4.942314199690888 6.838851699162738 3.812501877899772 2.088629225312693 -0.7873129256363215 -0.0920668333302737
Ni 5.961695283160193 0.045329384230835094 8.904654019271128 -0.800158414140422 -0.5672828021894811 -3.4004487385132336
Ni 7.304988446689897 6.78250170120996 5.5837290495854015 -0.07111774188243236 -1.012935712679591 -1.5739103132628571
Ni 7.9854008950350055 2.019082165996042 7.328257922887437 -1.1821608376594221 0.6717264119175528 1.1349888079593098
Ni 3.5176764095789284 7.960051335206754 7.792698472896244 -0.7395189460814942 -0.8152428192773701 1.1524183162896668
Ni 8.43961942651911 6.864107856043944 12.701571615456297 0.5748888966715131 -2.4382439765296073 0.19884629028037368
Ni 6.243211765556469 3.116716238500383 1.0915199155907178 0.285737750057295 -3.512020474645655 0.27816867946078544
P 2.357200834302121 -0.2518759911807376 13.920635123297101 0.7479081985864539 0.13271905963399724 -1.3279562708614034
P 1.333299048195796 0.22399521148754298 10.56643628775575 -0.053278656818482435 0.14368404328593318 1.2898494366873527
P 3.4517899707327664 5.591184472818603 9.12223338232609 0.2622157556759549 0.8384231140485754 0.5622220998371221
P 0.9092496686075094 3.476457689047582 0.45351520729284966 -0.12917659369837753 -0.012513559085978449 -0.5982535395393825
P 4.40478023944186 6.597451782522667 13.795139857675728 1.21302821666224 -0.6587395127395816 -0.836430766208895
P 5.799015370290387 4.694376076757605 6.611789134894209 1.0923555466698154 1.0499745106004432 -0.330863695861656
P 3.122656665932501 5.703492176346567 3.700621959869278 1.9837361867520285 1.7754248944040132 -0.4328475311953255
P 0.5132193050740453 3.220589655910104 5.582170154399206 -0.2861586396447975 -1.2867666839969711 -0.08077043448084799
