# total energy = -340897.0642585331 ev
CRYSTAL
PRIMVEC
9.00279750318697 0.00000000000000 0.00000000000000
0.00000000000000 9.00279750318697 0.00000000000000
0.00000000000000 0.00000000000000 13.17650416263959
PRIMCOORD
 96 1
Ni 6.185228082164889 2.0142319299118805 11.304425891537997 0.789633346239382 -0.0533439628387791 0.4679454033397231
Ni 4.638349383972753 0.3404398929372593 5.888513877144481 0.44438895617602175 0.5570662666677955 -0.591126441576298
Ni 2.764038935170987 1.6958299853473824 4.858401165865823 -0.11245053919294827 -0.8682229710188273 -0.7605857940541223
Ni 3.5110370675626146 4.1376227813563915 4.97515844861689 0.05992264449756131 1.0291478036630792 -0.679302681602914
Ni 5.227366423164001 4.636512813251709 2.6815769097961186 -0.7966321461547183 -0.620404364604809 0.5737792085471021
Ni 7.195477020703786 6.151278532218533 2.6327313308544738 0.3628168517294848 -0.48197282796706675 -0.883194504726995
Ni 5.0904788848626685 4.42556826146358 11.456588476615776 -0.5985988386939433 0.3043116564047404 0.3246609094850538
Ni 5.651767307285216 7.748572897262853 12.366966679959793 -0.4862118057490788 0.5830092117858023 0.26153826999295604
Ni 1.9351693609304736 6.5067359919193875 0.3072429768746266 0.11267036851323822 -0.5233135956973826 0.2836728971084663
Ni 2.6038521565458246 1.4416539992335053 0.2601331373203215 0.6462470366995257 0.5377634525741255 0.9322642656704526
Ni 0.5510810504445102 0.076864986074511 4.701784896789514 0.26187739849992964 -0.7854969554735052 0.7425075963961729
Ni 8.439573628257948 2.1162156217157273 1.3710288522117176 0.8305910195986663 0.3998939590874403 -0.36463025078913974
Ni 7.033093559451492 0.6608971762057494 4.808264585740857 -0.6563753833827792 -0.030408951309160527 0.5895303007337719
Ni 0.642618796132537 7.357500370049992 2.436902476324348 0.43091457583867077 -0.10961486951636605 0.3450369020382445
Ni 7.514419133127414 4.018965908300716 3.8632985340969457 0.45719999189776095 -0.7283485312869714 -0.9060066175255042
Ni 7.428523440728005 3.7356568689843983 12.592337314705768 0.7604307565334969 -0.33648309893096245 0.561376206897059
Ni 7.824952632543911 8.88188107690934 7.084795726088172 0.23857291944603431 -0.07598792549054009 -0.04031386912769831
Ni 6.703204045082818 0.690075243396451 0.3599660607650632 0.0898158325125679 -0.1535336823865033 -0.100621150658188
Ni 1.8902363978484646 6.492250490497036 9.219692152932163 0.3780583512695876 -0.07417195532772387 -1.088217870352358
Ni 0.1018828604701421 4.580929540547176 1.2982205267592768 -0.9524888202474435 0.14900596971947885 0.6972916619811669
Ni 6.3795534694871 2.0203808407083166 7.106813868306098 1.35098307077388 -0.4042236968110458 -1.2525746114962943
Ni 3.3769854105217183 4.33569333250191 0.5137113376700939 -0.3172556181599181 -0.06813526221534073 -0.12613780687205373
Ni 5.963237097657539 5.8685096607613465 4.7634378556711425 -0.2864257772632551 -1.4477953892089386 0.8715489500682667
Ni 5.421313692984822 2.7646781338042916 9.020977901754515 -0.5447614811585134 0.6631576964119353 1.521098311668148
P 0.227334144913915 5.486160844473444 12.50153779842522 -0.27573358765673156 0.2917173646794976 -0.3323845033815566
P 4.015526839597585 6.141897617064966 12.516757027856224 -0.3339793586725022 -0.018350477482729687 0.05654318650236713
P 2.3529982027656007 8.31499291434714 1.4363711575712088 1.271231050255217 0.3369782933998261 -0.11590070252507781
P 6.43905295917033 7.8106291814793 5.719683512493464 -0.7642326467780902 -0.6170027951224277 1.2549701083116644
P 4.68931422148172 0.996186568606199 12.523555940643146 -0.20404248976933248 -0.3660186464962341 0.09031925451154767
P 4.040797692607242 6.104770079547393 8.016203564467906 -0.7303977005065163 0.7372913423025561 0.7667749535839697
P 4.585755040088742 1.1152755759491795 3.7243655601690397 -0.2126297172177112 -1.1113102333954474 0.2324215551326578
P 0.22227547291315744 5.481281328145965 3.4303449922061637 -0.2382700434936348 -0.2536519252663438 0.6376335839989018
Ni 1.3707119537343608 0.8670000234165384 2.58587537019396 0.3588776645760787 1.4290859857248939 -0.3818769536847294
Ni 1.8332126775195836 6.399827769799801 4.662835193027141 0.19603556030445593 0.05721655842030791 0.3233488755418496
Ni 5.972077844951976 5.620329537883819 9.027973975810022 0.1201607633530124 0.3232144068465143 1.616041180994636
Ni 8.569186906056322 2.5672197728991217 10.25014787080137 0.5417144668020735 -0.13032176304641427 0.09218690384790575
Ni 2.1894533806161767 5.411734716282908 6.89078453640402 0.5044954345496151 -0.35515213609537544 0.5602850307154092
Ni 0.6403203818919366 9.093455824533121 8.940047252260282 -0.33093980051523003 -0.2428378653699753 0.1241223191039217
Ni 1.3835499431863636 0.9532882377935817 11.295083688414335 0.07768356802540814 1.2921099505867555 -0.7861006504957752
Ni 3.956198403069747 6.639626288063153 1.7847578199960434 0.5439132742256052 0.9297309577256374 -0.8082707588349113
Ni 5.574613331406071 7.9460942777515875 8.004963571599164 0.1560093976205055 0.03031459182314134 0.05116058203421512
Ni 5.4938042196801415 2.6342365986219174 4.898919156979204 -0.6750912146247278 0.8638770353453058 0.13063723740430402
Ni 0.6782761767935094 7.351000350145121 6.6718310958245155 -0.31900808207465065 0.35908412415992996 0.5117505734501316
Ni 5.001990386739434 4.407832750088794 7.129938454355477 1.092252702543364 0.2935814144714299 -0.9787084160656048
Ni 8.144002778539367 7.215310183931529 9.0534176825346 -0.02694413268901166 0.27074230508972724 0.405241853662915
Ni 4.662044747393279 0.3984773282817753 10.113929240365595 -0.34193460896383693 -0.9389259939613444 0.33265138388969806
Ni 8.136881565596495 7.081735675166197 4.587057744909012 0.761116983967244 0.6084528486698876 0.5758360910761309
Ni 7.197241569043611 6.047926415171556 7.043302731989059 -0.2984220303931828 1.1197568215009037 -1.5792016435687835
Ni 2.1775156709293917 5.160151535892857 2.486221602422497 0.3782776663692453 -0.647785070610607 0.5892672768803723
Ni 2.321983564853855 5.085302276212668 11.397715581649138 0.8224897306477705 0.3817517409607748 0.2159508111711442
Ni 1.1263130058707467 3.274965707527263 3.9025903441701013 -0.6456803655627783 0.27351472562854184 -1.34874492547198
Ni 3.6450257050199455 2.7511019149448104 2.6760032777696563 -0.6405759544566774 0.31292562332599655 -0.42174910728931886
Ni 1.1398262051466626 3.4315153559009466 8.208382684829841 -0.5772589395655865 0.4153208351654718 0.24334642957527766
Ni 3.5268639858351394 2.69573470938393 6.953623163736442 0.12486459658658496 -0.2745177129717595 0.27013166808892186
Ni 4.083705026217512 7.083545237494285 6.0058374358678694 -0.18943733826164794 -1.3000739426288384 -0.7251775897581576
Ni 1.055253924002124 7.246774961725882 11.318644009870079 -0.06782827249788319 0.3880776831788026 -0.044386496535175166
P 0.14541048683864646 5.605222843423467 8.008758250809557 0.9427890764611763 0.028057163247532324 -0.1549002237167268
P 8.553405001772058 1.7468848508328707 8.017099342834298 -0.7690452376753851 0.4745904194600666 0.16172675972025696
P 1.7428876086753047 3.2642703839164784 10.412548437369201 0.41655059380751486 -0.46228820505394574 -1.0026176185830347
P 3.930171315057307 6.073170259788258 3.878846365642253 -0.4253411955159514 -0.2591641133338246 0.20772533793755837
P 6.86591160705059 3.944188671001745 10.39648564579819 0.06062249877806334 0.9813340266139099 -0.8944101709371565
P 6.387430917432754 7.678684179089012 10.293551258562273 -0.9937182592108758 -0.19458880055560035 -1.1241768049454706
P 2.3622620815496895 8.569177903258668 5.795422248581689 -0.038110690828792426 -0.19036139273781408 -0.5738954224099923
P 6.869449706527894 3.7786002137852766 1.6318308973975957 0.22738399270875034 0.33489827094234587 -0.7253295419549896
Ni 5.1385088103370276 2.830146478330913 0.5542590380157282 0.37934133174706924 -0.24104529224592683 -0.18191557596330604
Ni 1.4843092545095138 1.2864817789006049 6.901127850626605 -0.4451250630110979 -0.22105573649787735 0.32616706171693505
Ni 7.100227421543766 0.6875994740421026 9.490706971774669 -0.2596179130417916 -0.19602861832592045 -1.4290111666229002
Ni 2.7851414928676865 1.7195703627561698 9.067872574444934 -0.3382620452082561 -0.5125291034873689 0.5357343379592386
Ni 6.370226571119447 1.8220672140261902 2.6930401720466337 0.14275356105186382 0.7910299694765925 -0.4100912113354163
Ni 4.156582673211874 6.66642761667368 10.318625850583114 0.09373573639226437 1.025166707528144 0.16670544388177094
Ni 8.152987570596238 7.143494867060124 0.5073364566525883 -0.23248171894663192 -0.2884340659425355 -0.5465669097983684
Ni 7.5576505674531615 4.037709733012545 8.133882733698556 0.7909726338760958 -1.7987232028103215 0.6253431966673231
Ni 3.189196054294985 8.354929324732192 12.242777587746856 0.07881151098226427 -0.2937441653015393 -0.26221704122753553
Ni 0.11513948001297084 5.17220628194912 10.29957232963205 -0.28084674051358083 -1.4507382738873467 -0.8544120332776639
Ni 8.61164409978398 2.3878030184889116 5.722423964098787 -0.38286451440897934 0.5074498891922486 0.6658414138916856
Ni 3.6136599579997655 2.5288768576985055 11.3100787481838 0.051565016561485384 0.18155844973420343 0.2503316026438592
Ni 1.0908509859188267 3.2909636789551793 12.52723178292453 -0.6746443568952962 -0.4101269496693582 0.43240015924526176
Ni 3.0398666496383466 8.36911773383202 7.8757545194153735 0.238554407503273 -0.15070315491624367 0.411616132620375
Ni 5.491436483897619 7.919382977117583 3.6393764494932053 -0.04458961368491676 0.8858869639574938 -0.41751192927951963
Ni 3.0296754826960837 8.202601988457378 3.5720580300490616 0.1379553683322721 0.7518029056551697 0.5426182095632656
Ni 3.60188429867072 4.326600506873213 9.290147147078326 -0.7638948038226973 -0.11068650531399002 -0.05780122727918433
Ni 7.24026593902336 5.9991762658850245 11.564714777257702 -0.43682477067551867 -0.17001471076066202 -0.43118094212618
Ni 0.7808216431708517 8.850074192804204 0.11001688814888284 -1.1939467745507568 -0.07714055103774457 0.5039084516978934
Ni 4.485211795909244 0.39461062669016583 1.6653519141757067 -0.14526398617854336 -0.7989602800672627 -0.5876302554975815
Ni 5.83815222707821 5.6469328049459975 0.48774006700309747 0.5678564153047639 -0.4428056708493019 0.07325150039598352
Ni 8.09915984343388 8.47359520058552 11.338434859948858 -0.09571779981929968 0.6916763726769185 0.8977253513533184
Ni 0.012916313791576492 4.936296972271508 5.696255532163208 -0.27323601804585845 -0.11161390222426583 0.06800002218905708
Ni 7.856138323611048 8.870537551867598 2.6075775142142947 -0.06059987307024402 -0.7441387042416926 -0.663804843077631
P 8.54071105708249 1.646674710166503 3.6321030892700126 -0.4292562142996414 0.931299587764338 -0.5268288079394927
P 1.6527425957840693 2.9795298997734645 1.6775011896073178 0.9518118487850769 0.09849896210886262 -1.011549888075658
P 4.639807837192405 1.030460219268032 7.948832028517614 -0.04206144794642434 -0.05490565089894415 0.8806717383051414
P 8.45965886981995 1.471660323808207 12.271199419934772 -0.7514077270992802 0.1278866712423604 0.4399458328030036
P 6.256152122068728 7.752101993942505 1.510212103914354 -0.5397730268049866 0.016879292253841896 -0.7005338230675484
P 1.6589455233664183 3.449854054718428 5.973291422075489 0.772365817408186 -0.6343037482947205 0.4870196463623548
P 6.8445029542337155 4.001491478057843 5.902968769054814 0.12687082838333635 0.8220112483494552 1.118551488338893
P 2.4121285777450905 8.564235367347624 10.000005138035666 1.0970488383804267 -0.756620124538155 0.8234438670309238
