# total energy = -340872.5570760085 ev
CRYSTAL
PRIMVEC
9.24499776849555 0.00000000000000 0.00000000000000

0.00000000000000 9.24499776849555 0.00000000000000

0.00000000000000 0.00000000000000 13.53098873288928

PRIMCOORD
 96 1
Ni 3.44669235487666 4.262387758152591 6.366803501022918 -1.3139118769531952 -1.1878979972535153 -1.1802345671709866
Ni 0.4091623403289677 4.582551277900171 0.8079203601034054 -0.2807865766996067 -0.24434890269786305 0.2933960379335011
Ni 2.6310246865942104 6.420493825903344 10.325159336136299 -1.3443123436219235 1.0451436648707033 0.9800070802723702
Ni 8.622790983267263 8.386498083806421 4.8319295472853785 -0.8666903364243848 -1.41917746836193 0.09093811904246919
Ni 1.0216277298728336 2.367847333452391 1.6491023733888688 -0.1658703495749853 -0.43999185554959064 0.06760407230221906
Ni 4.727780948764851 6.87776990842348 9.484005057844314 0.6887602274713881 0.5809225044601027 -0.49519035509860526
Ni 1.2660469824236271 7.857536288135561 3.582058537559691 1.069319233675642 -0.7806925921063265 -1.320079696326804
Ni 1.9892461824402077 8.06518818432829 1.1989782211877171 0.6909724046313585 -1.321569650608769 -0.6876510535676094
Ni 7.975012475523523 3.530294870226415 5.809922736414236 -1.4262186914794277 -0.5115639113606223 1.1142649451483972
Ni 1.463427686030535 0.18419271420666208 5.222812677910759 1.5155010200860286 1.1543430441162055 1.351962918188646
Ni 2.2570460344955383 2.6958043863681502 9.36062963734293 -2.4893389954332097 -0.7642606718025483 0.004711546543056402
Ni 0.7360386529987482 8.991768091541516 11.175446747781594 0.5019289593740194 0.3614012023288808 -1.691526712927461
Ni 4.614696135344724 5.860505817525001 0.5492471699029104 -1.2485284664513787 -1.4496339850795745 0.5702244013163082
Ni 1.7581027467690171 6.0800837609145875 12.875805238123036 -0.34189732796799827 -0.24283246605333667 0.49872973571043144
Ni 1.4148914474386725 6.956805394846687 5.708981227639903 -0.03211693513920276 0.5351985200604267 2.2804489477635888
Ni 9.037937610689662 8.582344117774044 9.047942547338064 -0.7817940527006213 0.4074920831496724 -0.3749748272482575
Ni 0.07117169127154202 6.429618638758615 10.784712461621227 -0.8843013646379286 -0.0761658458293011 1.6709512027689546
Ni 7.71305546209487 4.012513956883854 3.2267483095731233 1.5536402501599114 1.342246205121514 1.4401687259016165
Ni 8.659197784710074 2.7393575711312477 8.188020923457227 0.10573044686029534 0.9097509150592848 0.5555634568700238
Ni 0.9842779386516669 0.48037470959094863 0.026934376669244323 -0.13912419182939265 0.7729702837614042 -0.8223678603579256
Ni 8.582908062641492 4.060356820638691 11.926782174184932 -0.38753003820544873 0.6671418778706639 -0.5510198033633994
Ni 6.516466148345655 2.844473196424482 10.727448945080658 0.8500887233119618 -1.6948609195070163 1.0954367566983005
Ni 4.3231736188652565 1.3235138889163924 9.667282517266102 1.5354656361334136 -0.9688893730926541 -1.0099635174251447
Ni 6.298885124486705 5.211701115022462 5.133346060439324 0.3565844976665278 -0.28560688090638553 -0.054134319950558375
P 8.613324105492392 7.534627004033355 7.144118295819968 1.6246353504215503 0.1949361565926901 0.25689562901462204
P 0.6601483148362944 0.35753642346331443 2.3647974086692565 -1.2665930372625736 -0.43683711197069286 0.06642959237814365
P 5.1781140379168935 2.197055243595996 12.522037075774016 1.2243261581735625 -0.10692909515408681 -0.31857330853007715
P 6.946663632230444 6.946867022182639 3.7438894510223535 0.7445940466115564 -1.0186211931001423 -0.03287721034399499
P 7.040592810152983 5.726832393944098 11.334043761004365 0.5502620992617685 0.47082503888036337 -1.7971949390912532
P 4.658082910146936 1.7084201284466038 2.3206460725467495 1.4489439009910852 -1.7012493395318635 0.2571439975800023
P 3.26750580699333 8.195089648795769 4.921383221759855 -0.4011656267110123 1.0642575028820187 -1.0741441658681115
P 7.173397203938146 4.76980870888649 1.3443863205104587 0.3172635885797181 0.302767194735756 -0.6903473694528498
Ni 0.29701312068893576 2.0249411190503377 10.95701610862234 -1.1074571781979443 0.1231427287994718 -1.596719854958205
Ni 4.0760640719468 3.0298076678627814 10.970451863964353 -0.12302882892942682 3.1741937172026042 0.3068174535457297
Ni 5.45452098294918 4.930412811137507 2.8280309677891244 -0.4810184344735973 0.9003221655462172 0.15416514532291514
Ni 4.895254084401344 9.203025536886784 11.982854010505601 -0.09226249428084755 1.3394956389595705 -0.4828660292052974
Ni 0.8512932674088766 4.81012614441013 6.720206485957771 0.07784786151741432 -0.687208823823868 -1.5255702313965727
Ni 7.921733553046399 6.07067235312668 -0.1983884083700535 0.5783341749076362 0.9795710211762162 0.06346562465381328
Ni 1.9612708190156407 8.07822363126439 8.157332153170431 0.16663705253768074 -0.5189051822170418 0.6972227564164444
Ni 8.329539652194141 0.6409963773378368 6.768552277594398 -0.0671970666717875 -0.3023743301727115 0.8507628665608509
Ni 6.01700514074082 0.9597971844057139 0.46711830720678255 0.8043238583720212 -1.3738890288377759 1.0116218789641738
Ni 5.311047861671635 8.302396338574006 3.9965533926352848 -0.4864370343860075 0.40233856397319095 0.6357520507054728
Ni 3.870917570165194 7.0278901831386555 2.474627982854271 -1.1335744441102864 -0.1972897444265312 0.5794443772526794
Ni 5.563473282340629 3.326581343107997 1.021458546412599 0.8106240895584362 -1.8838467720535426 2.8594346402122945
Ni 1.42507943504405 2.419757996251116 6.484320366401319 -0.3068714467121167 0.5766027940388264 -0.793932230725052
Ni 6.032435042114119 4.507084360638195 12.7845108845812 0.40779470199175577 0.14203442349765216 -2.2044203988431
Ni 4.964868918038816 1.0265090887255008 6.831309171843784 1.0548377522300156 -1.5672781526583202 -1.4105717289707902
Ni 7.898898408413655 2.412472937963423 1.7478657606751562 -0.23047780114272565 -1.0920233601413776 -1.0272007072390372
Ni 2.8908091255335133 0.9177943857782074 7.5848633977256075 0.44624040756246375 -0.2773544110896062 0.11471259575424761
Ni 6.693822186659235 0.5734598192118796 2.832955778131579 0.5482229573445526 -0.9673320559078632 -0.9198075279643384
Ni 6.3295415372811075 7.316925795202654 1.6465858849803534 0.4625671697469453 0.14823695276393825 0.0010037586741660132
Ni 7.211089060078912 8.323890958521831 12.455586804892734 0.5655488502175099 0.47112920038434347 -0.3883936717573247
Ni 1.864466446768899 5.362977014466015 3.97333458059272 0.3213146187206402 -1.2985729326032798 0.44221483134283845
Ni 2.7848244704445397 0.4940952108660312 2.796964077091201 0.6409276813691414 -0.30377866671940584 -0.15582324975162842
Ni 2.4902511046821547 1.4458806801548485 11.841549765718273 0.4180112375134414 -0.5306209279920733 -0.7048296222294248
Ni 5.763387115352141 3.157749192790931 6.738351643192866 -0.5912920206198848 0.09700360851025874 0.017164170484112375
P 4.067456978969843 3.799194877023161 4.156084150638584 -0.18789724746803768 0.24321890285847786 0.4794338635952969
P 5.5218153221320705 8.651940461415862 8.245283515498016 -0.4120398504213549 -0.2138363359313027 -1.2038915444682943
P 4.467108990034154 8.017557955523475 0.6415362852109349 -0.5188290775634677 1.1660580185602887 -1.2641414903982875
P 6.688016328023865 0.5235673394387929 5.144387361344136 -0.2569249395906607 0.2750797561228166 0.1985081902146646
P 0.42368992991434923 3.669025307618699 4.812634312320602 1.1491977524698402 1.4191142192241626 -1.0356110427899197
P 1.7557730073166078 5.9986723100498365 1.980368211026919 -0.04756103760841487 0.22584338769450782 -1.1338670356500407
P 3.293558210869876 8.819321147074085 10.060614647815862 -0.9972887501709534 -2.08544362849586 0.9177516738765743
P 0.8452350203328295 2.6236934033173824 13.036891004760841 -0.5785491191319198 -0.15641717458188548 1.2771319891206843
Ni 6.826275270526971 7.4305930434858825 6.097699179774195 -1.9211529647031687 0.14181305151546544 0.2027134865452638
Ni 6.304811168093825 8.644757098104265 10.178239679668838 0.19393085525662732 -0.6179119372002584 -0.05258060231019332
Ni 4.107922334458716 1.4343059428754175 4.534856334110567 -0.1020044041589598 0.3221332579671936 0.5036891365982358
Ni 3.1569818579712883 3.102159020857051 2.066168262360157 0.056972817840618 1.5126208703247561 1.1728544726568317
Ni 5.323852183662059 6.897803818714636 12.168269837924777 -0.284780014129716 -0.5784426754610426 -1.4471356441377528
Ni 6.3846232343345015 2.40136969557317 4.056427696562206 -1.47277905573747 1.1552110485434557 1.0643685745385862
Ni 7.472047613742247 6.599652638793194 8.999948065618865 -0.23546188462087833 0.22581561978036593 -0.5770249691779095
Ni 8.19772447317647 9.017709555444139 0.9059182615696156 0.12289076068966576 -0.23499214407331143 1.3536277074855785
Ni 8.757795686535257 1.4746603583903664 4.6159747185442015 -0.1990902879703797 1.145258051095802 -1.6623251516628403
Ni 3.9978698803258523 7.492950553829142 6.858899018858964 0.5870160189523503 1.703363300551073 0.48527849530153205
Ni 1.7587498966169086 3.736513791755956 11.568102144490416 1.1589861993151718 2.386676645975277 -0.863437633815042
Ni 3.459228571930101 4.740058305879135 9.072135782151596 0.9610819612330931 -0.43846821981621265 -0.15367817838416759
Ni 1.7544787076208248 2.4531047034131825 3.9171129753072544 1.268279680936377 -0.39098354397168794 0.28914009087062464
Ni 6.516937643234833 1.5149223239270448 8.46734096730481 0.9657649685310594 -0.5454510510263704 1.3146243296391877
Ni 3.657478305332749 0.9203913056678177 0.28770155887755977 -0.9717353271818813 -0.5947424410623305 1.6195869893643655
Ni 6.179384282574625 4.7172601412377 9.526006007472256 -0.985894906511715 0.10492903400492251 -0.5658201016010256
Ni 3.6541408611171944 3.41003593849252 13.43559540354788 -2.0781373246424337 1.039780343676261 -2.1626158041024883
Ni 7.9371542094218706 1.7274555789724408 12.885100158938323 0.330209864327741 0.038717471174855904 -1.0049588651217014
Ni 4.137293692555163 6.1996862978027645 4.790267889077689 -0.21289274107111078 -1.0484974118342845 -0.02924758401120769
Ni 2.803841430974723 8.189690570064789 12.193369082525358 -0.28611621644263624 -0.11801209244112579 0.41401137232542884
Ni 8.937915979199115 6.906531096663345 2.1000363873996672 -0.9028655007933613 -0.7195288761128125 0.06820262511816641
Ni 8.72808226351921 5.784225340454247 4.5860449625790025 -0.09907026123130035 0.5333979765165782 0.03846164641030795
Ni 5.068477608686245 5.449140394213854 7.260958427357432 1.6651351103078098 1.1363939158369525 0.8393520536207478
Ni 0.5890903370380247 5.831236154404651 8.686354041327165 0.48791027649742424 2.6508698370925763 -1.0024235002943573
P 3.923170297883519 2.870682765264088 8.08487448270115 1.3292847598648398 -0.4442118071682091 -1.2045955125138543
P 0.9012051616774002 1.0865553496120053 8.080205758798504 -1.4738280658272747 -0.820203248606439 0.8033478676119972
P 0.4116381507470441 4.124156550642965 9.713368831433804 0.005168688685133033 -1.9243575876833956 1.5926006905835088
P 2.598648704203981 6.009026707616101 7.568057840675648 -0.6851395999996652 -0.1716728151893753 -0.08782888398952617
P 7.831724254202517 0.7406389639174741 10.519572395440733 0.309205494161932 0.9422928535510481 0.6525696364834439
P 3.5676539064454085 5.155972268121176 11.938757219870274 0.6666500258359099 0.45678090208247135 0.03869021748134627
P 7.162700741452283 4.69683794103781 7.432937574934816 -0.13613554151471394 0.5674954324209195 0.6301732710661148
P 0.22678719269509803 7.7069814985225165 12.625278740007712 -0.3029633699069621 -0.801554266046684 2.476820037030593
