# total energy = -340866.72179732734 ev
CRYSTAL
PRIMVEC
9.26710000446439 0.00000000000000 0.00000000000000
0.00000000000000 9.26710000446439 0.00000000000000
0.00000000000000 0.00000000000000 13.56333758935694
PRIMCOORD
 96 1
Ni 6.81536820172737 5.22552306481973 0.6331301234716967 0.917117382726685 -1.1684342321019487 -1.1414559037408922
Ni 6.921541366100647 4.6563192503713156 2.853984144667561 -0.9786917038950564 -1.5314619142906594 -1.0273146071090824
Ni 3.165270666259653 1.8893114724861055 2.1690351782853243 -1.197440646636628 -0.665946314900666 0.7474731679315644
Ni 4.055866774819061 6.315788109364705 9.486415159407874 -2.9814111166178074 -1.2168167371703948 -1.3021843041036218
Ni 3.4174933261834997 3.7829321464589505 8.387404752619812 -0.44015486349001615 -0.016605983987797206 -0.7993377180113395
Ni 8.211252936231876 2.21377117668766 3.1990761202456253 -1.977776626734484 0.07702459428517057 0.4078456098343492
Ni 4.704804717422113 8.583373335586767 8.757466929071036 -0.17953242044311016 -0.6867519387921076 0.061101495297010894
Ni 6.54874446844784 2.6739104915716942 5.580323254327919 1.6147851971003482 0.6801516598667705 -1.0988776640590494
Ni 8.503861617831443 7.592331130436456 0.1285532108044089 -2.20071261097421 0.6205658298833376 -0.5696896118587608
Ni 6.20163597191598 2.5211145472418863 9.729917478258557 -0.6894593104209417 -0.7080321883271226 -0.4001356427846012
Ni 8.707089120206062 4.709808951406714 4.125193949705723 1.3536297643681074 -0.11816481596890618 1.4515016344159324
Ni 6.215295677273946 0.6997383312267262 7.021034804814481 0.22623213849249424 -0.5529314185638156 0.6013743445565514
Ni 8.553561074978505 3.0436399791339417 12.412162799544603 -0.30935616080718337 1.2981191328953126 -0.976527349253886
Ni 0.39913955603174556 5.347441032044556 12.79688645486071 -0.5567798457756282 -0.40903783037023744 0.10272482726475211
Ni 1.3136762906574821 2.9959514826806912 0.03703225819604227 1.463221236845706 1.3563049972074255 -1.1306053341796336
Ni 2.1767583794015577 0.23221591779541226 8.500658908081299 1.27146527775321 -1.971418288616624 -1.4001469340930401
Ni 6.9271757628833095 1.4225369140224904 11.860256953902958 -0.6219969059029095 -0.099779371483183 -1.2909799507473703
Ni 4.011505167255573 3.328760843956552 5.767673434321395 1.0659567449613128 0.29022998150069373 1.2799396337728086
Ni 6.624289867415366 4.760120037151894 9.80987401681251 -1.828222240710703 1.9029696089259225 0.589185001579211
Ni 9.248371162440398 0.7393514767648265 13.146373815955247 -1.4024591271659848 -0.01782520110687898 1.4261819247042213
Ni 1.282056945554783 3.7073682132914803 9.742844156008777 -0.2641024311757064 1.0944653939239668 0.5294356494347204
Ni 7.364694086736954 6.036116299325327 11.83540907874942 0.07987723324261727 -1.194591350113291 1.656535798674573
Ni 0.7871836132676349 2.493183507927837 4.6587351833338815 -1.1416736761786532 0.23935196370390388 0.2993147174107813
Ni 4.005036731475478 0.4059202930808795 6.110731281455718 -0.2784481583744172 -1.6148877841164835 1.128284656466257
P 5.959912936259824 2.74869598834156 3.569639646805306 -0.07894443701570275 1.2357691099031813 -0.28628668058222956
P 8.149914001520632 0.2527851728921154 1.7933988412012534 0.8145619911602617 0.5020094349029677 0.41644337880568927
P 6.083276571080202 8.551883729883668 4.854589780971187 2.1106376112629843 0.8800122503442714 1.3651843019749264
P 2.6823250183458 6.773026821957664 11.316041874527647 -0.0389630115267587 -0.8321272537375346 -0.3982669650069786
P 8.558463370863421 4.437115267645862 10.35346542035974 1.490308322870485 -0.19642688220560364 1.128669293499185
P 1.0609439402352043 6.769764802767703 0.6638060777972989 2.482807622072595 -0.41009326821794534 0.7211818383352031
P 4.941069431195066 0.6393603947825246 10.625193472303563 0.8989893056674066 0.5499453393522981 -2.6403743368778914
P 8.581751593091756 4.0303822498974835 1.1707822426472037 1.6839800109284546 -0.5910817043812917 0.42073300731997865
Ni 5.70532716584325 7.316931453483932 6.8188053691067925 -1.7189120469189494 2.3251624886208795 -1.3024041334239118
Ni 3.112466730622144 7.690682862433803 -0.03617227131868868 0.5440364300670308 -2.308732368089314 0.3181755588710262
Ni 5.36833834248025 5.155018968236688 7.6845665764526245 -0.9927787781157419 -1.242049029374622 1.078522240331149
Ni 7.658544559732701 3.83461476299991 7.948834612919404 -1.7523685268051818 -3.123110525373544 0.2970930271691141
Ni 7.95196874612976 0.6116202577278882 5.382732928865955 -0.2907305752861961 0.10786600514605939 -0.003105635508517232
Ni 4.477964644320158 5.9774462894058695 12.33219328705069 0.9592544211060511 -0.36479891515652013 0.400945026059774
Ni 7.12529709317364 0.2884449735823811 9.447231080598455 -0.26855352496852464 -1.0998971064624994 0.4101806857254291
Ni 5.71844937940287 6.941391494239564 10.576649622522945 1.6477583095922588 2.1536724788662718 0.047006193546209364
Ni 2.4829433624593484 0.5870466887335073 12.976750671497221 -0.07971371108155947 2.372109546794379 -0.34003559216891116
Ni 2.0417830683169114 7.032783634158327 2.917826123081103 1.2711017237662043 0.08064110799183531 -0.7784225651252271
Ni 7.049130798508022 2.5954830245130354 0.6393594680725274 -0.4103987152735061 0.6859451266200961 0.3614533957230549
Ni 0.5757908691081444 1.8162496563109354 1.678341308085315 -0.26211471132171626 -1.2962594539787546 1.6095931113764474
Ni 4.851632649370286 3.838340137188446 1.6446090641891176 0.9424697454485446 0.13282756018740352 1.4203020688846766
Ni 0.5558842116594022 2.1276798179525853 8.12056046236096 0.6063800253012589 0.7521376632867692 -0.6289851642952845
Ni 4.473479367933961 7.215410373296338 4.680721378016224 -2.4543583655929666 -1.1136453092865273 0.054067214158048826
Ni 1.296624826709954 7.192187020767802 9.285027176377598 1.2681920063185772 -0.41376608908384227 0.5629592351134627
Ni 2.9575208190989524 5.283507309341297 0.8546870228799095 -0.8637114563017191 -0.41491228687314347 -0.33107941141688785
Ni 1.7899496265918673 5.300892388887799 4.48422920390088 0.20504959087760816 0.18478107043655917 0.17237086969766444
Ni 6.779411853838017 6.555416780427306 4.081926786648868 0.9888794430613356 1.3430162505183192 0.766491618015596
Ni -0.17867246758017916 5.3967790722927305 7.854474220879775 0.19352436384682803 2.1926439750334628 0.16314498022402224
Ni 0.517340489458011 -0.002201862953224305 10.153623189604705 -0.8867189729404857 0.5734953587580961 -0.39750874668471536
Ni 5.137439279590787 4.961837002231159 4.674291864056009 -0.29812172554394467 -0.7633571861516724 -1.13664048463012
Ni 3.2192607906935113 5.491979990299774 6.516939781345711 1.6333362206296578 1.021963370099498 -0.6236334130650679
Ni 1.5459190830428118 3.8300275485140265 2.614048732595904 -0.19997680434039108 0.29564806719247144 -0.2718121411151383
P 2.516545866955945 2.116364688887405 6.725963854752489 -0.0787865712815998 -0.9054859691353437 1.4160677190883546
P 5.892568920767059 6.9891448603926145 13.73640543758957 0.08168086211025932 3.228485388666633 -2.160899849852646
P 5.679166142623754 2.951636210617061 7.397525568515922 -1.635841503550015 -0.07818878979660082 2.431399442803948
P -0.37596902597304716 6.705784744564586 5.082263893070574 0.4595849471901698 -0.74584103164478 -1.419161784632646
P 3.764351611016128 9.269787430474494 1.227900940031435 0.7125809840400695 0.5392855456456067 0.6858836772545414
P 1.83634072904911 5.321493152124406 8.30903659500097 1.6050666842610035 0.07982606828970767 0.7679815722975613
P 3.552023816469515 5.24308421926569 3.0631036692040468 -1.3137750942650148 -0.3512689989908853 0.5808122041344836
P 8.793736504939424 3.623945779348192 6.1857632830848255 -1.4366596843070933 -0.10170512775098614 -1.4081487213515942
Ni 2.9355207237666523 1.7769108169319912 4.61152116239917 -0.5069091861974302 -1.2119720074835836 -1.8531624555958086
Ni 4.282938525420303 1.555751476112555 8.55403091694706 0.38707829538001076 0.6387941799659064 -0.8774694293177598
Ni 1.5467067865403878 8.898065516418377 1.217333665933953 -1.27287655627844 -0.543546892025122 2.0571393822345283
Ni 6.937258367652283 7.695047666520372 2.10380962184604 -0.4905356299354132 1.4481733413736477 -0.8340203569951895
Ni 6.636401967078095 0.35663970885252844 0.19651348844527775 0.1900549172409888 -2.3520354017523237 1.254856979772568
Ni 4.155886584811275 1.9387607179339377 12.160427589079255 1.0813198576809442 1.365357080107365 -0.36518612329260974
Ni 0.269576231330445 0.026966334207017696 3.8543610996191453 1.091045055388508 -0.4098423285494038 -1.2518372191096374
Ni 1.3099972519688037 7.1692880167382675 6.806910119583398 -0.27803472498608245 -0.11279095325150253 -1.2776228127141738
Ni 4.814462311384669 8.844603616682893 12.35957756746642 0.8152117089291188 -1.5731631506841874 1.590927930866776
Ni 9.035719019394783 6.707628897458911 2.36323559857772 -0.4985330463185931 -0.8520417332732745 1.5781048109601787
Ni 8.272434330243605 7.1144082507071476 10.02326567443585 -0.2525478935688876 0.3143703261923231 -1.045945077726076
Ni 8.274056072738615 7.88053793954957 6.773069450617534 -0.607823956836637 -0.47192007171675493 0.141504262025795
Ni 2.9333522223733253 8.820092137258323 10.814456381731155 0.4351535536206828 -0.6103086709317037 -0.6443050824818065
Ni 8.507207040921148 2.1413673246104654 10.01614483481776 0.4243032411697402 0.9467884274285566 0.7044208168267803
Ni 4.52447621907703 9.279610556444267 3.7057751988063825 -1.7810121586838037 0.7575994577322889 -1.1024121595748693
Ni 5.50782673125101 1.3272155237158187 2.1589989090162085 0.5835859102248788 -0.25196502448222413 -1.5285048885448644
Ni 6.951659441007967 5.418806968924946 6.155028946029402 2.8748921124179456 -0.4739314457198289 -1.0311836031461854
Ni 1.1179644063597376 8.069002951669615 12.25484173029872 -0.5227163284330159 -1.5612322035745565 -0.9011289777182286
Ni 4.225677114696511 3.7261433578337044 10.533152635386795 0.1220492386249769 0.609157588046396 0.40246840468283585
Ni 5.049411096961672 6.315120878166758 1.9331420752212276 -0.7773511864379193 -0.22768892554367884 1.7272676179724962
Ni 2.5104295809747663 1.7148768497228855 10.0756340563747 -0.008160938544237559 1.9298661762064504 1.398211150522908
Ni 2.5276015172219237 4.706426459917123 11.871690701847772 -0.6302758580822501 -0.8365516080574754 0.20493800500040835
Ni 1.083073774967105 0.4637469969029319 6.536348795525983 -0.4101315776550485 -0.9864003853932237 -2.7800554296520184
Ni 1.509276969755569 4.049268599639365 6.496703215137984 0.2556026212348114 -0.8717096440158472 0.5384093136882405
P 3.335627765035421 7.4248468326518475 7.296072138158121 1.8997104785586767 2.0056574123051525 1.231577697529653
P 2.3650380495221732 8.502063800436977 4.466515142305391 0.10565408509640513 1.1496340686763105 0.5901568785741771
P 7.069842766944287 6.61380877734762 8.155241657294237 0.7031810308824084 -1.260179677537062 2.1334456102964356
P 8.259914478182132 8.6943375906453 11.674466426834682 -1.1509574154734241 -0.5402075432392438 -0.4312603892138638
P 3.493465011749715 2.9168197160241998 0.3968941377086553 -1.1719147344513816 1.0308781560906246 -1.6455463895426046
P 5.950738507288057 3.8696536679920865 11.945638452780218 0.3693700794669703 -0.19637237481858438 -0.1763635357968253
P 0.9125823032417509 1.6975381056762413 11.58527429644915 1.0231023687999474 1.6113013523168054 -0.8606258753978597
P 8.543821352908477 0.43485310590184584 7.790916742435358 -0.4843523839428368 1.0652887723600104 0.4396617259036815
