# total energy = -340894.4167299332 ev
CRYSTAL
PRIMVEC
9.05124860601295 0.00000000000000 0.00000000000000
0.00000000000000 9.05124860601295 0.00000000000000
0.00000000000000 0.00000000000000 13.24741724913553
PRIMCOORD
 96 1
Ni 6.261852900782486 2.0112417437885366 11.093188546695613 0.4323482229614038 -0.24361793806910945 1.975078511077031
Ni 4.528430181160017 0.3934441992559697 6.049380270923753 0.49903261166283086 0.08208503952721347 -0.16014913082049193
Ni 2.6642621756810665 1.5791351361880905 4.70166745863864 -0.05203912798442651 -0.0250559145273633 0.7152356480540973
Ni 3.474448488059021 4.414194372728403 5.005457230378818 0.5147677630099006 -0.22790618376080748 -1.2477239682722125
Ni 4.953196226155437 4.5366487148780985 2.5536912178028137 0.59797611750828 0.6628077692716843 0.010900963183219937
Ni 7.280371801914932 5.783603027879419 2.411467138486782 0.398821551958868 2.309141430602275 1.4216840368338677
Ni 5.3510710115953275 4.333891695253934 11.651130137793444 -0.1589132015308618 1.0447559425139814 -0.5797634511549951
Ni 5.524167089595976 7.708948422565983 12.528175308117822 -0.1482148412767512 1.2287967923504064 0.017730841620859784
Ni 1.4310476580366263 6.481390935289164 0.53282437626559 1.8122564614100662 1.0581436766747971 -0.2640273549633969
Ni 2.622400150960663 1.5997629317205877 0.49156425957630145 0.33570122645961537 -0.9272354449972934 -0.2633113027329788
Ni 0.5459803660885318 8.905994150851994 4.830855929737954 0.6653955846035186 1.3897787034848388 -0.2052262256647885
Ni 8.400427609709755 2.077886087143419 1.2729141990771242 0.7647491814031927 1.1212380340321204 0.945913481022771
Ni 6.914339309008312 0.7691470461542177 4.859139271326346 -1.1425301106416774 -0.6291646272959422 -0.10364965307186665
Ni 0.9538205762240263 7.541952886113778 2.8084920116842422 -0.559070698692334 -0.49363689456855625 -0.07562257173132138
Ni 7.739722667765846 3.862122516340016 3.7512709697555287 0.091005739055611 -0.2971539623140366 0.4929015590644285
Ni 7.547827146447516 3.7285079846810762 12.61295835364345 1.0810187815007577 -0.40797339366146507 -0.06413025482100568
Ni 7.961858410617337 8.891530255608057 6.861142405680912 -0.09639811371577592 0.011038517202348731 0.6399149238339109
Ni 7.034793325220016 0.4277077007865832 0.4658940134553206 -1.616280550698952 -0.15821694679478557 -0.32907729338519454
Ni 1.9115874968325057 6.6249980453894715 9.243809376284917 0.155894469309196 0.3019968922286348 -0.5805926319245098
Ni 0.0610479563528012 4.569939207185481 1.326119248528254 0.20084815120175087 -0.17149952283630462 0.2893910305391661
Ni 6.317373259622476 2.121404490355462 7.008215238865639 0.4734750749087007 -0.20838174057463468 0.6676342441260502
Ni 3.3829132110866014 4.126409923866732 0.4537427122256683 0.002978623012349709 0.865659066946393 0.6297068729526575
Ni 5.77628056777157 5.673014872628849 4.7324679524594115 0.49067935460212914 0.2571085163563766 -0.3215637586169688
Ni 5.4431131584886865 3.24524372006015 9.276437317195642 -0.11166738117002059 0.03725374214513584 -0.7563573577950715
P 0.12914864560552422 5.468547167021516 12.491214534507927 -0.059015045081627394 -0.803659485315145 -1.1343797136204012
P 4.0257147833230595 5.953078606444789 12.768245194921963 -0.05093689605918324 0.25202904495094014 -1.4364177434996166
P 2.2309608032669788 8.489890150755478 1.3380026327996957 1.2648909669698023 -0.3724044954179199 -0.5697716300496058
P 6.292753863462584 7.726951356007903 5.740582443339727 -0.14313485565068254 0.8461827033893362 -0.2545798363972519
P 4.618924564544794 1.1477978847176409 12.493042886722742 0.5013933985855236 -0.6361459437097817 0.8791627578597827
P 4.132736746629881 6.189270938353747 8.120547616240154 0.6514108402886524 1.3282588897034866 0.604564826469391
P 4.60906775483225 1.0767455833003075 3.8012401978363792 0.8144354928847265 -0.21336119606709708 -0.09478680336459805
P 0.2481073955504581 5.629903775603274 3.598276809744404 0.13828806908134247 -1.095361937596307 -0.7019181050095847
Ni 1.4302783019066296 0.9462175274099421 2.6052235965148447 -1.2657006073552912 1.8941286135955246 0.526289647606571
Ni 1.9844138429731255 6.318024949520826 4.848634392214887 -0.05938785504001385 0.8204444180829676 -0.7359965347505324
Ni 6.1021979269353075 5.785295611365412 9.13474364104688 0.08153019546500798 -0.16241350137463645 0.35049278294649316
Ni 8.622056482640307 2.3012346973057274 10.101791711957695 0.45789110442751463 0.795841789042939 1.0724847758878175
Ni 2.5978169597951246 5.205726061766087 7.034630402745428 -1.9958661372463433 -0.13839117031811005 0.4409087109369052
Ni 0.5243641742102038 9.121124227296221 8.995049385711248 0.8587163170799726 -0.28703178627837017 0.6497015709070295
Ni 1.653337272114116 0.9843413864634211 11.629682299138858 -1.3333378468882908 1.478119237003461 -1.732775949385235
Ni 4.068771572857104 6.910157632160566 1.4581561475582714 -0.08793121389534533 0.5053942922148006 0.07164019004480565
Ni 5.606243811793731 7.926223644925611 7.91481545120505 0.4376840333520204 0.4460802278355156 0.3595944881374452
Ni 5.183622912713714 2.818468297878151 5.012186833704142 0.2734720453160645 0.09198301536721577 -0.30272785685738834
Ni 0.7908066840257691 7.311508097058324 6.743134036837739 -0.07489777775015488 0.4309983938017287 0.6607678560235201
Ni 5.0633227677280095 4.467687251884638 7.138847384114769 0.504891127326137 -0.13330167161034462 -0.6245947485370728
Ni 8.30335296860136 7.153301322985257 9.198993024025324 -0.8082990409696854 0.31755335190599504 -0.5208245107269418
Ni 4.447656838758961 0.2765283161173915 10.515481744055737 1.1895992962153383 -0.47871832558551103 -0.2046922075381894
Ni 8.220751273985488 7.077388501076062 4.7206506423026635 -1.3705450520662072 0.27369084619508993 -0.05141537835749854
Ni 7.269293073642981 6.177676288912268 6.925511265140722 -0.19908360310216036 0.22626144906853288 0.588043174665284
Ni 2.223602138164776 5.262622210391483 2.445831108876725 0.5560691928618489 -0.040036704206911695 0.6664515366718587
Ni 2.3434406694724825 5.374875795382282 11.416690127611162 -0.5084261370625889 -0.3863324183529217 1.1019629878525925
Ni 1.235504483537254 3.529127080780309 3.892197100024013 -0.5101901709415472 -0.4849527365309971 0.005626345047841923
Ni 3.6457705213363827 2.665294018020121 2.53820543659327 -0.4157957179193613 -0.36825833446003037 0.7746309592932789
Ni 1.3735088707614684 3.289486223159249 8.40852033107246 -0.630573591828327 0.26744795060917165 -1.0579667847773007
Ni 3.585308180767238 2.4406058230667598 7.267280981081825 0.1505126361719924 1.1528039817638596 -0.7127262513686823
Ni 4.075306574337781 6.926467982116494 5.987885182890695 0.3793593294691983 0.6614684816349705 -0.07450542740774266
Ni 0.6183306165534126 7.315083340250662 11.267577142994655 0.5565638731100802 0.2616056328957817 0.4641828509734974
P 0.3055321370934047 5.6000165527650525 7.937719635757478 0.3985919524465652 0.11081326069984142 0.24504438610299087
P 8.587209175575754 1.7054272077391803 7.9563462002271255 -0.4924498162389906 -0.04854242768507769 -0.5886638389684185
P 1.7904998932196283 3.182409952360898 10.506063014774863 0.19761370342485324 0.5742121823194627 -0.3338911698340701
P 3.9254178977172662 6.291178946208238 3.6466693103211907 -0.5541398370496198 -0.8876599966975165 0.06562612264024181
P 7.174879499619515 4.143905987387714 10.389393325597885 -0.525321884376663 -0.14979735527252266 -0.740066591054848
P 6.269980922014685 7.88485038762897 10.29075281848373 -0.27058418224530817 -0.7530360067313224 -0.9268811469816683
P 2.463686506966658 8.541165474007604 5.896478433648228 0.04411215982786596 -0.6068677635709548 -0.8617327353087934
P 6.993718759126786 3.8922269691443536 1.5878487732039461 -1.1969120278266678 -0.8424260645603815 -0.6093331943923119
Ni 5.335810606475631 2.698276767875505 0.5599129530403409 0.4397979943712297 0.37666275647364167 -0.46167911071503714
Ni 1.5308648274672447 1.096785047674572 6.938162195292442 -0.7572621289975281 0.8875895484708972 0.4443946126029766
Ni 6.918530037104646 0.7279258498338584 9.241570097384196 -0.4292703553670284 -0.6506659917028278 -0.9758154107885261
Ni 2.793676927995084 1.5514111617624482 9.426544128907132 -0.4488145960475432 -0.032204352646686474 -0.36714787500467094
Ni 6.242537536295276 2.1062708027159998 2.749303181791456 0.6367696933367097 -0.4031967982084282 -0.04040437195897558
Ni 4.229512696534866 6.801180599158694 10.576366777933954 -0.22699678457266068 -0.08289159458890885 -0.30035164331572795
Ni 8.143191124833242 7.155401212657719 0.12690936670480468 -0.6331482945340386 0.00703788068338788 0.9968498628613219
Ni 7.905007518234882 3.8723956834876176 8.001440425818375 -0.4482849487963183 0.09093889037341758 0.2652558280538593
Ni 3.022519646050427 8.399468177359406 12.42190459844382 1.0248712877749122 -1.3778919793495819 1.4736835698296105
Ni 0.27122971519386196 5.064933889976708 10.036323125794418 -0.7504841868437462 -1.511656449528958 0.8917652771151415
Ni 8.591001648734208 2.434740613981609 5.73568119222922 0.5373327927946101 0.3743731891085165 0.6709216566280704
Ni 3.5658842012969703 2.9223404266762807 11.747505117385973 0.012352608028081951 -1.002164590206016 -1.3015083610825198
Ni 1.2724788340200317 3.2207600926290816 12.57794540872973 -1.9518815041352768 1.208595377701867 0.5414362734400223
Ni 3.166434498602733 8.335303876117688 8.048216373397308 -0.01279766598530054 0.5345400605408214 0.18090744641376585
Ni 5.516536887036127 7.890389751764946 3.500047229316155 0.8877723539056646 0.42622565500343373 0.31523190286167
Ni 3.177648995603507 8.487735953591486 3.4274643617625578 -0.4370224885086216 -0.6755918084102299 0.8508045184320638
Ni 3.405948638743559 4.670942090181153 9.365341396203473 0.24720565542036782 -1.5101240720448315 0.6313737191321191
Ni 7.251923727602234 6.2308885793622695 11.365171325772014 0.2018177142038718 -1.2797241753278927 -0.5234853453885565
Ni 0.4350745120125154 -0.02604134731309685 0.2137977326520448 0.7203894243408948 -0.5540958711855618 0.9082198231267391
Ni 4.498045139649445 0.520189738361328 1.5239560094198752 0.6870591856198812 -1.1522478521500736 -0.25231263762962997
Ni 6.107845906054342 5.635678472202543 0.2928938786897075 -0.34302218560106085 -0.6753565524709724 0.9101964872371355
Ni 7.782354048616246 8.840300188598873 11.45619430207434 0.4253743627467319 0.20063500674968027 -0.25048175506847825
Ni -0.01870259495778806 4.976557498761569 5.838176626117084 1.1680971604775043 -0.9856218553559865 -0.4221561129197504
Ni 7.921860943106101 8.820423646699195 2.7199861876142912 -0.07313502942277728 -0.06590483022292522 -0.17559091929685888
P 8.499765062965198 1.678735075652592 3.675747351535627 0.37563148699564985 -0.2723456450211052 -0.58556360277654
P 1.7339929482835248 3.171575607800828 1.6519261824592164 -0.4513787572302936 0.002197778982267183 0.3538012784944358
P 4.821337636722607 1.2310150642375088 8.510207488461399 0.7841610102709011 -0.6354221781698799 -0.6080689829679076
P 8.636502275387066 1.5580366757290072 12.379114820743126 -0.6933938695886575 1.3094438138795126 -0.6790828522826241
P 6.425182681556471 7.606578801033493 1.465376328557075 -0.5842150591684455 0.3251393917833691 -0.16621899116365565
P 1.888153814237668 3.296111737125808 6.045432116289582 -0.48150437297108045 -0.6955993618804085 -0.026923563863721377
P 6.9167469411327716 4.282562064510278 5.866685343795323 -0.12056314099775366 -2.017777078386822 0.5872389335964338
P 2.415932119415339 8.491655144230176 10.309458128816095 -0.8417899736382792 -0.5894763075673848 -0.9967151370556705
