# total energy = -381166.24555674783 ev
CRYSTAL
PRIMVEC
9.23334880016335 0.00000000000000 0.00000000000000
0.00000000000000 9.23334880016335 0.00000000000000
0.00000000000000 0.00000000000000 13.51393929024907
PRIMCOORD
 96 1
Ni 1.1615090770679612 6.069781716655098 11.015630391379052 1.0307300605485346 -1.0275424068491723 -0.6554217612202583
Ni 1.4220557056041014 3.163502169862027 11.87473899440476 0.47753047592499687 2.656973378887153 2.3485243032752714
Ni 4.610294016151093 7.150739061234956 8.168148807961064 -0.4412072160139305 1.115804007500743 -1.5969512542427209
Ni 1.166707452284697 1.9737113462774383 0.9287483642329272 0.48428939191538534 -1.0372223531410976 -1.6353344820066094
Ni 5.525143420856929 3.82701059450612 12.702467139150546 0.143267781684121 -0.9445726507241602 0.47254947777063777
Ni 4.72822234344798 8.04237582776162 1.2389427077608748 0.8772588559688506 -1.5956908994730583 2.0394676759863777
Ni 2.466255089726012 4.631595351186633 3.067840062521015 0.019542955128934086 0.6282354306134534 0.9809817854808138
Ni 0.5414213971738168 7.539232200212138 9.164531450102675 1.0546415770588093 -1.5533471443995248 -1.676713044953396
Ni 5.4135953373873305 7.588298214247188 12.078042555456577 -1.3472313170409316 0.6058994861204146 0.08166132172623357
Ni 6.93657154231456 -0.2077558817081392 0.6511181942651632 -0.4430584102900563 1.1487760915513894 -0.09262450560595661
Ni 2.890942954901423 7.5262224121475185 3.1791000655167903 -1.0721657019855018 0.9258439639664056 0.5022814576174317
Ni 8.03835008780692 2.608430190236306 11.410197227012661 1.0849260869749635 0.44386779356522915 -1.34408942897784
Ni 2.8998900696172614 3.1486457120934164 8.006238348324215 -1.1194539455485044 -0.22731045915833753 -0.292693869660154
Ni 8.038026920608722 7.737241359222611 2.205853424761635 0.03553290279928719 -1.154384181766786 0.3652028354631581
Ni 4.468358982702317 0.46682055780682613 13.492762365661573 0.6259546049990768 0.9556520484667734 -2.734953652217374
Ni 2.5644425178872323 -0.18423023301414135 1.130183095544304 0.1619314195318953 -0.4186475855458596 0.6717996883576494
Ni 0.06904882690194068 4.19224492856153 4.7610145807166075 -0.9167623133801115 0.11673553972154734 -1.355115090664382
Ni 4.314106662327919 4.135164368011157 1.247818725693109 -0.44135942532107864 -0.9561840097108435 -0.4043787343316714
Ni 2.143983526333961 -0.09540172691274929 4.849341715993365 0.0439532656524985 0.46262604800933865 1.2699742950299806
Ni 0.536872126358034 8.354906208465119 11.561728479578226 0.2933353598988948 -0.5902219274841578 1.1591234962239843
Ni 0.8939755737067699 1.7294800445760619 10.521007297843783 -0.9390121259172474 -2.327281591846411 -2.0373092348824784
Ni 6.769078600162544 0.3190260413872862 3.1264090388528047 0.594945301101756 -0.19932348702710834 0.37832497466741294
Ni 3.3952684510614617 4.914643650065908 12.123692230539243 -1.1055543047482768 0.15413197809213455 0.354799380741647
Ni 8.75587360129276 3.97871451068901 0.10457044199306635 2.137999291105389 -2.9539152251903835 0.25210103583945614
P 3.1638253370602256 8.706465953362473 7.132643544805546 -1.4681592975772717 -0.02183020850121402 1.813462051682393
Ni 7.014408670337795 1.9544321145677683 -0.3657273948663755 -0.8087392138308975 1.0515886491650985 2.644202195264414
P 2.243648290258374 5.81529216474805 4.9970762156475255 0.5917586758436584 1.1061875674569013 -0.018228607192884737
Ni 2.247110795953358 0.6754748443259571 12.345848442599108 -0.45160809963228027 -0.1641435966918657 -0.37736569607793713
P 6.248760944365941 6.099180698342641 1.8296655693570008 2.7892070142442993 0.5081129766975443 0.07787691498313684
P 0.4877350155393802 2.759386205189079 7.342879503926145 2.911711081018508 -1.1824120344382798 0.41938369238093576
P 2.964902076546277 7.813721185013412 12.380564909699292 0.19087355648754226 -0.4243346086283079 -0.23277533892765073
Ni 0.803212681090447 0.2178820950299758 2.9550122369465512 -0.5116685552592865 -0.1637856991318147 -0.6582574308968405
Ni 0.32408314637166646 3.3893129412660894 2.6303935563607275 -0.09144925435093282 -0.5553410564465726 1.3409123168014392
Ni 5.430326164905493 1.6442747044339006 1.6616333996514194 -0.2192251110470418 0.8124331177427169 0.3120653322082303
Ni 8.0683677038453 6.099088364857441 8.61759589719274 -0.6752675923015918 -0.3190762163084247 0.12288484715239481
Ni 4.586296543347725 3.3069330057710355 6.3361185780481035 -2.091306257924224 -0.41368767043742305 -0.47221960523504486
Ni 5.361389984855496 5.271567970453356 10.977697025654514 0.4726644060819472 -0.04784154496331116 -0.6289849071849682
Ni 4.181211077080182 1.2727247599908404 8.7936684667895 0.49231920419839725 -0.2693225419240652 -0.9774490897372069
Ni 0.9491697611545156 1.9998786559829957 4.699890736849345 2.8170983413379287 0.322048154452555 -1.6506065776743315
Ni 5.293081672504855 3.8665200928230155 3.3098609005867137 -0.12444550677129533 0.06731148076246472 0.4166644936775598
Ni 7.312664294229439 5.4899274296018135 3.6596561525819036 -0.3263519240342315 -3.787941238612528 -0.7429621674350882
Ni 2.032223075848404 3.8207503842095893 5.751896917144879 1.4934005886425636 -0.7504620753565592 0.8432878983400444
Ni 6.582583426756457 8.410601766737498 7.7850156277997185 0.07153657458740584 -0.3138244809911821 0.7164214408320823
Ni 4.252797228155406 0.07945665735363594 10.746189278213636 0.04944822732879871 0.47651566150723734 1.0639510273851935
Ni 5.788506220691656 5.060705990303103 7.931290335052874 -0.19031999797691737 1.108651712726678 -1.8217844555051592
Ni 0.8609912827889284 6.293912018628529 13.394881484671215 -0.8222277352356355 -0.0822670736310325 -0.09117954562931394
Ni 6.992461000905858 7.390944622981632 4.33620391200588 -1.03042487060329 2.996120397803524 1.6407798213918967
Ni 1.2521990262309766 5.293764940295333 7.939925362588737 -0.8947338728251623 -1.300454723007025 1.0406475767725627
Ni 8.212158640346587 1.7574847906370907 1.7284736095873865 -1.0306498421299024 -1.0463857648079204 -0.1277509169954445
Ni 8.314685742312188 2.2903690337693554 5.772478974330714 -2.68171561882884 0.6848904601033365 1.2474064370317937
Ni 6.713826242619123 3.7392291501268913 1.3370230290792635 0.4652953673113857 0.7456407427085158 0.44217960722952876
Ni 8.464173654850287 5.73848917175905 6.0305686088256945 -1.607902611047902 0.4239563993532827 1.9121587316243587
Ni 1.396460863506781 0.7093769300866823 8.251948832458488 0.8288575818473273 1.5477097436080893 -1.9025376635948266
Ni 8.555546871803779 0.48035018339311875 7.553845820914673 -0.2628148227125344 -0.5821862016638748 -1.2877889546138983
Ni 0.3167906477106046 8.612267331761872 0.6261032064548964 -0.30771682543154744 0.37381860215662716 -0.15316987128918136
Ni 6.914356105775544 0.2039748254892169 5.770721868107366 -0.6318002651465764 -0.5334005476197394 -1.0103229576470925
P 3.190020346811343 1.956657351561078 4.7735959414099005 0.8119420370389113 -0.041135850808361414 -0.37851677896324487
Ni 4.28845642013948 0.30076432468451564 3.3817960722359928 -0.1878643373475732 0.27098861677257846 0.5020629138487225
P 6.342590232025741 0.6110787017432227 9.733198612089181 -0.7517630535561698 0.09720518299810356 -3.2795593245243135
Ni 8.36312388864788 8.975728862901452 9.890460080746234 -2.031588016127985 1.1098264497610693 0.18640935006860154
P 1.5659205088935475 4.076828072062071 1.1059630990416054 1.1555704887654032 0.9083830881774806 -1.6045097833162691
P 6.206933875570536 6.7093850019810235 6.244358483791625 0.7236138448154634 0.384227456194777 1.3739481642104854
P 7.4342951942828295 2.916325429982784 3.4452300999029477 -0.16161285985021198 0.9060783513037042 -0.14333437325599832
Ni 6.5359642500791955 4.0319078315124806 5.593608700132409 1.9959743806894334 1.051505088312357 -0.18830451020878536
Ni 1.4411502703433718 7.107009922644442 6.598937533655005 2.9489280563884375 0.08243342400556772 0.4615109605682891
Ni 7.2995991060737 6.9695715299248855 13.295783648345926 1.6782521073057421 -0.1733283485149273 0.177776614094268
Ni 6.333993984553661 0.4356266131670042 11.717895796435663 1.356706346410902 -1.6030511964928713 2.0526492076736584
Ni 4.820574295344588 5.5955384699730795 5.143405399656948 0.09209588679599622 -1.101406086907858 -1.170151729013688
Ni 8.917577233922763 7.965055767255503 5.962011919399867 -2.5081643556698285 2.35405526039583 -0.39582930209976347
Ni 7.665581341359226 4.980006524238681 12.18284290782779 -1.679361795430153 0.18780211665107013 -2.4282015046919407
Ni 2.908033883011863 5.906674615050062 0.9013631758575874 -0.6382444781100234 0.9826244632905593 0.17493965886610516
Ni 4.577247861798167 0.7407924750909832 6.219128358960843 -0.7925798304622156 0.41448599796900226 -0.5670511457946492
Ni 3.4659682006787706 2.4854142879049217 13.124791267104849 0.1279980000092441 1.1946427721765167 0.19897330277654118
Ni -0.18041132006628724 4.141987812567405 9.923717678780264 0.3842223139884544 0.38326843471561733 0.01575957682710189
Ni 6.213840420263463 7.187164621146186 9.945880485232717 1.7383398166262578 0.416118905586735 -0.4223759422400403
Ni 3.8680989954199276 7.059218110705145 10.2226870405125 -2.140886639955513 -1.3715714364481928 1.3475627322384212
Ni 0.19807471578496455 6.663947693914316 4.093939313539254 1.4025444877909394 -0.08798366439983557 -1.103679970543699
Ni 3.8612940175607195 7.681721234572111 5.4174271770231135 0.7725244544732373 -0.8317487873521933 -0.030187065106341563
Ni 8.669357125660767 5.350494633601946 1.781285593116983 0.3930828497028779 2.351777520105246 0.5160669414372983
Ni 5.879094603020951 2.02237109297761 4.586495983675756 -0.7675478271942523 -0.8547516760052698 0.06448686682947603
Ni 6.274189586189901 2.007920902543878 7.219051990259857 0.6803969431083573 0.25265022347470684 1.1712138517296151
Ni 8.055385615826241 2.0245039964857203 9.020135729273331 -0.13935199156948258 0.38558114200919397 1.2987346549921246
Ni 2.1376125158551904 8.894133762030593 9.894311310413906 1.8239323550860977 -0.46422913083040057 1.9626531408294843
Ni 5.552704966188999 2.4026096183779497 10.8438411721607 -0.8330027143639525 -0.21025967432363793 0.3190376497610054
Ni 6.528402137641351 3.790086433774813 9.474717483616955 1.3104429445679882 -0.007893800925779954 0.9109644757514117
Ni 8.045524399606927 3.855006107218629 7.588035987149221 -1.0283924135542934 1.8201695456095555 -0.1079325967179367
Ni 3.0397106662549667 2.4050010556446186 2.4473608886496243 0.2745976742800755 -0.9733610357107622 0.6260592488977411
Ni 3.3842438329286337 3.1100503152799974 10.386840280504849 -0.0031285183266526765 -1.8429207232631424 1.498287998641852
P 8.716484136506626 0.521943648470968 4.720432167301693 0.14972459305305827 -2.627958736822358 -1.3576370857552877
Ni 5.216934247260772 6.008296848860706 13.576238299625945 -0.9617926141468726 -1.5575650391356142 -0.3734177671737827
P 1.177362736476727 7.153112031804585 2.1090796222588204 -1.7456286369781873 -0.044710455533497194 -1.4936641267165953
Ni 4.464047008943497 6.116363959938281 2.801060923733904 0.7629694637949505 -1.0974879828003743 0.8514120701090756
P 8.712633830173804 0.621438518782614 12.704926903196261 -0.7286601489901192 1.3461504252719267 -0.7835367464233409
P 2.8632983094326727 4.772847116844932 9.427093718620723 -0.6497830748772422 3.1610098715224786 -0.4601873566608591
P 8.276533546227725 6.656117814369393 11.02468461293772 -0.08588692977180692 0.7131080601881332 -0.9262915930267853
Ni 3.497139985282145 5.462679818119421 7.015342161873163 -0.9342954371678683 -0.37791925458856207 0.5517520535437336
