# total energy = -340860.7507722087 ev
CRYSTAL
PRIMVEC
9.33579356551993 0.00000000000000 0.00000000000000
0.00000000000000 9.33579356551993 0.00000000000000
0.00000000000000 0.00000000000000 13.66387755961497
PRIMCOORD
 96 1
Ni 5.420800501896606 0.5226933413592723 3.058658958222344 -1.7410417889384533 -0.23427506340162876 -0.7594323971759694
Ni 2.6069923339879852 2.1483994845387238 9.490574444813632 0.37615599204055217 0.44096553231676955 -0.3639864465575538
Ni 9.267343485141058 8.341923616355025 8.76923035454916 -1.4948830867253609 -0.473415682425675 1.2177487620663607
Ni 8.293200109957166 0.6304778783232915 6.829765929060851 -1.452868175746156 -0.3136874411926856 0.07167772815096042
Ni 6.584815245756428 7.997666230185051 3.986928111191673 -1.7017224225135401 0.8789059046539701 0.40273708496319033
Ni 8.115362579132709 1.9604139461544905 1.1546882861300924 0.925451356513677 -0.1198584016212452 2.906430035125227
Ni 3.9295942024273156 4.701785692116188 5.266440624624427 0.9802770461043052 0.713911787036351 -3.018166578970286
Ni 7.519402863782295 3.947864350352323 0.3626162241334529 -1.318110488415575 2.013264792338765 0.024692617650673602
Ni 5.508202200861306 6.449716977681427 13.21657646282389 0.6298184588298572 -0.12355179131243237 -0.38286811395340514
Ni 0.6713247757255828 1.1122477687733818 8.491143205713302 4.151155325780431 -0.32900401694509795 -0.9740315794152258
Ni 1.450511575501428 4.377581590434161 3.0154949168675813 -1.7291650921055253 0.900305967596301 -1.5590511367628377
Ni 7.681948364815663 7.129007986020402 6.304130879162401 0.43486790405946396 0.5503150639868909 0.9536928678578738
Ni 8.718473512321935 2.981460347999208 7.921728885666907 -1.2841120199829432 2.2141281130491675 0.2664038256153734
Ni 8.090930807482355 6.493996646362219 3.9979275431207704 2.0800337703341985 -0.921596244433645 -0.15143823331005532
Ni 3.537136114296783 3.8266110640723054 11.39393829032687 2.037522636444865 0.5553258869379211 -1.415903682706665
Ni 3.0173378025090716 8.947564549589055 2.8903476711090152 0.6961665472377881 0.40253936713008737 1.3481039494538716
Ni 6.56088760695633 4.588355800808656 5.0015944317426 -0.521686858727237 0.5701369838088245 -0.6263621248501405
Ni 0.046719111528417755 5.3585867738576445 6.907267952573492 0.22292647115802897 -0.9966058651713159 -0.4828364615189426
Ni 8.654140559153195 9.152998686068248 0.8551904284280045 -2.6268783592739857 -3.0824778394538463 -1.77290675596785
Ni 9.117784072898536 3.097354888796878 12.203004297273889 -0.5213014503633602 1.427309096330129 0.8351081907427296
Ni 7.819231208575107 6.446468121535334 1.0399000368649285 -0.7162584328916568 0.7766266495670688 1.4779009503450677
Ni 3.224424374441882 7.292412380057909 4.801404210485416 0.8874980171983554 0.5967116489735594 1.4489937803924142
Ni 5.628092461286928 4.039569850131243 9.266896300631295 -1.250376318293395 0.3636228925705479 0.5885357980309864
Ni 4.9191883158921925 2.358576204127731 5.837441095990422 2.67526626365907 0.7328086239408541 -0.5828058375257447
P 5.097585994328044 4.354111405516702 0.23563449494756736 0.23726962725357845 -0.08721644721650786 0.47953825038364506
P 6.231128708127967 8.121953649360126 12.072623405666187 -0.4522143657577115 0.039381587121416047 -0.3694263866262025
P 8.12225239475287 1.2648506497044842 9.002281635428844 -3.4233878638079105 -1.096971448175272 2.306992245469756
P 1.3450451160692325 2.8693748109590262 1.380679839947491 -1.2158086076208545 0.46996886152765516 0.6921540836442854
P 0.5336787695980847 5.2666292076535965 11.453854479579759 -0.053877466744745924 -0.8291026079785979 1.6207447571178926
P 2.1534314772477576 8.916401670808433 10.185545851954263 0.2244151398884135 -0.032704432211556576 -0.4089306153684119
P 3.3001843388830845 8.038510326849286 7.105544336158409 1.2007301160211772 0.21064071181214045 -0.8523512940938933
P 4.332125611769439 5.894890768594468 11.285255650025915 0.37584540277866885 0.45552928906355744 -1.0821359258243364
Ni 3.48909412082612 4.235425462455579 2.1657248501591777 1.397087064220794 -0.7078293282876971 0.12764164511108986
Ni 7.0338389068443545 4.9895148485028615 7.457866914353121 -0.4704398876268027 -0.36260910659405293 -0.1437992287075588
Ni 7.795929067941065 2.839350898988243 6.003415633984881 -0.20738698076153314 0.5154452486928994 -3.6079277647679415
Ni 5.251850646506286 0.09425603856947253 7.560810842375334 -0.15776314708681863 -0.16993526367297832 -0.9438491422945745
Ni 4.876570418458541 2.3174987126254156 13.156701351062502 0.39520169581809356 1.465923209157901 -0.7858036880806467
Ni 3.2378119023542276 7.045247246529771 9.085672677495953 0.3822392221201546 1.9974064851502698 1.2807279340020588
Ni 8.686367718395466 0.3668957518845123 4.3314627704292885 1.5116261105116546 -1.68443458196737 0.8097370589677927
Ni 2.8058727434138553 4.890714145646269 9.372846354167995 0.5376683217571578 -2.203128162394238 0.17217135209234866
Ni 6.152698706739114 4.707741928384023 11.547998488626954 -0.4075705017960916 0.3875197537928035 0.9995405223196075
Ni 8.139000808333586 4.582072811767507 2.7297561516600646 0.2786358489051911 -1.2491275334879584 -0.3812084668627951
Ni 3.1608289489614787 5.6402009854865875 7.135522502740928 -1.5107750753652691 1.0365798344610921 0.38261306051980554
Ni 1.0914102776294798 9.157041084663817 6.261717435606908 0.8013580908754779 1.0440059517218343 -0.38106628485797595
Ni 5.848659919067316 6.591826426692392 9.672973444353548 -0.3161603282132104 -0.14728898702837215 0.275152518342281
Ni 5.922814127022519 2.698511117896439 1.751982086374979 -0.56039455971008 -0.8439898095030754 -0.5682307679250471
Ni 5.786884973323947 0.39405544240236157 0.3224144300636184 0.8215834167834173 -0.8916845444758771 0.10157502993102507
Ni 1.017517471892928 5.833703977843063 0.15735853415184795 -1.7188012323726978 -0.5958073919917352 1.1114043357711503
Ni 8.016384496199175 4.8959235184322445 9.837158310729599 -1.715664743626245 -0.5877238436526523 0.7716816468569678
Ni 4.745019751922374 8.70299476666038 10.192501018129086 0.20658093992047002 0.13292114834247432 -0.17913929876974954
Ni 8.21714140012322 5.628633937311276 12.680488124917455 -0.7979788899905998 -0.08741982147656557 -1.3307502886667726
Ni 2.2164947624973355 3.689505600389804 13.119495413134281 -1.4792119558470072 0.27580249322145406 2.5738246739821156
Ni 3.0457559579938556 3.131925332213486 6.622499176313042 -1.4523709243947633 0.8867385133245116 1.662981811410233
Ni 7.133330458421668 1.770822651284257 3.7443123098474165 -1.0887503458170604 1.857058448216105 0.30221877843145367
Ni 0.7228471530217144 5.775140545071694 9.51415759283272 0.6123742952114808 1.5292265972022372 -1.909858365625956
Ni 3.331617955675879 5.705962315064386 0.38623298100922737 1.2327956290971542 -0.7736066317938225 -0.16687230847693843
P 4.968985438545227 2.8114835553213307 3.6752685152668425 -0.2482109567564306 0.8442749448436622 -0.25482743363168375
P 4.863201562133241 4.44716125956297 7.196477765812955 1.7631275650938991 -0.5985990958042593 0.44551252825750376
P 7.222263227524182 2.0780822877215783 13.012520289468727 -1.18396806607149 -0.6979727472085915 -2.2748385435553464
P 5.932317964829191 0.4550303106407875 5.286895348233876 1.0258917586196268 -0.7350786509219533 0.3687787257398745
P 0.8058759663001223 8.402354207831047 12.773457691139422 -1.2216064452495543 0.6627383494863296 -0.7853190351347443
P 0.30942554053471577 6.972306691732591 2.069995623371736 0.8353727572580257 0.2894162273501467 0.24326286872253589
P 6.737240746610589 8.449696016787465 1.79194955202738 0.860556455612505 -0.40764300690523986 0.5834108180995953
P 9.330976253795555 4.366518675109106 4.629212034004471 -1.7932680932330214 -1.4785699513876343 0.6034623374338317
Ni 1.2584369595540092 6.086377229549921 4.625700842060375 1.9447672616879992 -2.1343771209717692 -0.6884154425374596
Ni 5.7928878885594 4.911869053769961 2.366296905371462 0.8955221730544126 0.22749557858595015 -0.02677289721847002
Ni 2.337365281242899 7.741333347417079 0.4814496727322427 -0.2460766840222472 1.585742787121411 -0.1179555281715775
Ni 8.373749336475798 7.454435076653974 11.182545116841784 0.18223285009340873 0.5058159531332515 -0.2320266336870843
Ni -0.012792837864914345 2.3852859093977594 3.293376678245928 1.729672113648931 0.3133745379379571 0.28273907244028723
Ni 5.379013490086523 6.808566209128246 6.554398296878316 -1.191587787400277 -0.24657650647680113 -0.00588576935681567
Ni 0.06019066158247264 2.9290305315726166 10.023751882299518 1.5102289730538119 1.0919971348891322 0.13983690162570112
Ni 0.6698665247772505 1.4314665567139906 13.510637154378037 1.8733232468143994 -0.7006436091725353 -0.4003963526451556
Ni 6.399789153919066 2.4855803392180724 7.7441527570611015 0.27961749609217 -0.7881773305191458 -0.09218047609000253
Ni 4.40150922923426 1.5578638652253203 11.040098645684628 -0.20983312830918058 0.7947758096722699 0.46030022808963955
Ni 1.3704571460395287 7.17640580973796 7.583192473767982 0.0067224063254981 -0.1378242420710465 -0.9977942290524622
Ni 2.743593664820231 2.9370032992414745 4.118975441943276 1.1485007264028158 -0.5888726125451149 0.5175532961748377
Ni 7.076783557051321 0.31873332667739956 10.936048426129911 0.12686234374290412 0.06625141492906654 -0.7665504962779895
Ni 3.533103051494737 0.6801153589070784 5.210296095954932 0.936106522234678 -1.718155885479215 -1.4821101033304087
Ni 0.2659599530491519 0.8207245458988571 10.969333330778367 0.7855465777645181 -1.3793893898307148 0.6425343637346289
Ni 2.8540641095808903 0.9861398698612729 7.301852734468623 0.09111295405743663 -0.8365562360431658 2.097388973783194
Ni 4.97100196994625 7.1121568787109295 1.828718574818714 -0.22964296394625613 1.3763953401993974 0.17701890999263709
Ni 0.9615587255145462 0.17626631677449336 2.09941364234286 1.19646491298692 0.683007641258327 1.550450282467704
Ni 3.8468510644307194 9.124179091461965 12.458053508432414 -0.1971010254544928 -0.7989322550428047 0.36474800731392665
Ni 0.8480065353118609 2.552349934496382 6.21657233886651 -0.07486126808526462 -0.6946472823797843 -1.7979382450151808
Ni 2.553199491706998 6.70912133651855 2.559586108056256 -0.6169881398344084 -1.6448964146634317 0.4905196890958133
Ni 6.869612962976802 2.626326762374643 10.899087085991997 0.5275502594865494 -0.10176477734432796 -0.4849789617832422
Ni 2.3967595996378384 6.43251111021807 12.042453855316442 -0.1453588598851948 0.2496471749823249 -1.6531594260031721
Ni 3.24183562936275 1.9728678947145106 1.0660720004280173 -0.3342405827536889 1.5160862031655373 0.8958859841517345
P 1.648831837315903 1.204195999183906 4.510541961792338 -2.4386658945583743 -1.7051738713972506 -0.8753822077714278
P 3.655364603475266 9.367255147426919 0.9746895191050023 1.2848126455943938 -1.835996228229167 -0.8840468254249615
P 1.3338701712218979 3.734718848422921 8.03064305364724 1.7288496177476356 0.7888964680733574 1.2004591217479776
P 7.751537369737995 6.707851668599387 8.658102669924464 0.9815348297708064 0.6322826040996335 -0.40901931842747624
P 4.771748128779449 6.127781473825551 3.784101461843523 -0.06209882621327369 0.7122613959171218 0.7090392894353982
P 5.059178539773379 1.6500361546804028 9.120324342316213 -0.9151998539889981 -0.5989263972366912 -0.10683730677122891
P 2.035408375526786 2.2476109623103393 11.60980050817154 -1.0413931966893353 -1.211088833547682 -0.5427264530063557
P 0.2240048969556504 7.563309100722157 5.2985781602488755 -2.4898647860296923 2.203428981464109 1.0946746817212953
