# total energy = -340864.7877176063 ev
CRYSTAL
PRIMVEC
9.30634044159433 0.00000000000000 0.00000000000000
0.00000000000000 9.30634044159433 0.00000000000000
0.00000000000000 0.00000000000000 13.62076993558357
PRIMCOORD
 96 1
Ni 1.9022811585662902 4.27178714586066 5.7367010081758805 1.7441697930444737 -0.7753117874103874 0.6948709683548162
Ni 5.204105651324414 6.441523226303582 4.501283365786966 -1.4329313276129128 -0.4592098232389381 -2.082750140824097
Ni 5.761052909566833 4.763720308823837 10.132218743925764 -0.41115384827197576 0.5398668720703734 0.4339567050991042
Ni 8.153396656640084 7.894578018820013 4.987203702102574 0.017835999740156382 -0.267258717416501 -0.27481776071068154
Ni 5.045404625444523 8.786776890051186 8.607319002145697 -1.113084551687051 1.4915313966443087 1.3949394217501718
Ni 1.027587513962695 3.0845214402573635 13.589715048705578 1.8409648850883518 1.4259667233696216 0.7627997709863057
Ni 3.057291087725577 5.108343406774829 3.865220114387171 -0.2159459260751378 -0.024150629104274533 -0.23283447430036028
Ni 8.781528113965086 6.653251780798006 8.080045010836841 -0.1739659820989262 0.15592480832649921 1.6882202742620471
Ni 5.8376254798441884 8.97684028367958 5.607562503776671 0.30477085542934607 0.3376295538305798 -1.2373189708888046
Ni 3.963672821997912 9.148449203941423 12.959930785293889 0.12095317734732071 -0.033924934882218996 -1.99835085134141
Ni 7.718948759428392 6.569141074652316 0.36173094383587995 -1.182698198220131 1.446278181233464 1.2178760316728445
Ni 2.170964517399243 4.582265280230269 8.32071070072509 -0.004055658126612369 0.8819020111678166 0.565083223435001
Ni 8.165783395949656 5.040928275626412 10.072586505402889 0.8245712957671476 -0.78139167505588 -0.09151790280533915
Ni 3.0862524196049073 4.533313928788984 11.285530265929529 -0.36763587038468304 -0.6652233206917125 -0.8675262020621187
Ni 6.905193032930792 5.020119298093578 12.340990269923909 0.6040241234745727 2.9324028050399047 0.3838659590903002
Ni 6.55600052175591 3.785409868222663 4.239968767423825 -0.14162330410216253 -0.37709290203252477 0.6716238249014176
Ni 4.593302600156003 3.996756862753381 2.628604745965844 0.7404332303656473 -1.6109555389416126 -0.675096099720734
Ni 7.681704784434473 0.24813309756819132 9.889496352769731 -1.7908648831081673 -0.965924376927059 -0.9399086695895876
Ni 3.166668508541056 0.21853986516360172 10.255854409141088 0.2334808496351076 -0.05702603967605663 1.5207195881724906
Ni 0.4104915152953117 5.762039381668122 0.1597712550463833 1.941933648893946 -0.5159049619381373 0.8779957341348751
Ni 1.1835245566908639 0.6910153312458969 8.897741041935246 -1.0635193391644135 -2.53158530569693 2.5629509644924053
Ni 7.925828710481579 9.043994837291807 0.5963782232722147 1.3587706851390986 -0.7991438568329785 2.808498772594376
Ni 6.391659853485634 1.0093936181323317 7.522084292105456 0.8935470516059127 0.04300324303440336 -0.09268364097866619
Ni 8.582800517258395 0.011041042461965817 12.208295812789771 2.043557786895352 -0.9655040015601888 -2.027003482081096
P 6.404176881563301 1.9127414853761768 5.548652437282665 -0.6840368538537898 0.6082294198051719 0.2990092703552205
P 7.065885615694417 3.405357531690499 11.34848486803882 1.7555451247609506 -4.8823703799819205 -2.8488267827894616
P 4.709175846695059 5.629377496726009 11.927300165371873 2.160057556457009 1.3673100900686774 0.8536306750269492
P 0.5915426487077866 2.6170918720365637 6.37133294439475 -3.0781974669109373 0.7547437334510485 -0.8730916119650383
P 3.039562508924123 0.25114462937929394 8.096839233044244 0.6095185709302405 -0.5892438798416045 -0.666484189682007
P 0.3881721186866362 3.3678343664792325 9.200135688878637 -0.15874839381822337 0.014611836375903868 0.6090562865818414
P 1.5098886144274444 6.448558819780694 6.859501692594048 0.07814945191823315 -0.24992845366816957 2.2424405868406154
P 1.444734924039529 0.9687342161462152 11.958518284841414 -0.059832141666284054 0.12587118347422838 0.1946206822348003
Ni 4.145704843707328 2.448600575868415 9.016255427930394 0.40589465675556546 -0.8916333795229675 0.5115325439020545
Ni 8.86268871014749 1.9165198596509225 10.854432651325988 0.5890561893108307 1.2769903213364975 -0.6784035668274123
Ni 4.514636103248555 4.013992205504191 6.001638564926111 1.4206615091066244 1.30088075480085 1.6044609323562045
Ni 3.299488601272998 2.1993953878656165 12.547358372245293 -0.9208493389652915 -0.5919013720691098 -0.8718708521840597
Ni 1.1436096619510026 6.431937695508045 4.715974128487429 -0.4566153230388845 0.866145005443876 -0.06402946757708329
Ni 1.9352814422565554 6.792260590014444 2.5617396195455995 0.06353581577011638 0.18427919109947616 -1.5688496109104981
Ni 2.685642376735519 8.88712716050582 3.63462109310235 1.0796640672450761 -0.8154467077580602 -0.18967953617944108
Ni 7.039865087437795 2.8207332165685393 2.125398812660304 1.7936568440310074 0.3286695164238146 -0.2647344083327505
Ni 6.443189061267078 0.7193066066035976 12.850038723844436 -1.8062084554437732 -0.03622864331473115 -1.791396073021289
Ni 5.237068709652366 2.3374084186401896 11.243182693762531 -0.31956189769559157 0.02573005777625246 -0.4481083140091379
Ni 3.3480770054317333 6.444194146049522 5.752473394187798 0.4072478283493502 -1.5625216118099414 0.8913487584030133
Ni 2.0676641369813225 2.6085021196828935 10.370186525680397 -0.27863559179487496 -0.9141454445825546 -0.1863936663393177
Ni 9.157634562092099 5.04922022508158 6.362262054233186 1.2716892208385584 3.2232223404954814 -0.11769353275944246
Ni 1.8274674866582126 6.99158379251814 9.12598369778567 -3.2379218514891854 1.2888199669815739 0.12381764337930934
Ni 2.498966491077585 1.6752902055236334 2.700834977729415 -2.068556622932534 2.671461030980367 1.6660046573969567
Ni 5.721575412834147 2.892829437027785 0.25377087869045944 -0.8001159909382607 -1.0403375017313117 -0.966238308623052
Ni 4.141023754396498 1.5654753867009794 6.771443236775089 1.0923992554235575 -0.1748257589960602 -1.3505683518339642
Ni 2.092521372665671 2.305087497812132 7.711071872763012 0.70013324519502 0.8917408516351093 0.1336847659813762
Ni 6.663851702716565 2.662571958442183 9.05906552522413 0.7941494889421806 1.0498050749021146 0.9862692591319984
Ni 2.853891708048634 8.498857325243112 6.140243478961458 -0.3415435441730053 2.220973418105775 0.6678995819722949
Ni 1.697783630701121 8.086465455201735 12.89911478024947 -1.2732254549774267 0.3911218693217651 0.6021826993904597
Ni 5.360535930103227 7.220957168748813 7.004957934563058 -0.03193515814569984 -1.5308942147126474 -0.3739114189807496
Ni 8.218550347028 2.4021991617455547 13.138976402311764 -1.3048608224945206 -1.2640738703851455 -0.44136842418214317
Ni 8.748397541506726 6.662455751629836 11.678026110448794 0.6987865013591384 1.1533310579119234 -0.365488485024377
P 0.9483161049176642 8.942630175714152 4.953329553032016 -0.7332092018133824 0.24382156943948327 -0.40112063240568985
P 0.00495934889411799 7.435514850779008 1.8064277118790384 -1.8523494727762098 -2.266669377480993 -2.5923150194768194
P 0.030207450882750207 8.220681499020404 10.049622179392145 0.218663582116617 -0.7637047992990783 0.03781141442081875
P 0.1902960521428498 2.017642556373546 2.7613662087521433 -0.028257195073480366 0.9978325384895653 -0.2964422809589927
P 6.16130931149425 0.733060447344106 1.3556034471519047 1.0807251615197389 0.4326989214326032 0.6158738237243071
P 3.1519458777463574 8.068001675494603 0.9895096908529688 0.3556761269196455 -0.8055158217975934 0.8477387350225465
P 8.505650953865192 5.734166891636439 4.035875134739749 -1.3725286581551392 0.03496648877285591 0.3566459470320826
P 4.366897946569773 4.441572023369177 8.621906691002012 -1.163033629911668 1.111795657672298 -1.8447983999018291
Ni 3.8545466723780444 6.6433963661257005 8.818236043741702 2.6173233685956987 -1.4230413221927105 -0.06432257333746987
Ni 0.1360838263727137 4.343492500015622 2.1671330969832017 -1.445708424772923 -0.09173438969151944 -0.2566202638660484
Ni 4.063055233032414 0.991916310526489 1.4519063900890832 1.2029356083129281 -1.2320063004266395 -1.2198138721255056
Ni 0.21862827539909452 8.48827601600571 6.945803111311844 0.5727880482784264 0.663145098006445 0.146474975767509
Ni 6.416107610184542 7.097527173660266 9.393032863213092 1.2860334053753721 -0.7566800312418129 -0.12472241458176583
Ni 0.38239101991946395 9.10720350249888 2.7419969221067544 0.0517305956050722 1.8791452528128154 1.8665923558484692
Ni 7.766727511956826 3.577301480213156 6.466651276498755 -3.1077037039001705 -3.9843089854454226 0.7030586463719312
Ni 6.864673226053349 5.587294224631429 2.469936292277976 0.5795184250237245 -0.8276720461796585 1.152503934024938
Ni 5.801340057929822 1.3150324554012809 3.4408789030433957 -1.1521720046068158 -1.149727656831381 0.3473784056872275
Ni 6.7022589702827595 5.69619702207742 5.681318975395066 3.0378090357915615 -0.9110997157776953 2.207920184466243
Ni 5.609601522997353 7.9190816135623905 0.7334038513114413 -1.1329710061983327 0.0004836245046378768 -0.9178686590704128
Ni 6.386038823776407 7.323485122898744 12.132414703617377 -1.0270839791555149 1.1822292290035123 -1.0594364273442918
Ni 5.724581360840903 5.164321045352647 0.5786524363729342 -2.029302819638234 0.5686899669496529 0.16767603532515638
Ni 0.4295220511436545 3.9608530008027203 11.715946656402748 -0.5037454437574679 1.1647593543535228 -1.343345865943596
Ni 4.296774670313103 6.305808861651823 2.1149105668286827 -0.21410193088786353 1.0682352565828441 0.16337817928075088
Ni 8.047369518432754 1.1956414121236685 4.305770179115982 0.7648826216572633 -0.13069097346037492 -0.19729900039791182
Ni 8.694485910537265 1.4609744883484723 7.884287067408651 -0.6508066310457501 1.6664599997668204 -0.4957958498930881
Ni 0.9855135482086936 1.1031363867764499 0.7934865167183003 -0.1742521458807773 -1.799976101380816 -0.1489270368524274
Ni 6.863649528589748 7.914121334034214 2.5886544871317856 0.6641575984313594 0.8452699617670797 1.8059667717466121
Ni 2.1310123972970687 1.6963690669332359 5.260504867130425 -1.1175274179497527 -2.0841537060398427 -0.3132868633201572
Ni 3.1955274706740258 7.187007638319573 11.38430776482645 0.7990042459313207 -0.40289803602108676 -1.4525434454168855
Ni 0.01204054344006353 3.7489569321778893 4.358046686045855 -0.3220594673064647 -1.7176704612023643 0.4613692927841022
Ni 2.2277425012667864 4.490365167020633 1.4402055280801236 1.6377518331988503 -0.01815867318689776 1.2234841218882413
Ni 3.122267957642506 5.8686435129913 13.426987169257503 0.4517860199710413 0.855527892049662 0.8268647197870147
P 7.326891243550362 5.0355864361345315 8.136925364450743 -0.8578146312013097 -0.29777719772033234 -1.1337222825420605
P 3.607053851041633 3.0372731491418876 0.7539289854566416 -0.2228310832307453 0.7998357406936806 1.6684207230376171
P 4.856067126381227 8.295076385602464 3.7180887311140873 0.039650267401770425 1.3674985519303997 -0.5426997135334783
P 3.491515632763391 3.0142120371891306 4.604147278831769 0.4679510597666779 0.5207116392981612 -2.7635851999111374
P 7.255465079612747 8.180450188700885 7.455682621446005 0.015201647441102853 0.6591220928899809 -0.09620965185405367
P 8.040966756114958 4.236925594054757 0.48612786771050137 -0.41948165141138083 0.8218029889933911 1.255044927413658
P 1.472830766245088 5.8135592831089875 11.96257771060162 0.2715059227286292 1.0675423442808776 -1.0399716337514604
P 5.274936209465025 0.17764501276085695 10.904094076553388 0.5410107558668296 -0.9133723138619559 0.06822910748072766
