# total energy = -340870.0588981774 ev
CRYSTAL
PRIMVEC
9.21875544895349 0.00000000000000 0.00000000000000

0.00000000000000 9.21875544895349 0.00000000000000

0.00000000000000 0.00000000000000 13.49258044562425

PRIMCOORD
 96 1
Ni 7.347172897512753 5.544933873062922 6.284466118759659 0.2950523425900015 0.7871509461371605 -1.0923753441641575
Ni 1.797002771382584 5.104996427860208 7.787796218117231 -0.7131872501655008 0.7031620047190147 -0.8251906745187014
Ni 2.495747555687199 2.602178086781146 0.9716005847607022 -0.6284298060124468 0.6411279703054055 -0.2733674014174002
Ni 2.53513929751175 8.445882603605325 11.177671781933924 -1.2278639961234918 0.6756936240954169 -0.9641305182514298
Ni 2.6627914035366853 3.5600067728496656 5.678986560962134 -0.8975823980175509 1.8715646122520802 -0.8974949805100672
Ni 4.523329837136634 1.3980795689548358 8.67239664254074 0.3947504672132879 -0.6097864798796465 -1.1641890836723499
Ni 7.072776643029311 8.814651257119404 3.2627350987164614 2.5663327364804447 -1.636099899417724 1.4507259325921724
Ni 5.19737757572443 9.050596082829104 12.319832247853704 0.6975184332799923 0.947029339794769 -1.7903326647537814
Ni 3.3296392941570163 5.6638097239469785 2.278627428504468 1.5133137826267227 1.0381728899798248 2.1194305269642655
Ni 4.648243972807745 2.90954982933068 10.335545851140752 -0.01235852156535291 0.7332379981687888 1.0443651348334657
Ni 6.190311282356461 6.767239432804393 8.538414939058109 0.6067806031737872 0.9565876729071654 -0.7854475902928086
Ni 5.28850497285424 0.798446545832042 3.191345978773766 -0.8011565163876331 2.0329684414152793 0.7268364655178192
Ni 8.651765067955356 6.922409523698574 11.846566236253075 1.0328157394329698 -0.0950840228900427 -0.6474909364089558
Ni 3.0261855226525176 4.586118780166593 11.438226997059681 0.9308036219645259 -0.9790501156757396 2.241427572195069
Ni 0.25350932037347496 3.4514559280137 5.492573186141535 -0.27904645408004847 0.8181029144339846 -0.2592361042223406
Ni 4.814476570182024 3.430520134500114 1.7313947329512807 -0.11318021827012119 0.14475490775260877 0.12356181861476138
Ni 6.89278966259811 4.955007277500874 1.3721545850187251 -0.27578012462395085 -0.28166692242203106 -0.0007782729269212403
Ni 3.8283463050352524 8.543536879558394 2.440848023528631 -1.0173351272988673 -2.0772628924572802 0.5657247136737419
Ni 5.668538945467221 7.841344280734147 5.989626352300997 -1.7381806653405742 -0.540355638781334 0.9445685369591023
Ni 1.3468048514195796 2.819971183108083 8.28681943230569 1.4770000357973532 -0.9317808982761306 -0.5892351380908563
Ni 8.631262555945574 4.15644180972417 8.311253743493607 -0.37331158061322156 1.2497577108727895 -0.5661972824347862
Ni 7.217409696501197 2.9389945340785415 6.3342400229157825 0.9082720165209133 2.2255738929922635 0.22398293744700137
Ni 1.1832272556005246 0.8403282734901546 6.301614847554892 0.7393438539562106 1.39801908911676 0.8031648050669136
Ni 8.172703224834695 4.273980941075216 11.956639097605592 1.4616616056680698 -0.6705056521365743 1.5315053659340851
P 8.781030456175305 4.132814139633761 3.168287105891541 -3.6597540054106132 -1.5619917074484004 -0.34499525016703164
P 4.261968902788909 7.10972541467284 11.514176635298796 -0.30177577735676414 -0.6127540471484028 -0.13529761899445086
P 0.6150430946495707 5.841455140506559 5.703651341035053 0.3993218886340542 -1.7931580500177184 0.41012746388999044
P 8.361669273025575 0.9918643310056224 1.0625638880443913 -0.89886023628871 0.08969319089177456 -0.6553207168660198
P 4.997837615089655 5.890471262968795 0.6941593753686144 0.7036309739356335 -0.5283187622214579 0.18260180339705326
P 9.210163520049122 0.4523652493575637 10.914363846445703 0.550333318819336 0.3321911564238279 0.25037531139760105
P 7.578047407752406 7.859846322822112 5.3614520624595485 1.2048649641251572 0.046547765852552096 -1.0111698790284198
P 0.2228956774408826 6.295100874989194 9.889778465023028 -0.4920212133420042 0.4401350659956742 -0.6493626995103721
Ni 2.061322926213735 2.1148654575774115 10.631411665075444 -0.5174777057418959 -0.24924556866853206 0.32732457236014595
Ni 4.15081836893012 8.144963989835848 9.379866056955994 0.6840666786504607 -0.07880559744499332 1.1191698386491824
Ni 2.7534855191626915 6.766437401084587 6.109926500894367 -1.7783862910251824 1.23830550317179 0.34087531446138714
Ni 6.375820297272312 7.371381349193367 10.865197458270444 -1.420044958568548 0.08191997470425891 0.770780218088621
Ni 6.748654421917828 2.83196478388359 9.01301674831621 -1.70150593562736 0.10277187845260365 -1.0954686383775003
Ni 8.470395274214143 8.949512429867205 7.108120429357685 -3.1812629653445597 0.5719555250748021 -1.3642813305446826
Ni 8.322461906309027 6.130573747363931 3.5168408725643214 -1.5105393052053793 -0.08565527337697507 1.283489555907596
Ni 0.655874806067614 0.47989706235990864 8.577381696258714 1.6240118579049387 -0.3057715287797185 3.080859587124133
Ni 9.14674770165196 5.627921109174459 0.9089056730358246 0.920532321945505 0.6488700761446696 -0.3017948035201577
Ni 8.528436558213059 2.56552431531042 10.259299368977754 1.9935467450845472 -0.9796098448339516 0.865071055653407
Ni 4.961663218899733 5.391165032989553 10.179868728699569 -0.375275903428444 0.30459679174532706 -0.8464452130221035
Ni 8.500798729523614 3.235128613795376 0.579213479911612 -0.615909562058249 1.0596102339179942 2.0588782193025055
Ni 3.0577689786531983 8.993670268233597 5.057653509503087 0.21190955122223504 0.7367069305539957 -1.1819677478120096
Ni 3.6986291978006984 8.060437221572496 0.12039233614737087 0.46079927921324504 -2.308961453380985 0.30793074121456643
Ni 2.6274006015557703 6.353732159333715 10.007891924835498 -1.142888779532677 0.659731958559838 -2.182016063005971
Ni 3.9711632636933225 6.125300619275084 7.754307245375353 1.6208404021554923 -0.6982679098515071 2.2459555419724095
Ni 6.100317792140862 1.0644620297812681 6.598600740270693 -0.6201102304031578 -2.390885798960618 0.9200939488565058
Ni 4.400720390315544 1.9936572615771333 5.188112726547347 -1.0435405820496415 -0.04529538150268974 -0.1839572889836832
Ni 4.3734789681083015 5.178082720672059 5.617784165736529 1.272038633758177 0.3074268049949544 -1.6122704010982944
Ni 7.01756551693822 2.4036890642619806 2.5249876040651795 0.7877970643615916 0.488201582485598 -0.7189467783570973
Ni 3.657707142579735 8.902653496168588 7.293455209796474 -0.3275927384198681 0.348854990232754 -1.0623592574180412
Ni 0.4622993801766921 7.643362289761987 2.753174847105709 1.0738505458870924 2.05603149388233 -1.491016404681103
Ni 1.919427843095673 6.539443986868367 12.20598154053823 -0.47344165056760396 -1.3478398971592076 1.1348792789646391
Ni 8.080211451905672 8.249679832425379 9.673667791556605 1.923346887030694 -1.289701855365895 -1.6328130011363364
P 7.820878643745965 7.491907357294039 1.5733428591190346 -0.05010900084124918 -1.0089191353210303 0.8071970661547583
P 1.128513942301038 4.016270633865925 12.83418256477034 -0.09946235446339645 -0.02177672955545927 -0.10157965791671539
P 4.182309637376801 7.285683798994205 4.4315432989957175 0.489583293324473 -0.9954516969622146 -1.0417845185904833
P 1.187661476947964 0.6170232833095083 4.197407193095515 0.1475854352228684 0.014631376759929638 -1.8973409498852354
P 1.9798475659878105 7.680301842650115 8.082055202985687 0.4806456245152109 -0.1514857987185391 0.6539701163753963
P 6.326297143263072 4.7655710727845895 7.955926957228387 1.066025650526035 0.01240017343656574 1.3625095833562406
P 6.3334601162089355 2.1778387757153714 4.516236926731811 1.8773737627346891 0.146151016769187 0.20720957464340442
P 2.073694495960645 7.424379973988438 1.3067548904594635 -0.9121325279175839 -1.1349085895406776 0.6178332614435231
Ni 2.9453923503261987 5.060986089580217 0.307141273664532 -0.6843471860053569 -1.166736532684552 -1.9065393285550518
Ni 7.448385613050252 5.312519830671454 10.125534306247026 -0.15350437181046467 -0.0005553582828377533 -1.0239783436469978
Ni 0.23516307525177174 1.8734723474262642 2.613188968231004 -0.14590239109349065 1.3484819016185807 1.207393901194598
Ni 1.5115255729082449 4.001575937758194 2.9746416174595787 2.5166037446864333 0.05891965715434369 -0.3678351308796826
Ni 1.0085134032581706 8.388744757635617 13.146711279090677 -1.280406288996582 0.9493451324121391 0.24875937306073287
Ni 6.069932774342192 8.977887758988656 1.2002164999273357 0.09556533340183541 -0.9612786506249313 -0.48092793164232006
Ni 6.525929291451847 4.4432926027531225 4.353300034413062 0.1697169770145851 -0.6683497821358361 -1.1462934343388518
Ni 4.19902324091715 3.0045491037285252 12.774073513935184 -0.10827146811459418 0.14782120538275834 -0.07235418539269475
Ni 9.009941371514742 6.82080962043427 7.529170488496711 1.0072823710485554 -0.8467714860132707 1.3873554387553269
Ni 0.22554422586732617 1.7491943058777588 12.786716115090856 2.0478844392951636 -1.183210104859543 -1.8975106426938804
Ni 2.7979475764572874 0.7688202316027986 12.814416631317023 0.23680014381632766 2.4685413419615676 0.47296753914466283
Ni 0.983263232217346 4.329118317123107 10.351710016859258 -1.4544450333149725 0.19078691031100692 0.006995200370910534
Ni 0.5453290225630706 7.964820290562845 5.181636550878789 -0.3615279577147322 0.13017726704875002 0.03441730113760524
Ni 6.884428251450236 7.127480737573398 13.185718598815045 -1.9057476858916922 -2.1310007483003686 1.4703272517628678
Ni 4.991301517510998 3.4626474970694 7.207439612536009 -2.024330563234623 -1.1461656505117357 -0.3318800529413123
Ni 1.7535547771819975 0.450144451181684 1.7067576091445613 -0.19276254598013898 -1.5057578246563357 -0.640099271930575
Ni 6.90629513925923 0.7335852265881452 10.515401925245273 -1.360630878276289 0.7799135478484568 0.16707105475130582
Ni 2.0459276046955983 6.364001852849406 4.017887603563098 -0.6707059410728384 -0.4653277632112179 -0.5358533800356061
Ni 3.0130395774520005 1.664676756369807 3.2319453775557276 -0.3300694820951348 0.9673425974308244 0.24439312567223717
Ni 7.65164995086666 9.166992088510538 12.733797693467766 1.2068316009332247 1.0661536914634673 -0.4827927527652008
Ni 8.333128006306922 1.072961722260144 4.878269435675052 -0.6981925765288814 -0.08208143998278768 0.22160106747838612
Ni 5.987544757331658 4.8622297231544485 12.20356714849895 -1.0719980660593862 -0.26223529605998064 1.0804048020658423
Ni 5.974988812476746 1.7762236967107994 0.07304388653700972 2.131501599196187 0.6316310865585638 0.408445191091561
Ni 5.865009060553768 6.555678215127911 2.8368691617564337 -0.7971378821465432 0.7472006309964679 0.07242206251615269
P 3.016542704504032 1.9620461493102521 6.860842065759126 0.4623931060629262 -1.9405385683186325 2.26130477073497
P 8.578503618790904 2.0080846137782613 7.715246456869665 -0.06104030304177229 -0.25467085344916135 -0.21020619537788313
P 6.078994810900472 8.943621645166552 8.611153684791375 0.5197058237414662 0.6351915502163126 -0.8116926400322666
P 3.812093639264908 0.847011871155214 10.707589928448483 0.7024462095989128 0.6916331781438089 0.3608121625946302
P 3.624012591592435 3.818122705296562 3.5606917263758917 0.43960361897223643 0.20378717922541678 1.2679007003304037
P 6.591640579943632 2.53295445248193 11.68897345643975 -0.25525603652867007 2.086441473632755 -0.9963832076375485
P 2.959266577203322 4.218862002538126 9.397770723694032 1.053822937812256 -1.1439694141913654 -1.251650299909812
P 4.2939764215379945 1.1488412979582188 1.1709552484119354 -1.9501264691173834 0.1560407650790732 -0.11334554020339188
