# total energy = -340869.7306894314 ev
CRYSTAL
PRIMVEC
9.31931451838041 0.00000000000000 0.00000000000000

0.00000000000000 9.31931451838041 0.00000000000000

0.00000000000000 0.00000000000000 13.63975880839781

PRIMCOORD
 96 1
Ni 1.1480649815122457 2.1197712570197367 13.242759763835098 0.9346258239240937 0.9765126939658666 0.3310773545343589
Ni 4.891009188276546 1.8463518913743393 3.315484029277126 -0.335492452882919 0.04896100327973503 1.6761180916818748
Ni 7.388865031145622 7.3962459281629425 3.204033416247034 -0.09506731071949433 1.5743152620107597 0.25383035982573704
Ni 2.9310268962302573 2.586622312679649 10.589744791394347 -1.0296085453495818 0.9677632299080107 -0.4594077981823572
Ni 8.080479311885997 8.485263733536627 9.005309435881973 -0.1732671562596887 0.025155416219705063 0.8628768762155655
Ni 2.911316546240823 8.24181528305247 5.21432975489283 -0.4422605969791093 -0.1752044824917176 1.7514755826772674
Ni 0.4103340733852436 6.209366002108856 2.222025570584309 0.34992045538279093 0.5029931389724757 -0.39875187506319715
Ni 6.99449028369745 1.165007495120185 11.288659823048066 0.2706006373055404 -0.02494947085648606 0.09093786193215306
Ni 4.883423266342079 2.266643652212874 1.1199970703547144 -0.5661540879016765 0.002398067918531354 -0.4741309633251447
Ni 4.247482569921742 8.671305207219406 7.55641232537023 -1.2214832894081284 -1.83013976944839 -0.1131334241925858
Ni 3.5694372109707833 7.355753507026255 3.3188939664218706 -0.5651917239884072 -1.4065271265877712 0.19660197433088722
Ni 5.90321720423514 5.204809143285641 4.523257858251456 0.6695324895900275 0.4250617166023196 0.17780900999410024
Ni 5.165938282857304 7.203951194507155 1.6636141146519638 0.2216658592780505 -0.002560561638324622 -0.6118811576251462
Ni 2.550118558112928 4.3917735150217 7.878406753545145 0.3627546310329817 0.06101407778952718 0.37517511618452165
Ni 1.9221831527757707 5.337916911086629 5.096195329563721 -1.9430263677374926 0.3368947325470843 0.06888473878685557
Ni 7.775131975052041 3.578076215434238 10.858570666964193 -0.455382479073048 -1.3460192990107012 -1.714026436691874
Ni 9.452114646233483 1.14454228066307 6.996814520712753 -0.08429541691497096 -0.14246045529147722 0.24503513013161027
Ni 6.987081428736883 3.3480568970232594 1.2680325159869448 0.23241744136759973 -1.4511619916883267 -0.6407266211019288
Ni 6.952124680363186 1.0884213692510731 7.408912740316909 1.0020141806710807 -0.0881477007815256 -0.23866522204952445
Ni 3.7806687915194925 0.007058448738533142 1.8908935546246948 -1.265240379889421 0.7971286261751627 -0.5312683317680851
Ni 0.29896733418489385 7.405574561893166 4.543894548093821 0.43546902797857256 -0.2491776915450741 0.11124083515556325
Ni 4.7177351753434245 4.692889883110879 6.846763307372383 0.23065623570211888 0.5587526532312829 -1.3597083664620195
Ni 7.220166801590662 5.254620878838135 12.236282194310784 -0.9930446301826187 1.5503674929459106 0.21483983749515256
Ni 8.764684737665805 1.6227815385391002 1.4152068569671545 0.060134246287735144 -1.2149722277624881 -0.7337373064027105
P 8.439794798501898 8.735375493828087 1.4505205350829764 0.5325816512628699 -0.5608586438306921 0.8286421234024116
P 5.3059796205836545 6.982757266847948 12.966308825210238 -0.4220905497891376 -0.4746220440289503 -0.7717163567496451
P 1.7995036978060712 4.336127888644909 3.0365783832351427 -1.1842210626225607 0.2849723326461802 0.2950561992447434
P 2.5190013672785447 7.323695065435875 1.3733053554907975 -0.11322058458975338 0.5922266166190124 0.048818564164599794
P 5.3455121523355125 8.61669402474277 3.3897664206226503 -0.29362512322517176 -0.12125656752035247 0.6007629362247976
P 8.92332742696611 8.775793360449448 11.028999493206168 0.6039346490845598 -0.02442805113537728 -1.209133509593524
P 8.196998700026848 5.579799716748932 10.067792357319526 -2.6482082311000132 1.6118970769192755 0.3193250990944372
P 5.37177398035926 4.04688432712147 2.6852728473596286 0.05363244061347537 -0.26927266252273624 -0.31977761325082343
Ni 6.009774245265492 2.957847883118953 5.909629824484658 0.3811791562867564 -0.9551283147528196 -0.24152351743392594
Ni 7.208256717767259 7.105539234276221 0.47692337068051804 1.1384759951769619 0.05391217663742328 0.4083888839323289
Ni 2.552262000428564 5.876116637913969 11.381969458636346 1.0092510647391522 -0.8930022348460362 0.23935093526263937
Ni 0.9663197117751539 6.918202375889644 10.08937029791789 -0.40206962658252043 2.1115354404869056 0.32640566009030236
Ni 3.351467766099445 3.7432051475679433 13.350200275872067 -1.401304187625935 1.1368292036021583 -0.42228389674686634
Ni 6.994881694902914 8.12420553512497 11.869945536214011 -0.7531380795268255 -0.7269367385411093 -0.4240016507689214
Ni 7.732477472970887 8.452385192277655 6.415023700705469 1.4842094090615987 -1.1431924268160247 0.17324607321376614
Ni 5.438891682781911 8.950101817282725 9.963502705486542 -0.9980549389130166 1.2824636857462428 0.26417802160864823
Ni 3.6723969966366323 4.1683243132738665 4.129845795982436 1.070740025282569 -0.9791845843710749 0.4090404014733987
Ni 8.352677847342923 0.8630672996366483 3.5343481283323825 0.35129471002249824 -0.3609150067210817 0.8576683354314325
Ni 8.553387921916185 4.047191864497192 8.34655039811453 -0.6096075310996211 -0.3179726988316008 1.0381520640442186
Ni 3.00381074181772 7.814608590917405 12.865170033581236 0.6287452803703366 -0.2839773157227625 0.20282455820183137
Ni 1.1282055224921583 9.022270588118744 8.95203277922968 -0.07420255145534317 -0.36334315654660004 0.8686685431966782
Ni 5.563938243613226 2.439889707202749 9.951772484431364 -0.8891635778262365 0.6611244680319904 0.9114637839853335
Ni 2.510381001443922 0.8704854739116317 7.643475224505593 -0.006769714623665761 1.6905820896260044 -0.7963662940878414
Ni 2.4020905679322304 6.758077915597227 7.213686150345909 0.8190359677712151 -0.015579856716128005 0.5544877073073419
Ni 1.2552557359228718 9.196690876725011 0.23311053500270193 1.4962861377204748 -1.2455012495892808 2.3033924439336393
Ni 8.440018462047878 3.004863824346706 13.051053078918947 -0.5090349742911814 1.6658061682329055 -0.685281267783852
Ni 4.802363869553379 1.4647632433046562 7.907581799255274 -0.5824170867277583 1.3663731800767047 0.31748058968653065
Ni 1.066940349522635 0.36594804268563225 4.742299024280611 -2.7621482103542947 -1.4097734014392107 3.424548202664599
Ni 5.530519182118137 7.195256274157207 6.091747866798381 0.9907134109462808 0.024624997637531783 0.020578595482300042
Ni 0.7532839119555443 3.7265328940780624 6.505510515957201 -0.7860535993079236 -0.5203460284286265 -0.1846131774001272
Ni 5.101607055444981 -0.16468160504174695 13.33551024055843 0.1397723669363528 0.7697384070876679 -0.03769957143330282
Ni 4.886293615182147 2.2844435427470677 12.465948310705404 0.26327684995061756 0.19731005614150535 -2.85209902578283
P 3.777826400622671 6.127971110001186 5.432579711128084 1.1781892546061838 0.5423317886710982 -0.19115072140832887
P 6.526138818416593 3.1063884355925206 8.192366068830749 0.17858265493533115 1.169282181924541 -0.5171992552695287
P 6.739523160595353 1.753074873386515 13.357443247036032 -0.28899379510074746 -1.1060011624777082 1.0985796732026565
P 4.1235729654491555 4.149014693804312 11.152657476189528 1.7812728685443582 1.596744023327921 0.14555837749051062
P 8.23756567567886 2.237138702772425 5.531808975233286 -0.0482817178245233 0.05462514354404786 -0.6864169240501921
P 3.4296381754192447 7.293761427532299 9.199430755163258 -0.18056471836236643 -0.5919098567095419 0.7966262326174474
P 3.5440513985021216 2.777137057282016 6.647363528405984 0.2222944940009849 -0.052726898080070486 -0.17837799512369282
P 2.3777857959358024 1.0630541954112431 3.5409900037165287 3.8616897332495883 1.1965075932993974 -2.057058649595264
Ni 9.084840465106481 4.74518055629798 4.083006921728584 -0.5910431378338724 0.7687475039293084 0.8719788385168338
Ni 1.6580365049741026 5.8185325941386905 0.04677177519005827 0.4620197818839075 -0.018543824440458385 0.3523658315994899
Ni 8.568997773562664 0.2473933162763696 12.991078630996013 -1.228954400974193 1.0317772708661261 0.2773407842428514
Ni 6.96358743709463 6.144606086233404 8.43556289782568 -0.46054242600743267 0.09709925354785859 -0.4906981236552065
Ni 7.340283445096014 3.1255396267170066 3.637287411506517 -0.29977854442107726 -0.25957908938405616 0.6377904212917404
Ni 7.660094357903304 4.8635078914354954 6.374213490947204 -0.49197750458826245 -1.136780866862726 -0.07817387739826537
Ni 4.895883189716014 4.856928455457935 9.067534498236325 -0.3295364924098002 -0.8113522259737124 1.3973416034337611
Ni 0.5589892534261252 2.270576402896345 10.901536434146834 0.40511818360085716 1.470943545190628 0.6952077828689446
Ni 9.398155815765952 3.706747989573302 1.8601770943101907 -0.13741929332314398 1.4619012324827017 -0.3795295364984754
Ni 3.3577489840157 5.202013348960898 1.8348882027114537 0.03111034825155932 0.12936479844978366 0.06530576318634561
Ni 0.6386805748585843 4.757239749152036 10.243567674241852 3.24327565960193 -2.9740351358687107 1.0895746414905687
Ni 5.404913462421874 5.023529839269339 0.615608748159368 0.16625292972538463 0.24818575994544997 -0.9105309877584189
Ni 7.342976726962183 5.320722775989463 2.3064427163570245 0.022402536064916257 0.020455439640874446 0.10497531386182565
Ni 4.092679438160752 0.8841075157932184 5.526421479569507 -0.02383849718049443 1.018378480961717 -0.12001395336250296
Ni 0.9617066511393287 2.613452618882761 4.348000695210649 0.0495353877259663 1.0456900242924765 -0.9879394477455694
Ni 6.453774341977842 0.3107646543038655 4.878327465219515 -0.5838846724122202 0.7751680627436714 0.08965770966814882
Ni 6.419246282067272 0.4097814380403862 1.927638679434785 0.8336246642186675 0.10009741694423406 -0.7541122705146367
Ni 1.1370775098160077 8.776958274751424 2.5633063199427384 -0.06628741037332454 -0.6258931556335221 -0.18276095468273684
Ni 9.321085085547217 6.7520483191702 7.956507268006825 0.1730820368320761 -0.62674470500054 -1.383490813593598
Ni 8.507480979103914 1.466664383445481 9.398789529146228 -0.6423219906135067 0.24689506615848447 -1.443186686792334
Ni -0.0846240345527465 7.022774402949429 12.590697585406852 0.11400117150951979 1.1956575865942762 -0.9238634432012669
Ni 5.547461695726078 6.678099559280761 10.46884252968374 -0.6127129094978222 -0.5363118077292633 0.8516239290095655
Ni 1.544564532647222 0.3200364402161531 11.730874339118348 0.3840076268744871 -0.8567820761717374 -1.9039857088952628
Ni 2.2947600238053676 2.447550183652543 1.779620008568503 0.34847498118551595 -0.4716020262557039 0.7279410114359076
P 1.0206419955049 4.204753513325261 12.492654670026786 1.220466675218156 -1.357023877651321 -1.5750953347098937
P 3.1222965053003056 1.4282967659955987 13.44670177664776 0.9015285271494925 -1.0764162497317398 1.0012040260649595
P 3.1095197252362325 9.946131503415476 10.215101828358765 0.8912788243970263 -2.8881577191786 -1.8932914624062105
P 1.0036994818969607 8.328223966315843 6.540673221179487 -0.5752789330210801 0.45778980296295996 0.8884112730412441
P 6.209859925772894 8.24154502293441 8.09422809644364 0.33501448480523593 -0.4141350423874868 -1.2375033189854687
P 7.824841198145962 6.559893375230649 5.25924512265126 -1.0589016378867442 0.2347355479778151 -0.8316400296884708
P 8.722729184165836 5.268189800627552 0.14141686853412333 -0.6360873225577045 -0.22875104825960604 2.091872157730023
P 1.1807664557973168 3.0842457445405604 8.838181510806075 -0.6748932396813085 -1.5097319788127355 -0.005784725002577135
