# total energy = -340898.1920686238 ev
CRYSTAL
PRIMVEC
9.02756911995960 0.00000000000000 0.00000000000000

0.00000000000000 9.02756911995960 0.00000000000000

0.00000000000000 0.00000000000000 13.21275992773588

PRIMCOORD
 96 1
Ni 6.33898740444905 1.8789440392685055 11.329478986260062 0.2198187787669827 0.6198186673046681 0.33775142412042475
Ni 4.65476802778743 0.26471630756087094 6.02968212824896 -0.14922811303261396 -0.08297464122101839 -0.3939040600525926
Ni 2.7926694322103685 1.4880503030200969 4.8240448762347174 -0.29802042407938995 -0.2674260962323007 0.7122997053542249
Ni 3.4979663128542353 4.423752537935311 4.925836132873113 -0.194821999612329 -0.6081273470096688 0.25367532230511153
Ni 5.234383093280018 4.566514513571161 2.7368510705337514 -0.06611771756467968 -0.139490831140192 -0.39061407644741114
Ni 7.311319775121275 6.121486185339744 2.5680580997830673 -0.2136401607600966 -0.5758011240731373 0.34267431534333886
Ni 5.013749307739347 4.472077114612857 11.490317765994385 0.22125628254445767 -0.09427129718076023 -0.4291209742733577
Ni 5.469424878891187 7.8120699981227295 12.55148773459501 0.4250771432212873 -0.2639306814845325 -0.5669416167999785
Ni 1.9336330520674168 6.481225781084845 0.43551249586521606 0.5059447654016319 -0.23954119689657458 -0.6158877076813779
Ni 2.8403620790602613 1.659826885314201 0.2636140413900642 -0.6197842145223068 -0.43511035908757323 0.5706882283266043
Ni 0.36600021482335127 0.14245142726340393 4.907958838048802 1.7547395981405198 1.0569396290643667 -0.2992293567858266
Ni 8.69186075931961 2.4070929340832143 1.4381693734527305 0.04701853484138354 -0.06483396575624963 -0.12063718876879868
Ni 6.944836585358217 0.7625587505982235 4.813936707262954 -1.2009818270206671 -0.11909941196803359 -0.38317073279548847
Ni 0.694638932722045 7.407039088872819 2.327718033945475 -0.09076894045445658 -0.10162773754583143 0.7356820888339073
Ni 7.724186614234085 3.819744981095304 3.6637133818356302 0.15607933162649248 -0.026964187293669693 0.1364067928982296
Ni 7.800812619621534 3.8120444647669003 12.416690783058282 -1.4697724077006622 0.04366401654685384 0.3645482325982948
Ni 7.911607973547093 8.943016755535936 6.936104217896944 -0.4701454963148355 0.07048139385001409 0.23794505605404828
Ni 6.678947596588601 0.6703990072901606 0.41296614237144236 1.4662384264054749 -0.1308336696858263 0.10843807559944552
Ni 1.8601757233872018 6.446054372391455 9.237925767505185 -0.5293770282826431 0.09260882187667276 -0.5918700046105418
Ni -0.06452454918788686 4.937475377541591 1.358033449251117 0.5015736329171296 -0.7536523001590827 -0.16074665519517478
Ni 6.216582596832602 2.0927258999636225 7.010650271394516 1.426277312631505 -0.15363395540979347 -0.2717589192796997
Ni 3.475559886679442 4.357399906031713 0.5001191959306979 -0.041142021455948495 0.17526130387158204 -0.11122052344058911
Ni 6.128961012443986 5.680263752103232 4.7585354192725875 -0.11387878699904258 -0.5714150791902998 0.5964740790414567
Ni 5.316335364357687 2.9816706160925093 9.121600124830763 -0.21775623981099917 -0.6203488287765251 0.4302522596643235
P 0.3414127279862573 5.544227315347406 12.421302065286358 -0.7202616405137788 -0.28112801919942554 -0.4394773778070173
P 4.050173678964603 6.104658796786233 12.550655392736301 -1.0596130621314719 0.5881840711185226 -0.01062148426958816
P 2.4124011446355027 8.479144151762537 1.242513065728504 -0.36977785642835026 0.34823021216456157 0.44154711585185247
P 6.382400983608832 7.712522995129399 5.782432361124427 -0.40040843683001365 0.2275914807338661 0.3596669932465935
P 4.783284499594182 0.8963247537589809 12.63505864878837 -0.6607442018744363 -0.12265473341945973 -1.3745665145207746
P 3.9429803250566677 6.216158301091178 8.224414140992382 -0.11838773061298966 -0.17863124878507944 -0.9211092774948976
P 4.687339496618476 0.9714657240514435 3.746398691513377 0.3173026693477697 -0.09525268725742306 0.975291419964256
P 0.15974283286179194 5.66312942620486 3.674204319731572 0.8224082266775579 -0.6214549173565104 -0.7698427938760161
Ni 1.5660665540283818 1.0489493484907066 2.543469710189077 -0.6830608630937656 0.8585216845706634 -0.07996490786041713
Ni 1.9867964057109937 6.543525034522495 4.697136214460895 -0.6320440057262663 0.6866794336829594 0.6247636700147692
Ni 5.851805617604208 5.573449556091888 9.100394365328512 0.5406975955017849 0.48567753051216356 0.8595388129812681
Ni 8.589470072101838 2.24653762001444 10.249349317316046 0.421333617018455 0.9627583204942516 0.13162274124602494
Ni 2.3645550291131796 5.307199464563613 6.948603789887928 -0.5013494327214655 -0.2838575023154466 0.6943086680934429
Ni 0.49931754780647475 9.01716920702657 9.135354528908087 0.13155614967414764 -0.2791804085547515 0.06410017291401862
Ni 1.4468484782571005 1.0335212331269992 11.438021961728488 -0.19374676427027923 0.3188363323834767 -0.20614128127989012
Ni 4.203615268687795 6.837742534708913 1.7441506987593631 -0.17656716716719914 -0.1335659810153248 -1.0458782290438828
Ni 5.561126924452649 7.831984815262775 7.922965558063816 0.33495354966031343 0.07012452473122763 0.3640705216309278
Ni 5.298253143717836 2.9147221646371237 4.826488639153942 0.481223608505868 -0.36972489170322775 0.08015054150866197
Ni 0.5504767811394939 7.364717845557979 6.870172270707184 1.1786104013040024 -0.20502645094915659 -0.009037941832552177
Ni 5.177211499015327 4.6458217069416525 6.978438099808337 0.24102498053095264 -0.19448389954661988 -0.31566127708960473
Ni 8.184809293179555 6.973787999033705 9.222453417053543 -0.10808454891476868 0.8087456415888008 0.027148792500650016
Ni 4.621149360956274 0.21709046472133042 10.409025346167486 0.0079382810104702 -0.04229284723094007 -0.01897319866839313
Ni 8.17759626557534 7.38157231681839 4.5686152288696595 -0.7540824457179658 -1.04904428547669 0.07823506965350398
Ni 7.301163760033989 6.123526415926167 7.000939315457279 0.10617499059688167 -0.35591292552079995 -0.21729858344829028
Ni 2.2434231087210055 5.311731304184784 2.5557706756627967 -0.18798492208583753 -0.6497223968426359 0.16291743759424845
Ni 2.279000758017887 5.188107774757863 11.359418918737381 0.34703747740804103 0.07008518685285994 0.8362052804616501
Ni 1.2823571441189423 3.2398410333957885 3.8071777023370728 -0.8177954104958947 0.41198020082801307 0.07233927299435929
Ni 3.6616000279405787 2.789988244227325 3.008756934019524 -0.27166455979368054 0.11857799224692482 -1.2726377007947565
Ni 1.1928217151094338 3.3628145778571237 8.267924315140105 -0.2685715226906536 -0.1500071572904836 0.05766907257669423
Ni 3.7882297378333365 2.793319417175955 7.171819460153011 -1.2641772287322293 -0.727710126372024 -0.3718026001678629
Ni 4.130275298404143 6.736850423939578 6.073204940993238 0.272085449381183 0.9824437147383208 -0.7795661918113671
Ni 0.7951518855947883 7.4822929037773624 11.41260032751889 -0.600483714421482 -0.6693599685679053 0.2603275375143065
P 0.2365981385009883 5.494900678514582 7.993561147381659 0.30582346506357655 0.09590137658501549 -0.2828689131499322
P 8.42341696853248 1.63526287015642 8.143433236335506 1.1778529543126877 1.171879510338072 -1.1953464831117606
P 1.9332809768777244 3.175528632078614 10.509680031873001 -0.9576253701430604 -0.48857824909872627 -1.1762570705804773
P 3.962118771265596 6.1159974234081265 3.781266773889494 0.4173800316873458 0.8317405598220772 -0.15894225499658432
P 6.839909151260867 3.897779287241522 10.35347871431676 0.4946198273071159 0.285791743223682 0.35488345581502106
P 6.299500817789683 7.69005337597184 10.13388309920723 -0.19223392717017862 -0.6063733404330396 0.6918982588797374
P 2.3280024023679187 8.512428798541933 5.857850477784161 0.07451159805532974 -0.15353676771029687 -0.6489243264213728
P 6.863633602504765 3.7622483943478184 1.4288150064896683 0.29171762178981375 1.3563847014054253 -0.4573375459168898
Ni 5.13478192487289 2.7422955973774332 0.3756876990812766 0.7669916975804661 0.9083249812460357 0.04138987580069646
Ni 1.4791942578639838 1.2070581913695664 7.006713348568236 -0.1233964966814907 0.08824334581912543 0.14923119835640752
Ni 6.86467177293591 0.6688950143003456 9.199621792380428 -0.6486697872084055 -0.6132638969052858 0.42512985083609367
Ni 2.762499296724406 1.3942538614584117 9.17418751957428 0.14170635073427207 0.5197307634421306 0.31349023758021494
Ni 6.149462621566853 2.026734370818683 2.4871566377330963 1.0287914487649248 -0.1846975095838174 0.9776126118982648
Ni 3.9986804255798236 6.852953988417425 10.346462487716014 0.9542150589099309 -0.03890439037468139 0.6740825708545551
Ni 8.01733886128246 7.028513122108482 0.15307416766625617 0.16799253812431067 0.5676934073643385 0.3580628819842672
Ni 7.596428458220519 3.9204655680542766 8.279538282615476 0.49061250591993577 -0.7118091388710516 -0.7275296349301018
Ni 3.0132129420613762 8.332789203678029 12.34339956164705 0.8738094639676693 -0.09947700975141578 0.16502548507618675
Ni 0.16265061282589385 4.824432158943379 10.075640835263115 -0.25717536503857 -0.7659529719033067 1.1589818284397975
Ni 8.583900062049523 2.3827546081495954 5.887817492968377 0.37477865207705136 0.2975802512181779 0.09085610085162417
Ni 3.761535216399467 2.510657205266627 11.357489727249247 0.09036733414066374 -0.42783465136176646 -0.1474082862150558
Ni 1.0011122605373504 3.2985021765399494 12.629217811667058 1.652849093851605 -0.012791752448029582 0.1251816136063715
Ni 3.015235117509867 8.30378362458874 7.94282440427627 0.3588146725486272 -0.0806670761337643 0.06018361146843183
Ni 5.54844319005475 7.799503622121394 3.71279898257705 -0.10538489059541852 0.7284292639262359 -0.39341040824562573
Ni 3.035492982270639 8.415969224135138 3.3370941311147373 0.4711217441851758 -0.7231492464742191 1.3326397923800017
Ni 3.4658462224715136 4.441094497919911 9.298625335721978 -0.29340040880887536 -0.8231775007434146 0.07785377505468528
Ni 7.197780040229906 5.917002720680098 11.278028162449427 0.08073803858101579 0.6298007182180444 0.08832253579649305
Ni 0.37318796523445935 9.073158189756654 0.5190843128154705 0.2832736047875186 0.05961462633883926 -0.9092906875934147
Ni 4.554038413259492 0.35122298718212674 1.6099883853209775 -0.2997824010758192 -0.7391613056317593 -0.04680641883057745
Ni 5.932864159354195 5.56752747084988 0.32395702063267945 0.64501213585116 -0.6340561510602886 0.9168199060909243
Ni 7.787767782464976 8.730525837203025 11.499976362031619 -0.06429609097490863 0.1134895219804239 -0.28784476909796874
Ni 0.2484702944488008 4.921099367436404 5.777900521503256 -0.9249638753542972 -0.5399285785462443 -0.21050804288901812
Ni 7.91984111644452 9.001054996421411 2.500514731532791 -0.4178559428824997 -0.5228369131712802 0.028210658106261097
P 8.530068668302427 1.7070230158709376 3.5667320139425724 0.41120192790109183 0.2745976742800755 0.5390371770802266
P 2.0034883807300075 3.2144284267551586 1.6217738766067118 -1.2792791173706741 0.04677068049663558 -0.11441974710417716
P 4.870174850896513 0.9399414532205095 8.23092843475859 -1.6213219697776013 0.4082605858845808 -0.08479832469331847
P 8.492495926263954 1.634973987949493 12.423812632215936 -0.5277952856178201 -0.6713955109406953 0.3654355202992545
P 6.328244597378943 7.593593801565045 1.4780324097379984 -0.5335393871904488 1.4424043001003546 -0.6503895981129896
P 1.8304659939185297 3.327814692974097 6.009836823389956 0.46036013479329746 -1.1629068745258166 0.2914659107903238
P 7.007876099451119 3.90024381356937 5.898030381740152 -0.36923381099942215 1.1500780981922645 -0.014659401784387656
P 2.3527650240429625 8.334829434264451 10.213291401350148 0.13928334311507626 1.6846662383622022 -0.4681109823833099
