# total energy = -340894.1757140804 ev
CRYSTAL
PRIMVEC
9.05847224497870 0.00000000000000 0.00000000000000

0.00000000000000 9.05847224497870 0.00000000000000

0.00000000000000 0.00000000000000 13.25798977493849

PRIMCOORD
 96 1
Ni 6.342597429305684 2.0058537743805553 11.443156910924243 0.48563202198620886 0.07467923398144559 -0.036798142664955985
Ni 4.750634316726035 0.3075478193750914 6.214125644687458 -0.9997850342302459 0.037110531699052214 -0.34014023606757554
Ni 2.8519332122026273 1.6117739916884137 4.870521387063796 0.1873732566437676 0.25842029318926457 0.07136199668275452
Ni 3.4925483793594 4.366056871567087 4.727905703661653 0.048926293387057666 0.10268703204828121 0.701550951478153
Ni 4.969550418884939 4.759004345210945 2.9220611878753875 0.5528110909358673 -0.3557961974372776 -1.1547611054902305
Ni 7.153466584962338 5.9681473562745815 2.411747616758866 0.6550098704938204 0.24958289740329279 1.0580804275370295
Ni 5.208540095851811 4.514706403425722 11.508783731668267 -0.3962604760999111 -0.09424995702452155 -0.18424396698616657
Ni 5.370288178780988 7.818494335200099 12.26208991869915 0.6285568185086142 0.6751899449861211 2.0666552921447634
Ni 1.9089100029027304 6.62796648489024 0.3747227330499285 0.44109460169546616 -0.18477284290644308 -0.7280855074335718
Ni 2.9068094379186302 1.7616645342639672 0.27450704134618403 -0.48911818076259633 -1.5997211036783738 0.9552833522734451
Ni 0.7388869106864248 0.031729111227375977 4.6450695970782 -0.7862418040593298 -0.14991536890762566 0.6225332380223536
Ni 8.806909549627578 2.464266827959962 1.677798479370195 -0.887661025138781 0.48428527815032724 -1.2686224089877765
Ni 6.813493057833366 0.658179545113744 4.8467365561191755 -0.4094510066482561 -0.6266896833928884 -0.7400460222295577
Ni 0.6234294333455481 7.251551723960832 2.269741568548319 0.012655741090797559 0.6489472092395081 0.9064521897033551
Ni 7.501964134606785 3.848120595937522 3.710102993118649 0.013141679588280594 0.1664298216228811 -0.27217929464657
Ni 7.518513963656495 3.8746256861397383 12.718867012165598 1.0783664314795751 -0.4314611923707602 -0.6674344694104183
Ni 7.94866458339075 8.978893706353235 6.884025947221793 0.07071356446547822 -0.8083496917019627 0.1616002614447217
Ni 7.0604723074449245 0.5147150828490082 0.49477647927959684 -0.8890483924046109 0.3908966406848365 -0.44054952782527357
Ni 2.0105460630766414 6.468818183535923 9.107019457326306 -0.19491198822297398 0.0633247282005748 0.8245748953115735
Ni 0.06662959363718388 4.9271930020067565 1.1813171955875028 0.005308042476474729 -0.19707917107762188 0.7117805996259613
Ni 6.530053456867085 1.7724078825140792 7.046515919039403 -0.5869550838074279 1.8082625097593246 0.305750445733796
Ni 3.455127829931733 4.2689319306415365 0.4840766116969388 0.14061440322167393 0.30735841365086425 0.1581387852586825
Ni 5.936379293615945 5.752003146665875 4.909261755918142 -0.061648368939416415 -0.06640311001558241 -0.5402214271963147
Ni 5.419982958292046 3.0951713127186573 9.145812365320491 -0.13207602673335966 -0.6212967945120913 -0.03981816043820239
P 0.23924059665197092 5.448716432701283 12.230098111772573 -0.33894210199441627 0.990561715859765 2.3315627357202686
P 3.9877297723546627 6.104903113890049 12.680419231969328 -0.228630977741974 0.30436487824017905 0.16263924423219733
P 2.2732870546403037 8.539041462693287 1.434727054746072 0.8821393239896034 0.2606756648823446 0.060427866268753995
P 6.202381335238663 7.689202758830915 5.852302176315574 1.614755629413993 0.37743563008392417 -0.3340130401239151
P 4.765345275881332 0.9220166118361446 12.542270281300853 -0.015471356162721744 -0.3827246463970054 0.5450918679147386
P 4.12288218035776 6.264295993998796 8.337605494698161 -0.7499802506241342 -1.7545591066985977 -0.31193214906447575
P 4.772510527538869 0.9562395205114598 3.821735077570805 -0.06269017994036945 0.1384392499472261 0.2316275984764527
P 0.2487873206998573 5.441469654792271 3.4068398311822614 -1.3312315991785653 -0.269496091387452 0.7520628441847758
Ni 1.504268041408202 1.2205476277979461 2.6926445045263225 0.7426793460873466 -0.748982148376923 -0.7037752128229815
Ni 1.482319362816278 6.651772150321349 4.724312207666022 1.3613872968263392 -0.1574996090127868 0.1868106992720783
Ni 6.034228912332397 5.473292068285224 9.060828494934254 -0.1446932012767379 1.0039000848398838 0.5062119030200894
Ni 8.638729951304152 2.312673292575791 10.236216014497707 -0.35667962848349544 1.9187677523004438 0.1412677205349567
Ni 2.441774641024862 5.245589247911641 6.954545248901639 -0.07068528233070408 -0.29829656055891207 -0.07010344168530508
Ni 0.31412336448028233 0.23575399063049696 9.436201626301516 0.07068759632354923 -1.1404986820339456 -1.6702392643035942
Ni 1.269436203266627 1.103140767199545 11.373114990739152 0.49448587283241296 1.4131482314487145 0.8514580928556625
Ni 4.05171882129125 6.818891907375581 1.7118981928210568 0.09385760668210931 0.45440623120270773 -1.3166225910161389
Ni 5.710433816885297 7.795114417971145 8.014601203890384 0.7904265315646388 0.5355553891792131 0.9349520969152608
Ni 5.469415042103903 2.8403111921310473 4.776243524009249 -1.0318613459395003 -0.06204637570878347 0.13618259270256544
Ni 0.6434785502780719 7.513205698838143 7.052587813079918 0.47271994191023103 -0.5044494118030279 0.13022483245723382
Ni 4.979415095313584 4.480284208357909 6.960868968474492 0.7389903272715338 0.5530496893092346 -0.08062670981413211
Ni 8.23048271779989 6.99710829310299 9.065071483399981 -0.4154079955626394 0.8753732089103635 0.15327837184258764
Ni 4.646769872345102 0.22820465974378237 10.266815534218516 -0.35400028187911936 -0.17058703832436425 0.8543750093921414
Ni 8.129036885546089 7.240201458060841 4.489195027644279 -0.5554019915914951 -0.5870720690012664 1.0033537254181109
Ni 7.442459029501401 6.053161119619694 6.912609956836657 0.04562011183196014 -0.016867465179299983 -0.245294554440584
Ni 2.367821272463382 5.233034205184276 2.658107266859204 -0.8936838342940931 -0.8581169929330769 -0.48531037698073193
Ni 2.34016575626811 5.289296377175378 11.552349548762777 -0.3052717063251646 -0.23758818693526174 -0.4756222031586906
Ni 0.7307007691909556 3.1887000401068604 3.9602146624813783 1.9784502557627415 0.7316480279738495 -1.5301249406467907
Ni 3.848682221225471 2.5984137455281844 2.585056122147395 0.22075748853116817 0.07466277892121335 0.23128615597663393
Ni 1.4132213354538365 3.444067435148101 8.395754546487323 -0.8877738965675614 0.025639812055291325 -0.6070647100731094
Ni 3.66809251573286 2.5545616807062674 7.092706881431454 -0.04622972039150103 0.0825018153496579 0.2184460667891722
Ni 4.128788304353606 6.8729166366872745 6.243731449987494 -0.3708278949594195 0.21510671800329403 -1.3402332884565433
Ni 0.5449540753688433 7.402900680590575 11.353625687400099 0.6299105043230313 0.2180606584252954 -0.4182940588611828
P 0.44513061551942423 5.499688456818806 7.9370552451805105 -1.1022092995354436 -0.2539015793833047 -0.40399846817411716
P 8.606826011559722 1.8100277183342441 8.005386925779074 0.21591353017530554 -0.6548381208026464 0.2893889736566371
P 1.8300016499459621 3.2619740232393704 10.563648086607893 -0.30285126980913 -0.35038942459940947 0.32222556057068374
P 3.715006344221335 6.451018285296909 3.9122998727942213 0.4767995112962434 -0.9533843354785193 0.2273387412931117
P 7.018730866689008 3.92584228901169 10.406382135815441 0.15088621746132724 0.6856520208597094 -0.07082772144583932
P 6.333421196778396 7.850570385919869 10.3218883287853 0.9192853369122813 -0.07023688193937581 -1.301808408821442
P 2.3157169392975767 8.294109427841025 5.96244957714362 0.8452501642727379 1.6730479373969833 0.45204595850064727
P 6.716313766073498 3.9756276532466113 1.5267765335935972 0.5403535818988049 -0.5589156611717084 1.3439688442395756
Ni 5.341074605335277 2.7721733628415497 0.40535758081304346 -0.24978832854587948 -0.3224446185600253 -0.3768206222077446
Ni 1.5856221819092622 1.204468839312323 7.138221175936251 -0.5437777770890053 -0.4449306876121047 -0.3203643389922289
Ni 6.962369051501658 0.6998331186875136 9.34965426358141 -0.589732646552565 -0.06006559783332882 -0.581176786562754
Ni 2.863120425599666 1.6811165978052844 9.39609614565856 -0.20844241860924104 -0.6960184516956981 -0.6682813907917458
Ni 6.3542738002115815 1.8364693992297565 2.48531600024393 1.0386382596520176 0.7128756324623529 0.7807267877783716
Ni 4.0767292635497325 6.864356380282253 10.515561185945398 -0.05761739340315239 -0.5148672647022422 -0.6223517181391669
Ni 8.297261776231446 7.089722114780179 0.31264683348132083 -0.26494061080628567 0.18767896080964452 -0.8842430005961674
Ni 7.679184088371705 3.902942470819208 8.20841899660866 0.9798067913361062 -0.5648001449769434 -0.48898602606010627
Ni 2.8138966866526935 8.604208113040091 12.075324146733584 1.2230544905499905 -0.5803116103489812 1.5654470129868525
Ni 0.14431324112732888 4.993102447089233 10.188725161318228 -0.2760678310676987 -1.2560443152124499 -0.947405492187265
Ni 8.567919872660706 2.1909727160662995 5.766522972053822 0.2481942445858822 0.527065349430331 0.3454595913979599
Ni 3.7743755722409262 2.5516357941255037 11.507245603057079 -0.12695361790512974 0.7066185958090476 -0.6880372332624343
Ni 1.1449275003173927 3.4426361965110712 12.819376198374657 -0.38170726087608453 -0.6850814930682202 -0.5268691742591248
Ni 3.25020706760961 8.378271694781828 8.104171378845788 -0.20986835242249013 0.7925260944061447 -0.013870844444821274
Ni 5.420834454696355 7.85039827494453 3.4153638536977384 0.9646935898437515 -0.2884944868668257 1.3112117044132126
Ni 3.029424920139135 8.563617098277229 3.736579096209229 0.130249257937266 -0.7278011434239336 -0.3896558262991999
Ni 3.4787613843875023 4.36539560308289 9.604671095741304 0.34460829914125807 0.3436665040532791 -0.9007008890418746
Ni 7.1858506237432405 6.152994543788738 11.240070489260338 0.6236172151151519 -0.7446709225960788 0.7616931681856882
Ni 0.49363330006445 9.230673946329514 0.3243386037902751 0.4652292899601407 -0.42940148162825403 0.34410179181848477
Ni 4.759738081474232 0.2737995746528166 1.65986089235091 -1.0871966281766954 -0.22653398600362923 -1.4701722142422422
Ni 6.0390570781142765 5.60954055144706 0.2627799429949233 -0.8755657845371437 0.9311039268137642 -0.016610097752855265
Ni 7.881169905640677 9.058137222788295 11.554921249073239 0.007313502942277728 -0.879835101336459 -0.5389088790324784
Ni 9.318450543752437 4.7021986648766685 5.7166995622348775 -1.2467081254131884 0.6255663684217226 0.7659300890851712
Ni 7.740863226849794 -0.4160819062711445 2.6770403799937394 0.3833345120668624 0.5904214450894735 -0.25481072146113537
P 8.466374397210657 1.5085436403745196 3.608890869452415 -0.8430989222576899 -0.621724111857497 -0.2684501666214409
P 1.9577714029542526 3.147339055191167 1.7183016269509088 -0.9468267368656599 0.774139621479157 -0.030298908093857498
P 4.899990409430798 1.1595206993316682 8.380362390208578 -0.5029203767530113 -0.45093652748655244 -1.2918749517578139
P 8.511938513313579 1.8206351894985624 12.589615293074916 -0.1952230917054896 0.32651981707066347 0.13787694968585285
P 6.375307573092492 7.604116527706713 1.2348138159590774 -0.9452192831692238 0.49720070066041466 0.2290752643682442
P 1.927117532399126 3.3403026339634176 5.821570402897924 0.2568804595059705 -0.8786223119752803 1.2222350799724886
P 6.942132424190738 3.9785897737169202 5.8660773952733685 0.383127795372695 0.3819779980389679 1.2504693922278336
P 2.181778366594239 8.448194043131421 10.079200983390356 0.2950289455512338 0.3422374849162364 -0.26553504985717497
