# total energy = -381171.11709229567 ev
CRYSTAL
PRIMVEC
9.21385910982054 0.00000000000000 0.00000000000000

0.00000000000000 9.21385910982054 0.00000000000000

0.00000000000000 0.00000000000000 13.48541415837460

PRIMCOORD
 96 1
Ni 2.0669265445624423 2.26960379929988 3.0204632762269705 0.4938999184219559 0.874596478645339 -0.21099912359282372
Ni 8.69902534217071 6.428804214322964 12.83281393428313 -1.1772795983077209 -1.442023005501536 -1.5625126129488767
Ni 3.9262187782866715 2.8206939153657493 10.23816638404217 0.46139834624982473 1.8510626356439863 -2.388872368075015
Ni 2.7065342033051567 5.883712320416211 4.77411953878062 0.39021786945025694 1.091490627566359 0.5874577344754592
Ni 2.3380719849594658 9.071265242674983 11.982073462469 -0.3038267463485219 1.1202085643263417 -0.5246932496537285
Ni 2.0186182822271967 0.24379502156888302 1.168012332753346 1.119518994458485 -0.32346071852936553 0.06035047606359929
Ni 6.801412669184173 3.0584022617298516 6.165949404185191 1.4687755910050317 -0.6400614767141041 0.18633684495945327
Ni 1.6388045896879107 6.970901604079621 12.19796154813077 -0.0572155299790434 -1.909876363348085 0.039487516571661024
Ni 1.547043768670038 4.52825232033987 6.456020110810824 -1.6715721241824053 0.8882354095850122 -1.2365954624592186
Ni 2.207391823849265 8.141946217804648 6.060439662881861 -0.259344861886063 -0.5607367735408472 -0.1726269515725285
Ni -0.1685629420736493 0.148960457214173 5.169970874161929 1.5453618122012032 -0.5006806887892151 0.34816722013711005
Ni 5.827148440485624 5.729582888346025 7.594027511980205 -1.53450687176457 -1.05004778704054 -0.764754066499199
Ni 0.5522086785391663 4.209609437192858 12.653997809999552 0.7924024243440869 0.5660165338825478 0.6722491171902422
Ni 7.275161653447247 8.07117456741422 4.611337371795495 -1.7035785018856724 0.20692289664092103 0.727752035353553
Ni 5.983645834299116 6.150895801476184 5.29403640595104 0.18129311188795874 0.1687358440482384 0.30561649125909307
Ni 4.111730613849866 3.8179190805013437 3.057359252899726 -0.8899009702128933 0.4863724996966592 0.5928369965095016
Ni 8.0980513938937 4.93432551081077 7.23349474062397 0.7403866933984281 -0.14759186298077162 -0.7103886043744411
Ni 6.390492988919579 0.5794964431266282 10.791122306540025 -0.7133592569669909 -0.16170079157832798 0.6374610629767795
Ni 1.0708715395101158 8.488580804360868 9.571744553060658 1.6832703864559395 1.8938398787105126 0.8150080775587448
Ni 0.35613499649210967 6.387222069001782 9.87536884616257 -0.326008938872516 -1.461264113119335 1.273118497085917
Ni 4.85644997519042 5.313807504428814 10.708146900005588 0.32405824290404833 -0.7348405667692183 0.710214540690422
Ni 4.227613317529129 1.0171178865511572 2.7335879358759647 0.057969634536248545 -1.419779106501671 0.034289260200173206
Ni 3.3524533554103813 8.571330471351683 8.174277648766765 0.7714741588318519 0.5905168330167573 0.3001600961302121
Ni 1.0041355593281245 1.8704133614447407 13.221774224575649 1.9771153390014011 0.32927578254924583 0.44307178002649505
P 8.551041554002415 4.0860700167482715 5.1849802503481035 -0.26008225427271986 -0.7723866433437924 1.7870249405367868
Ni 6.822383412093769 7.720725443263724 7.163586428814661 1.063700601937284 0.27988849036536956 -1.3359632003262798
P 2.2674846117475047 5.259049540847207 10.373344751078763 -0.7477552179483573 -1.7797456332665542 0.43044766350458125
Ni 3.654290159881161 1.7850746000964588 12.094488069649506 0.27565645456189297 -0.9375303991653982 1.1878815421932831
P 5.278435500021985 3.8574741768593843 8.79865295593736 0.8135615749202053 -0.6762692940932289 -0.1984274575754002
P 7.846033924621599 2.1107108021663112 1.3072355838572987 0.8113393704579059 0.3866394080703793 -0.6145437920589739
P 4.146863057924687 0.39615907826935004 10.19147976087744 1.5877227936659173 -0.8309666577705301 0.3899301630065091
Ni 5.961200873961778 2.558237143933466 2.4386753463860997 0.02353330723524979 -1.4506392864156372 0.4021488165598881
Ni 4.6672618099168 4.045593534497893 6.23858133269225 -0.7446215574153822 1.9144727244695157 -0.725470438408228
Ni 1.1664653258401119 0.6385867631740045 7.501692667551406 0.9403377867072064 -2.779772351193961 -0.09113815086841724
Ni 8.828056222533627 3.2384410650925624 3.139040112255429 -1.076866964115913 -1.1769954914083987 -1.279294801099958
Ni 2.866993556455699 3.1318551450669827 7.444070115230523 0.005534813775300145 -1.3655108320764096 1.7421764167635283
Ni 4.586760324503289 6.202161712525832 3.4395224794644723 0.6547507032951626 -0.6804619920183378 -1.1969894180318223
Ni 3.133449142660726 7.118627404198062 10.295883839109965 -1.103276050237061 1.1448459032590474 -1.4484821308633185
Ni 8.54155127931134 5.565189217435203 3.7685125261824326 -0.9489424976570819 1.4700125487359263 -1.6253395755774267
Ni 6.56690153186648 7.184147155002169 11.36171724056078 0.5760919158406789 2.2111608028907273 0.4528633121956201
Ni 7.313178035365085 5.939714154952473 9.185913289258515 0.5265763256090543 -1.9770916848523175 1.7971057218115567
Ni 6.565196967965656 9.211684452667189 13.120349908318943 0.4677895944881492 -0.7280366564735075 -0.19834363961234228
Ni 4.387381631260419 7.60377393194935 12.066721184398029 0.4404536256773576 0.06337075094716182 1.199770066100753
Ni 3.2440707328947433 5.717346883695786 1.3291267912733407 0.21631796470257583 -3.3778970784649633 0.6131240288933117
Ni 7.975046377266668 3.65565381100182 10.70373714712486 1.9749805520465855 1.47878540983255 -0.6578887347035122
Ni 3.0991090904533145 3.9986489232833073 12.265752515159488 -0.9793658471439458 0.9626814445097291 0.28834819109694854
Ni 0.6303799790309561 2.3053904273582617 4.995010749837782 0.967895898831133 0.4140267989443966 0.5148613511649714
Ni 1.4128070580154153 4.794855328287671 3.289200213901425 1.177311994207553 -0.7630265422851311 -1.8700414907393341
Ni 4.947224913303492 2.1676248087359866 4.844527241743576 0.10327992843727375 -0.7678342480864195 -0.8905895116394857
Ni 0.7980795825234853 6.668769956123293 1.1594581861288866 1.458488607256727 1.244285632014625 0.80886391233422
Ni 8.859171424117859 8.23332005674774 11.429832535423602 -0.424280872572237 1.4958084267531075 0.5669035644731913
Ni 3.7293093992352646 5.398832994573701 8.599931210835724 -0.11765805153581672 -1.2597847560914883 0.03595276394552518
Ni 7.35842729653777 7.24495862389643 0.8698426441340691 -1.1211943252783787 -0.6671115388533607 -1.0493407336711862
Ni 7.525833899316536 8.11225916435354 9.418239820625477 1.9295576438270963 0.2877902617109495 0.0022638563335122303
Ni 1.9813666505999996 6.559714721906249 7.905823576561258 -2.03855236326096 0.4005555039308392 -0.1467804228230698
Ni 5.263066783337799 7.296703655610094 9.419480927422454 0.14394706713933272 1.1399644067970303 -0.6015298962978092
P 0.8697394489141274 7.679585563170862 4.2643443661271565 0.5324446114643733 -0.1797321951587421 -1.4990019939897408
Ni 6.944227482496456 0.3840806306067003 2.1064622918167437 -0.598148381420086 -0.4745109723723828 -0.5057218507575484
P 2.766304506141078 3.5414940989412274 4.8483436221096365 0.28368241019016305 -0.5256586988907915 0.2696336454065808
Ni 4.98849378742128 2.005156834340149 7.335458067627694 -0.4808204595301784 0.26125159199047265 1.2561852116656882
P 5.725740709174978 0.40440179646219965 6.150238853334948 0.8640295017627699 -0.8961389807028051 -0.7410706068393301
P 0.6995263047073019 1.1038479405968682 10.961915002473129 0.027021265783850237 -0.7425775304021598 0.9458144935510614
P 6.876947884637985 5.3193450336417625 11.856834085053052 0.034549198729779206 -2.4398295758491724 0.051137442105763535
Ni 1.4455346849112365 3.1056140748532157 10.826454691353481 -0.22219627786022378 0.07250356648636545 -0.5697274070752317
Ni 7.472329020548509 3.835370129302212 13.215934480790017 -0.6750665320343794 0.36246846725113063 0.13198012458544367
Ni 6.259213926979359 4.663309064438673 1.8607037969112898 0.11418423405460335 1.692976043779478 -1.1560620836898414
Ni 6.38547143580634 4.0479246408055065 4.152307527162508 0.4594029130863508 0.8640806667156796 -0.1398556706787785
Ni 7.964459653363712 0.814211206726527 7.081069872454608 -1.508919253103453 0.019680252037746752 -0.18993047584798256
Ni 2.42172461012477 1.2923911357458522 9.459492109797203 -1.2073715325970948 0.0022571714652928868 -0.7957330313792166
Ni 2.927722100619651 7.6504881966908505 2.5315897425411786 -0.49845848432691575 0.2840300233375689 1.1947024217698585
Ni 8.393429283259195 1.0607823639890224 9.425926943125246 0.3487431472452381 0.9868675548376294 0.2716625029111515
Ni 8.787082191901387 4.756350611846895 1.3374386134081155 0.37004293716427883 -0.1484092166757444 0.5282038339101484
Ni 0.3697576869103168 2.530402076125956 7.315365405473494 -1.2645091581503514 2.2720023596581322 -0.1408306329975381
Ni 5.807624273426996 2.2085804116503804 0.1491281494465784 -0.16545177398032798 -0.4087892046945411 -0.5728404987829167
Ni 6.004929848412107 0.23831461828126072 8.488231599107673 -1.3730413361254998 0.8659388029703409 -0.06458945384561134
Ni 2.4086869997481974 0.06470985260474166 4.0391650251270566 -1.0719394449073087 0.30692209744439397 -1.2263318757496815
Ni 6.035234230411081 2.897297938454673 11.276489966905473 -1.5159129108124667 0.08072312618268034 0.5882686604125288
Ni 9.06019018424909 9.045540148560926 0.37461246917704205 -0.8834739836406268 -0.12336461500229079 0.09419750652003132
Ni 0.39045938513935147 0.7224623637252546 2.8088098801263826 -1.3181811937525105 0.2519835364249854 -0.11215897609445845
Ni 4.604386436623702 8.304856457428809 4.537612679620125 0.37278681845800316 0.742583958160063 0.7404882519732988
Ni 8.215813724793332 1.874080477296243 12.230164906453851 -1.0252271284524341 -1.4687876751898896 -0.4553639671302867
Ni 2.951281937886716 1.2341042641965938 5.818227582276014 0.2406904800096694 1.1144852886893193 1.2638355291220944
Ni 5.2795872323874065 7.885284963635168 1.628647231610784 -0.6870098204391846 -0.6137976579215687 0.7365248964501767
Ni 7.423541637549248 3.0298300852084723 8.414156780293215 -0.946669128241873 -0.03987318204585391 1.069172937905765
Ni 9.080691020353594 6.517137479821343 5.744408908739625 0.5683950614170533 0.9504563631984471 2.0927352770612666
Ni 4.294708638209132 0.19552085051165433 0.16809303526855726 -0.4529412166214071 0.2336225174192944 0.6521112087897867
Ni 0.7792722536890961 4.247846951724856 8.760502051679241 0.23433239900212546 0.4510694535199909 0.8030419063358042
Ni 7.39874714318645 1.5316197688323112 4.097380949962605 -0.2919143111816521 0.03439570387105044 1.074117426395234
P 2.9747312088467006 7.453551176062674 0.3744899248533612 -0.0158999590597081 2.565003733256376 -1.317956222225898
Ni 3.602462203437187 2.4772841794327105 1.08207651334683 0.14422243228790646 0.0076284630795352484 -1.4079306918035173
P 9.239934144126252 7.602705124314238 8.061027344581909 -1.64611254645872 -0.40480039525012224 -2.496349622423088
Ni 4.897377936528043 4.873956307144829 13.215476552001524 1.9259532143052895 0.20072859490475106 0.1388961349789866
P 3.736560706207959 6.543102134267407 6.576647951835624 1.241460246750688 0.0075569864116515 0.08087045039382201
P 1.9298796069361905 3.721496046868244 1.205007819102474 -1.3401147606008081 1.3347568387230044 -0.42638789161291085
P 6.73125834734161 6.483737241224115 2.962556937051248 -1.278972384763533 0.34529632634721824 0.1533393069875101
Ni 8.389771381266616 7.89419476521407 2.6340386399101647 2.739630488867753 -0.4634362026154599 1.2292850448407344
