# total energy = -340892.8804698958 ev
CRYSTAL
PRIMVEC
9.05031408063108 0.00000000000000 0.00000000000000
0.00000000000000 9.05031408063108 0.00000000000000
0.00000000000000 0.00000000000000 13.24604947677506
PRIMCOORD
 96 1
Ni 6.694200550111081 1.9018872987144761 11.409418701176966 -0.8804012582525741 0.2311627430248922 0.3940282443352827
Ni 4.330005108520067 0.47609086616040824 5.921249427396356 0.36667710601583947 -0.9087127036027576 0.006136194804724916
Ni 2.35414054266897 1.6336812415094688 4.833960081612237 0.460901094898432 -0.7755377873782643 -0.4470911855985333
Ni 3.609029939459074 4.38285894263774 5.135294813438433 -0.248947577812139 0.46891496634184404 -0.632149420955879
Ni 5.099517111891518 4.623389139443459 2.587059425349182 0.05553891360756887 -0.2808115164002712 -0.34325435621652495
Ni 7.080359350476298 5.924570892656833 2.4619505988607435 1.1201663982344965 1.01048647980815 1.0254351306981824
Ni 5.31171982568554 4.636104830699509 11.455978041865043 -0.6939517989746564 0.04910987015277349 -0.16907163012110238
Ni 5.752316265129148 7.685282342329941 12.463168488081514 -0.5277703459171555 0.5534402398794339 0.4530219492606714
Ni 1.9468854602269883 6.433279995725375 0.3396564766557277 -0.095858439162222 0.06671575615999477 -0.5879549858268519
Ni 2.9233419449228775 1.7020563642421778 0.4498295698488925 0.317121406574899 -1.2134573337798584 0.5364323924675278
Ni 0.4122010790764525 8.902603885451816 4.730707763581706 0.8714584472369896 0.8475111923927727 -0.10534143895199277
Ni 8.888865508706845 2.130869294778046 1.2800148786869332 0.1334014304130025 0.5922692969314897 0.7610213389296442
Ni 6.751995855706194 0.814396130926792 4.826516198296862 0.052529694467599856 -0.9501966817791571 -1.0369726990241366
Ni 0.875402487950835 7.440118384724865 2.316879494647417 -0.9386634843285768 0.06098553854443691 0.6492511136331721
Ni 7.496755250120139 3.7110993814418 3.8175383150532944 1.3388762602080166 -0.04516939744778672 -0.8483586279947326
Ni 7.895023370699304 3.4937289383188075 12.765151222394497 -0.216742196724188 0.6602739471062371 -0.4310004506842577
Ni 7.914508696873165 9.137559088795808 6.708899165177949 -0.18151602653204224 -0.44400457625340956 0.9802721610082988
Ni 6.902556880429072 0.8138132907012477 0.3829151678056685 -0.23473400531591831 -0.8404123765644623 0.488367675749817
Ni 1.887832160977362 6.391105532199972 9.13046183250898 0.20715840969049484 -0.29627233104003164 0.6533569082714296
Ni 0.008723597723634442 4.796992263766267 1.4553438979012219 0.1493235009598977 -0.36579753162436357 0.18984331545081498
Ni 6.359221275762205 2.0827216239722204 7.028989767864671 0.03925020374987434 -0.8034553397241389 0.19127619124259962
Ni 3.4880634417164678 4.491127849752418 0.7543663027899573 0.22990213114491373 -0.1689423036320897 -0.5482877491442171
Ni 5.849236078411026 5.463176831500481 4.763385732562646 1.1340809514330596 0.5573046079308466 0.7893870345565308
Ni 5.592804479799698 2.662077478602845 9.44663183914437 -0.913278211486253 1.1408979743548933 -0.6666885923833293
P 0.22228204856402994 5.263897966185918 12.517662239107086 0.5246336000603868 1.1919390000921086 0.14459472802566065
P 4.136817104568722 6.108328469356359 12.767801154351629 0.07365567781293768 0.42638223518595597 -1.152190516549577
P 2.521164088669254 8.409850486073248 1.226724819431508 0.6636976280758053 0.7990538682223336 0.8039042543360994
P 6.185156585422272 7.854758523440823 5.768535332958307 -0.5249102507605412 0.5503292050542781 0.6106362294744515
P 4.922999786440987 1.0769330714038354 12.596409926785388 -0.4606077320277293 -0.10992725855046229 -0.002282625386589617
P 4.070143440879527 5.8285832617232645 8.057347088607584 -0.9434807032115622 1.1471287857559533 0.16619250880109443
P 4.545493086318319 0.8975567517413576 3.7923042293877303 -0.23994563142384479 0.5065122078693276 -0.35819632223833797
P 0.053245712716525076 5.8674905618725575 3.706880125026447 1.011624192957019 -1.9393453193414794 -1.459682113344196
Ni 1.4875005687922331 0.9215753802284968 2.5811785312721844 0.16539520971077967 1.037129536316975 -0.5452091102188933
Ni 1.8705822623766284 6.418129769986851 4.932524336959043 -0.19483434090750315 0.9795070007075001 -1.1854811602819066
Ni 5.962600312342185 5.521279847773676 9.225329939593172 -1.0741642204727695 1.0674577549868713 0.09212005516571231
Ni 8.698311146147324 2.3676617118764707 10.166184298834933 1.1032200001881451 0.5353561286842136 0.46168116759756617
Ni 2.0877626489043344 5.409381764720438 6.940082197621214 0.7814991471680218 -0.43393253672938814 0.8083586905630271
Ni 0.3665087584754428 0.18316116100289057 9.285758886580107 -0.26607138197661917 -0.2518243851393018 -0.4529183338032716
Ni 1.8622469231262213 1.1029798752720996 11.471052244965453 -1.3025103199844728 0.21413689789085702 0.34699145466145404
Ni 4.168312197501856 6.915290672313245 1.6810822614052416 0.1463723887513737 -0.7620276687069715 -0.6142609707112324
Ni 5.3223358440793795 8.198127438924473 7.9283964038001455 0.8697316943538699 -1.319957568926643 0.40027576790689134
Ni 5.404141632878977 2.748562279772106 4.725713800282711 -1.3967109118282979 0.5896418866109716 0.9073896139159597
Ni 0.6486124779528988 7.688477103193561 7.1097239994794155 -0.3247267297259827 -0.7750729319267038 -0.08272267311121237
Ni 5.186382026251351 4.218659094624564 7.048130277072798 0.24995750713389206 1.3016515715286034 0.8647609806121558
Ni 8.003790045087351 7.196746389303915 9.191659151159714 0.4576342512217022 0.9493222495940038 0.5066304786147469
Ni 4.838886167555772 0.4926990974941997 10.423144435787437 -0.49211505860739124 -0.9695866562699947 -0.020853446410241505
Ni 7.945035406201746 7.180718283101449 4.767080975793851 -0.7915986974958689 0.33977308253614386 0.27409810893583764
Ni 7.164029503972513 6.437578894904466 7.09741828745034 -0.08259386084283195 -0.7166230153199271 -0.6378048194694435
Ni 2.1157643206098276 5.525388690357482 2.5933376282134675 1.3839962924751068 -0.7691521955668947 0.643590315802969
Ni 2.452309299291299 5.183866038942325 11.45645499341607 -0.3830892288252757 -1.1349780093260324 0.1545479825836306
Ni 1.149797149910922 3.6024051095662424 3.722405033767107 -1.0742925185205177 -0.34465277922594834 0.2240806393671302
Ni 3.6527067551186443 2.895638933581405 3.0231859146779425 0.2610106796242601 -1.2317437907938722 0.19988090219247512
Ni 0.9815789624545538 3.4735195870200464 7.966505466249239 -0.08420979917970013 -0.3176813928434271 0.5340831755090608
Ni 3.573489356140563 2.6091512419726817 6.884740432168104 -0.7270244131589092 -0.04541339513779275 0.41180665136462624
Ni 4.133151727373917 6.9393192561458505 6.004261623060316 -0.11569964225786525 0.0718502491730827 0.2769474054591746
Ni 0.742504056149883 7.112768525129619 11.359904432947891 0.22077600047392945 1.049048656352064 -0.09505162699021048
P 0.1209465870516713 5.795205703465391 8.037146787622882 -0.25282685826188717 -1.393764170495148 -0.7871224068920702
P 8.395478587343991 1.9040322231469913 8.007144091478448 0.8258743308492874 -0.6312055689853711 -0.486890319873342
P 1.887569701869586 3.15430595976586 10.43429713780511 -0.2804775300996202 0.47112431528833704 -0.0005900681755151128
P 4.016637984149444 6.146167832446427 3.847381725670251 -1.4499034366908772 0.0659667938091122 -0.6755933510721268
P 7.118262065764795 3.977359621123639 10.502514785073153 0.30950991277622825 0.19877507072280606 -0.2307020013383898
P 6.0712131313911915 7.579031655250921 10.18838471922717 -0.43458636826330316 0.44412233277819635 -0.44777098527437725
P 2.269411502427591 8.487936595793673 5.8478522853910615 0.3386186572167265 -0.3159926922870945 -0.6318074642354279
P 7.011006793824976 3.7379154620052697 1.6520343733942684 -0.3326444419111626 0.51580648868706 -0.980844231461685
Ni 5.2821705502755725 2.9993736333514 0.35445193008305165 0.986156644813534 -0.1699265219222299 0.4680415625979552
Ni 1.4593088404914536 1.044469594866148 7.05360119192282 -0.8326682138426692 0.8095205720816123 0.33178826455845434
Ni 6.934441136866839 0.7036465327279259 9.034958393377687 -0.1392470905605021 -0.9706194684098832 0.5367560943555336
Ni 2.6163914932216783 1.4710199468867051 9.206984952991027 0.449762047562477 0.30433711032603716 -0.5271365689878986
Ni 6.10579438141921 1.9140147195565451 2.602358981269717 1.3217835663917883 0.4072928226546728 -0.6024066424758077
Ni 3.7111627336402284 6.8778495230418715 10.588256555457987 2.046320437242153 0.6790815667310434 -0.6828849996375336
Ni 8.32526625085685 7.195687502558749 0.27740298635404503 -1.6314981389796548 -1.8160614369784531 0.059974066560787034
Ni 7.573845825293827 4.120445086431929 8.235717918377857 0.7670660024618273 -0.581038975433309 -0.5104349399625017
Ni 3.3296014928181217 8.443327597785794 12.422608600584637 0.16422252955891717 0.03668012902985295 0.3138350225141434
Ni 0.20681234673914317 4.959382048967194 10.249501490082759 -0.3310806969684685 -1.3868985537235663 -0.3640630654317601
Ni 8.716022610765181 2.2624518109144933 5.707193209282591 0.22447221837859407 0.7033790058258274 -0.11677256360706986
Ni 3.7894298496418783 2.8650760229965795 11.698102904008353 -0.2817332568835922 -0.431366832884741 -0.9230486606094556
Ni 1.4241393200494539 3.34666133482357 12.717637978604364 -0.7447951068787689 0.03575967409811261 0.24308083461871685
Ni 2.858985161633361 8.301382472049221 8.025489983112 1.1835309785340713 -0.05661620583214765 -0.15469710656698518
Ni 5.5736449649320425 7.76840947698248 3.528032343705146 0.2771492370573356 0.5743600207512366 0.6741157380853358
Ni 2.8904078520540053 8.385097877115742 3.5366419074716084 1.3353301947279714 -0.7248014373656614 0.734450016199019
Ni 3.47856061195216 4.034023637461097 9.198216103697087 0.13101878911343887 0.2636427179304685 -0.06933648161229349
Ni 7.423438655909989 6.236824828397921 11.348460310817446 -0.06132466705141052 -1.2572506768157252 0.2973478234923976
Ni 0.6380453312549886 -0.1847150999272064 0.32672538792502026 0.9755048215266425 1.8207948378983803 -0.5956017037388324
Ni 4.693474771533743 0.2616536298246658 1.6666442953833367 -0.4739754115838869 -0.3093795578459511 -1.0002046382661678
Ni 6.296828410623978 5.442333958217433 0.2469486795379543 -0.3944324217522368 0.012734159737216777 0.5290013901107793
Ni 7.672349443536422 8.774270432063355 11.271950765806489 1.0165794800797654 -0.3317592110927319 0.07848600932204547
Ni -0.1557721955593436 4.86038066345123 5.802352736479556 0.0008109259370695711 0.08241876871754837 0.0396536098358801
Ni 8.091324682687716 -0.20449546633946436 2.6556743814045136 -1.1939568018530857 0.08743756208837844 -0.5351710092566009
P 8.700419869323595 1.685874402700671 3.5179122825218614 -0.6049011267628873 -0.08482249306303455 0.8258601897819002
P 2.0803956932584806 3.23540582406868 1.7577510919436758 -2.3520030058524912 0.10852960687198729 -0.9471756355646462
P 4.538904457681733 1.112808516342612 8.117431218628786 0.06943444064273847 0.5916213789348456 0.9341054326442494
P 8.716104063591732 1.3718466054035778 12.428079515434659 0.28871148797363827 0.5601981274285578 -0.927428791955022
P 6.490812842212713 7.806592752006876 1.396134028218336 -0.08970578929726486 -0.10320279534243516 0.1424177749789999
P 1.8206245287585539 3.456061531195904 5.846130915656612 -1.208285302660616 -0.044930799074419395 0.8782970674253777
P 6.893633270764684 3.8048153835459955 5.873112616967403 0.9613863798473893 1.0043626262985992 0.5992411002636325
P 2.1609072871473196 8.414058882111728 10.1098488088979 0.43766089342356884 0.0510875627044346 0.9836544472169705
