# total energy = -381173.9939510918 ev
CRYSTAL
PRIMVEC
9.15855538816639 0.00000000000000 0.00000000000000

0.00000000000000 9.15855538816639 0.00000000000000

0.00000000000000 0.00000000000000 13.40447157154712

PRIMCOORD
 96 1
Ni 5.345024366717509 0.7747313380596647 11.667305033071932 2.739119610669605 -1.840606730417985 0.7857705208498661
Ni 2.068569581596529 3.9311449409278287 11.644691644569573 0.17167024408621404 -0.8110295525269711 -0.6104673079967551
Ni 0.13299504264637627 3.813411714570923 12.823440736619172 -0.836190882283947 0.3102922994682075 1.214596589590624
Ni 5.208177235778195 6.942230590794719 7.226122903824527 0.3703175309819042 -0.3652447444446871 1.6119364147976432
Ni 6.183764846668144 3.125979724129619 11.481948698964825 -0.4140419684530482 0.6859086169552058 0.2697550014757935
Ni 2.688841887177842 6.048154120673068 11.59445239033536 1.7704284696306865 -0.6430395855058216 -0.601379486762874
Ni 3.1508543598966634 9.124824183915438 12.44094467135861 -1.4096903548071011 -2.0650064436874307 -1.0097853399760675
Ni 1.7677476793858002 5.458059254286311 0.28374302858098477 -0.5868828358085957 -0.8104729086925526 0.8320172105222315
Ni 6.3851523156966925 4.371955358491751 9.22677996732835 1.1457828132510202 0.9167502291952534 1.0895108781321687
Ni 8.311755134029246 3.878767164067841 10.809727236904195 -0.48423796985215956 -0.6126383475061449 -0.9922779272199233
Ni 3.7992251126551824 3.932271443210357 9.949777374954545 -0.051295050729550366 0.2878427122154398 0.29476360770498916
Ni 5.657596695176073 2.879358151252237 4.37673429256511 0.5466232169576005 1.2147194883217336 2.2461257490016866
Ni 2.431010242806033 0.6599041212494761 1.140001992808203 -0.07004379209196324 0.48207592920383424 0.483446841409432
Ni 6.141159248145209 9.103100091117415 8.619717961684588 0.6328742149370455 0.6008986904717135 -0.4459164485641417
Ni 0.2035543831752655 0.14624655608206716 0.21906164874255543 0.42717979138658696 -1.5008087081811765 -1.302446042405441
Ni 3.7353258734259236 4.866260896643046 6.574183062126973 -0.1333896033384606 0.36450066718981095 -0.059123288524717536
Ni 3.1398366180602295 7.265555062990583 0.9067894605149626 0.5200446951381238 0.5748477590209325 -0.5017068160608844
Ni 6.723533452546834 4.715392017780557 -0.0021650824356882494 -0.22522812270801212 -0.37340079789291825 -0.13885833976251571
Ni 1.2145984244439083 1.55981184343036 12.176138787245783 0.9910741367198093 1.0062660139688993 -1.0183807949545622
Ni 4.201258207745737 7.553261914237244 5.318773200112546 1.9236322794815965 1.217817153410451 -0.5656203268853937
Ni 4.7874973224175 6.175421402933321 9.891387006643502 -0.6460063814436293 1.27296423089624 -0.41501693077180785
Ni 6.347675508053561 4.406941039136121 2.4523744043869553 0.8577727222197807 -0.5231094501063766 -1.5042251900618933
Ni 8.13972999278757 3.244216671019362 7.763012059966415 0.898488454771588 0.7596198305964272 -0.3322523486790665
Ni 4.9764383150073845 0.7566779941627582 4.745169228115384 -0.40511098451200556 -1.5533240044710732 -0.8349863204528845
P 4.578380032848678 4.533796186414961 12.476506425121443 -0.19596151253341093 -0.6882670898850534 -2.4827106914834145
Ni 3.4030992856315443 2.7445167438891316 5.438140312706874 0.4245971182610752 0.6762348413108676 0.7644794726815737
P 2.559028526587972 0.7036994160854222 6.144730168795272 -1.3218203331669947 0.4020251464978302 -0.675855603594578
Ni 5.010901958008631 6.228403644432714 3.0193036213962605 -0.6872119091476616 0.0740886515852982 2.4832948461216584
P 4.681734327631849 0.9723546409246436 2.507801980109397 -1.4663872932785134 -0.5466556128574327 -0.39932240285468645
P 4.088919370367767 4.559797324464534 4.130588048699623 -0.607933742941624 0.03819579434343099 0.9884259004636848
P 8.570621695132159 5.2861989670371985 9.102293222409362 0.010633311344130075 -0.013008239334209854 -0.1678624403043496
Ni 6.74011043735477 1.9600864959335538 2.636753520660357 0.8765106649489162 -0.6909906594638036 -1.3156584273306566
Ni 9.165607229965014 2.2326542555296536 1.0891573580790705 -0.6473515826176142 1.0110657493503878 0.2684941324854989
Ni 0.19177098612891816 8.370690436371268 6.114141510474818 0.5135973968508831 1.3581430788574287 -0.5610807871438273
Ni 7.420444547560633 6.71835886889132 2.985873063415087 -0.12602107878853133 -0.4597075888109632 0.6329279509931165
Ni 6.743755542301487 1.0768995478763415 0.29289334102386183 1.0365551518707439 -0.4355829278486175 0.9078590973532106
Ni 5.768918932933224 6.871554020760005 1.0558458613147503 0.8529310778567634 -0.5473788641767025 1.5506138046287616
Ni 2.516184805631332 3.021434817177921 0.4134382438095164 0.5455675219995766 -0.10013315527817594 -1.1893974646171774
Ni 3.6056224154977636 2.0035896328604537 11.648217688299436 -1.0396859841902417 2.3348496340016562 -0.3677466849309344
Ni 1.6695496511478587 5.059085116613352 9.133887490084462 -0.5089334157163106 0.48630642234541405 0.3582929957172023
Ni 8.086674482847037 1.5900900267314826 12.045164121863843 0.17586294201132294 0.18436558016569538 -0.7303943580724067
Ni 0.8016776389999437 7.360172096167805 1.599581953281175 1.457769212592199 1.9653435431774537 0.7194576565552447
Ni 6.95696670601901 4.776039969934226 4.564919704355737 0.9868850383391261 1.2170555926540783 -0.5390119802692459
Ni 2.946224762347668 8.335915402495177 3.03105954277718 0.24884859034042953 -1.0281612713800938 -0.207886546105771
Ni 7.764604732705696 1.7926772664836996 5.4940239844754135 0.5827158489150996 0.9551923352215357 -0.18162221309260332
Ni 2.2600566525160293 8.805346304879427 8.377258036263958 0.2595482361461207 0.03189710581891281 -1.8274637652781238
Ni 5.224671793589848 2.7439855476908663 0.22341379414627394 -1.1451798895596987 -0.8337722455401253 0.526771472338996
Ni 0.3532857694890559 0.27699042587441564 9.812139860706433 0.9137006437356522 1.9590461402045163 -1.275973450036209
Ni 1.597746578830617 4.430945612164627 4.587599950310637 0.5240599869451039 -0.008999632395449016 0.8371835852145195
Ni 5.66866022978822 8.459720750911561 2.877122547941951 1.1338168991383957 -1.3548430679499182 0.4319504733023529
Ni 2.6940256293885 1.2228869168478758 3.876251308970195 1.6351833011407257 -0.0219667340790783 0.14048841916677096
Ni 7.713280189687096 0.18344860707092364 3.8970687048091093 0.6382766168995395 -0.9663668637811162 0.1755659795961944
Ni 0.4021118586647801 5.559563520930696 2.8435573592001835 0.4563540989576979 -0.766567465558854 0.5077249972305062
Ni 3.1315664427665473 2.369821935898955 8.04147609736326 1.117336127874553 -0.11439017941782235 0.5221486288550039
Ni 8.857797350180554 3.287912137604255 3.480967153164152 -0.8746062488373519 -0.23708502204659812 -1.115750528554988
Ni 8.824854027332963 6.252628022784641 5.0700799620619295 1.0834865263149598 -0.48909041284845445 -0.6261528370528119
P 6.564989704474926 6.870821336348605 5.303733936713039 -1.144158904494352 -0.6317930660577248 -1.173074816197754
Ni 4.659286708977569 6.701882628189953 12.584935475309077 -0.24294148082737513 0.22202324261746925 -1.6400437145568205
P 1.352086654243198 7.366143474120719 12.583447210098422 -0.8136127398731149 1.277621270052277 0.7823031311265559
Ni 6.332508940737572 4.480035467728455 6.657719159437278 -0.7638276980301877 0.040711104566116985 1.1508645986493018
P 0.3887019022251238 7.974949268663615 3.7888274050018964 0.18198216753518337 0.14857710971217636 -0.36003260411612836
P 8.623613095186695 3.7969354738695564 5.582841820536402 0.740952336093911 1.13960779478856 1.1288335869911914
P 7.874315064757767 1.08723955663223 7.555135754619401 0.12699064179065225 -0.943769952317207 0.3890372188785945
Ni 7.7717300886065654 1.786953169519634 9.65950338070144 -0.9500483291267509 0.020789425941525486 0.06741098245480649
Ni 1.0323340185529108 2.1896365220253062 5.227314952603974 -0.36770220484624416 -0.6191085286115209 -0.3253101130332785
Ni 6.72768227802639 7.864213178435584 12.84092075496416 1.0399248396739251 2.5120724324749832 -1.4506233455760373
Ni 7.75394417451982 6.578370353538126 7.049987403034894 -0.32296758094303085 -0.8543721811786641 -0.1519516826113641
Ni 0.24516627846523825 5.822084345535468 11.269970276769483 0.11617709611491606 0.45708274959360634 0.0983621794206822
Ni 6.701708615642246 5.993395119476029 11.33230065550283 0.8667137334631525 -0.7903907932306968 -0.05099423165967992
Ni 1.0364187341464681 2.7898790675099603 9.572320346733388 -0.7711352874351944 0.9793517060765585 0.3859806914404578
Ni 0.2036523797152903 7.55788698458421 8.34488620725726 0.7612959327472696 -0.2524568765169781 0.9789349302541142
Ni 4.311664589988638 0.20998735230736118 7.017924217336497 0.23919924017612354 -1.6873782379767261 1.1124780284513036
Ni 1.0966087585430129 1.6102937993758495 7.550336671724728 -2.8300379322177323 -2.372714270257914 -0.40520303000517954
Ni 4.419543211012209 2.9279259691729425 2.5949850140774475 -2.0206870529447656 1.7724467856122958 -1.6643864050672434
Ni 4.067259387455742 8.88424725743211 9.832072540118581 0.0027469666175178498 -0.18199862259541558 0.5299784093120679
Ni 4.383962224283575 4.776855081341909 1.1009856320456162 -0.8101535776799207 1.064899507341392 0.13660116829722282
Ni 5.2870232370000245 2.045911316173971 9.659811108154228 -0.2746591236456302 -0.5795752464035889 -1.1519030672161452
Ni 8.60356501797975 8.154933194324128 11.213724842072814 -1.0173770362803962 -1.1430780127253475 2.035222784667095
Ni 7.919686546933739 8.554731601959912 1.719082780780584 -1.1208971057529342 0.3850244981747756 -0.3783411726173291
Ni 2.4562512207787774 6.625564388187456 4.577948664901466 -2.1364705131656883 -0.16545640196601827 0.30017218031507015
Ni 4.764307860796677 9.134138434495368 0.5956412873810593 0.3298702216001351 -0.3522784140920062 0.4574270203069026
Ni 0.7389277984410687 1.0825412178441247 2.8986231719944966 -1.6317493357585124 -1.7967773919378605 0.26423715698135786
Ni 1.7633790485828251 7.521252764014188 10.24274490027506 -0.14418258018890653 0.5025905042174184 -0.27181805465240927
Ni 1.6188845240995193 6.4464138910449105 6.808613682254167 0.2029849950390956 -0.6341016595862435 0.15652490380434333
Ni 6.851185394123074 8.83295934863408 6.1024524465464385 -0.7005662189673806 -0.43217698749086214 0.7965534703979831
Ni 2.8201022994802276 5.615137633535418 2.6128533551604756 -1.1435924904679207 -0.746124881433786 -0.6376626374646245
Ni 5.712053464053409 1.8624013467835923 6.5609654353453095 0.5157414397770795 2.0329543003478925 2.095154942246353
Ni 7.279045614715493 7.105820702750148 9.14796144177195 -0.6821049269383995 -0.6134857831081048 1.6595928403333418
P 8.376093983905346 4.508949026313345 1.4742773493879606 -0.31677405053780927 -1.3279601275161454 -0.5815938194955145
Ni 1.9835965069843648 3.096745616114742 2.534638378387966 -0.4598685398688596 0.6165042582194544 0.9279098453564988
P 2.3336090088654893 1.2611513602332627 10.006732597674757 1.0871783733442502 -1.1628677937577652 0.4406850249618733
Ni 8.417655507142035 6.36379456510437 0.27361733001543087 0.010578032626162429 -0.08395088909135864 -0.8182101294358103
P 3.055037555995773 6.567938759230813 8.471438206360883 1.1333515294662029 0.7679136951741032 -0.17489003657509233
P 4.988307802472071 3.4742521005336675 8.028982912293367 -0.9523486951251534 -0.0025541338804214073 -1.270850526987347
P 6.020650979580124 8.066058575221257 10.651179825410226 -0.1099884508057009 -0.30348530384870315 0.5032111685205527
Ni 1.389013948577779 3.775174746850964 7.044961187972687 -0.21386821761050265 1.7510199831970876 -0.5378565265085641
