# total energy = -340863.68222180277 ev
CRYSTAL
PRIMVEC
9.30770935457693 0.00000000000000 0.00000000000000
0.00000000000000 9.30770935457693 0.00000000000000
0.00000000000000 0.00000000000000 13.62277347810296
PRIMCOORD
 96 1
Ni 6.564578629053395 9.207297988899743 9.138633153936448 -0.13452423116353607 0.8561328726235126 1.464427341338665
Ni 5.450073486383415 2.390592123295118 6.812599304146917 -0.9639330575286432 0.694120977562669 0.7516018453879573
Ni 2.7627050437795266 5.505445050553649 5.7869678954361 -0.6516712930388906 -0.23613114277376104 1.9080321110504945
Ni 0.18864772658360504 3.408753164313377 10.8767902063979 0.9298003775109921 -2.0372868662849752 0.6561493834149023
Ni 4.951264023373337 5.669623739475945 6.676780275481855 0.34848218027436756 0.5213860396573665 0.8662604479758178
Ni 4.647646537538239 5.662791880659177 2.0181189944507514 3.2538192394457317 -0.6050638775929966 -0.5992210456589745
Ni 5.4931681816444975 6.607207938836496 13.106579547027996 -0.8355774170696643 1.657148235447591 -0.41444743142158297
Ni 6.990806572917487 2.8193052256116307 9.579167047393689 0.5091236773502458 -0.44454270814506663 -1.7812872667220612
Ni 7.866941273765367 1.2207247241644654 10.78212614632169 0.757635710286863 -1.5481982532087337 1.5136737370693027
Ni 8.967559313772378 5.559653151028928 2.808116427950001 0.3312069381336876 -0.052304208720355086 1.9148511908548569
Ni 8.938575106203695 5.925157597726 6.561245538260091 0.8386704541726911 2.243845180497626 -0.6016605083384026
Ni 3.3397737287669664 6.289898812239183 0.22773917596309098 -2.0766280870867595 0.6613180721000352 0.47779247133713193
Ni 0.9952454600824523 7.946680421562708 11.541309476552833 -0.7652592882703918 2.640522689530298 -0.04200796900066959
Ni 9.187481875247293 0.34263540430906353 9.182471535191345 0.14368018663119128 -0.5822682198547199 -0.8598175205639514
Ni 1.128429476171184 4.262856516633615 7.108132113458522 -0.852990470339789 -1.1333366170678676 1.1567033168182659
Ni 1.8823074119533365 7.435082165617699 4.949275896611399 0.3446250113118065 1.558516090194974 0.25688791570513825
Ni 8.670252455018709 5.083768576664216 9.64164039395792 -0.5378593547220415 -0.06362914681487106 -1.7688426132008053
Ni 2.91415078602425 1.9951354672351596 2.6467142287893415 -0.5069174137275464 0.36238130685396297 0.6283369891883243
Ni 0.42212417471925134 1.415153469155556 6.640230761583103 0.9158781110029452 -1.815673200401099 -1.6817110123886199
Ni 6.917331513653775 4.347584596754918 2.1697676447638754 -0.7363804004525123 0.20880057327960813 -0.792320406153242
Ni 3.954222175345876 3.1276324124839014 13.67903626192864 0.8463642232725231 -0.6087030170074808 -0.25914920093548915
Ni 3.5182862904110914 7.754867142957873 11.880326043385113 -1.2145461959686632 -0.9903452289735847 0.9249795590835811
Ni 1.4405355931246642 6.650553942255687 8.107580004407147 0.9515645086609613 -0.007296790771729369 0.27368159022370925
Ni 6.20141972516535 1.5377453117654298 1.3796324571631438 -0.20141507944881443 1.125331230264888 0.10099833149194863
P 6.903034871770184 6.120182036128907 5.855994800301264 -0.04156445370534777 1.018373852976027 -2.5077879461670163
P 6.744096423329959 6.45654404419478 1.4398589226396794 0.19722443840623452 0.9493523315009909 -0.9053918667596407
P 1.6068364398265562 2.544765024440813 0.6029217790602653 -0.2548423460300192 -0.6087361842382614 0.11777375117807459
P 1.2874610017070054 1.315728515639599 10.675540771841513 -0.5598762253127647 -0.9395697981929302 3.8494278851630996
P 4.022438378708397 4.89824730972169 12.3545752531802 1.057961899681294 -0.25512053939207036 -0.4820887847196407
P 4.951794562818235 3.5189285223707056 2.14144521534488 -1.3770751398752414 -1.3175679856485436 -0.7633553863794595
P 4.074570859951879 3.8425575837590067 5.860762209137707 0.06540012267236478 -1.8303287455307444 1.3962403999497823
P 7.606865253250212 2.978346058857012 3.589641984208075 1.5975420937491842 0.7138770771436738 0.19328550836314454
Ni 8.880327459779537 1.20204415107829 3.624543102743816 0.0802713833572424 -0.601787263724254 0.6830490360192236
Ni 3.247701865803116 0.8897165106372904 0.6712524672503698 -0.16087263925007778 -1.0936997194025357 0.17392407311739724
Ni 5.400240009401162 4.249872261797932 8.70459790329374 0.5626766708760375 -0.7175023326010869 -1.199745640620721
Ni 0.6770828165185214 3.243690242982916 3.0022417416094473 -0.8644737883890402 0.821166898071289 -2.1466572238907027
Ni 5.937536851440307 4.307840676935301 4.71248497310157 0.8910235138531106 -1.1551994785792299 0.6552384415648586
Ni 6.620369040153811 7.763365081785815 7.426441818833495 0.9830636077105069 -1.6976955607423343 -1.6710846430230255
Ni 8.574196892363338 3.671686651663337 5.5607477376731405 -0.6466828386853637 -0.6111825888962248 -0.7517010899699827
Ni 6.366380261690654 4.718254822257584 10.806469529903945 0.7209314128872939 0.8886079624330824 1.2967286803056892
Ni 6.466177523588996 1.4372220485214364 4.438108587619001 -0.5036274301223649 0.21097469811279151 1.3131279475993192
Ni 7.751488444387728 6.408432493481058 12.973730608483413 0.8965457292229204 0.8668636287774556 -0.23765195029366168
Ni 8.567495341480404 7.326749734053177 8.955216360125354 -0.8243355256072578 0.5688252069759365 1.1562281769540603
Ni 3.686253217124156 4.140590443858327 3.832168318348549 -1.0046433907638115 0.5751208101766612 -1.5484566490764429
Ni 9.18052901620625 5.026088700523195 0.6516225077891122 0.9519499170248381 0.32191831374291013 -1.5201292628866596
Ni 4.185239526615868 5.190937544533783 10.238045845555488 -2.3162127356267592 1.223935864713679 1.3718773977243859
Ni 4.821812398818016 0.27927875610762476 3.160006487874203 -1.245809524858319 -0.5358369249753739 -0.7806447695875265
Ni 1.9282688817587847 4.405934627984232 12.667517202452133 -0.13920543868928928 -0.2965744356614828 1.193001122808036
Ni 5.536923724284314 8.19703919329761 11.216120443042337 1.9238220268948993 1.0371714452985041 -0.12516027345013284
Ni 7.057710389232099 8.786636055352309 3.1385913097194087 0.05509565542256317 -0.7380187073868838 -0.1934821977549829
Ni 9.234355500589585 7.760805461656917 3.8214058137847497 -0.3568876307292434 -0.27326224329810356 -0.3586853460596145
Ni 7.1976424947515625 4.65010377286198 7.20609296426075 -0.31928704676765013 -2.429864237106344 2.403588334128951
Ni 8.38167622783197 2.919651642373991 1.1561133967143886 0.8716307111487956 -2.0173384481875063 -0.07190218545694069
Ni 3.3388894963588016 0.8306981858615948 11.976734368232794 0.23107841084120206 0.9222446766509215 0.7634039802292079
Ni 2.7673961293975795 1.8897535796010398 6.952818087120816 1.186349421819473 -1.0375784509289359 -1.9889706956780908
Ni 2.4976214755212918 4.227152142762878 1.5843694904915235 -0.3960501598613179 0.7229047345635808 0.3381409462493596
P 7.984795492209389 4.29610365518061 12.131515993583688 1.1169309220163346 0.2280967025050588 0.6327466882202457
P -0.04694064085112108 8.397052564024477 7.2181901943754 1.344975431127219 -0.45034363109755987 1.2307552016283578
P 1.630301175626381 4.5010687273932 9.340018481052404 -0.8705068819569975 0.7096314144934424 -0.39013302304593456
P 5.523464776261091 1.0722946798170614 12.70794989277916 -1.541262702431165 -0.7553541133415379 0.40700280221807966
P 2.526829068119408 7.665848208729581 10.033172919667539 0.5019590412810065 -0.3655129105044092 -1.5876011804863883
P 4.899987851409341 1.7170024901743253 9.214253640253654 2.6411379545167932 1.3140710282388788 -1.4854965033041385
P 3.379796879873371 7.458760978737395 7.019842903659705 -1.3836219398548235 -1.7007937400516837 -1.1009674567085426
P 8.694871346803927 2.7098465611903935 7.766097825312522 -1.8448408231039906 1.4849424305728813 1.205208720617821
Ni 1.5579523492193845 2.024073136256046 8.855416305914144 -0.8705747590804556 2.9578924646705764 -1.7090873475190438
Ni 1.4707577260647797 3.141268206988758 4.986725466024568 2.157140897030846 -0.5607293173416794 1.463573477978802
Ni 0.6373258659055221 7.42123229379297 1.6753290821629983 0.012701249616752319 -1.2876431730646534 -1.2883939351877487
Ni 3.2893073275346576 3.8368054192511556 7.993094246052754 0.1043523355658461 0.5768658178922258 0.4775754702303195
Ni 8.215905920574977 8.887615396364724 5.552437814578304 -0.11488485966605376 -0.34789648297422665 -1.7691285198723403
Ni 2.733246143023301 3.303845969866798 10.680104341838597 -0.20991617494129008 -0.8686250915532523 0.1359589067275336
Ni 4.667955959797349 6.9452639500422215 8.79773736054408 0.1464235537042833 0.4223142357641695 0.825325914544985
Ni 3.843497662424529 9.015028632526487 5.485836498824378 -0.765563963995004 -0.6246824231548725 -1.8008165950042405
Ni 7.154938723291985 0.9334981148638734 6.976657923615894 0.32602153727800626 0.5574298206548013 1.1697246687785985
Ni 7.627090906123286 9.136773473566434 13.274684227842545 -1.283101319330242 -0.5385088153805823 -1.38679802358996
Ni 0.21530593753333852 1.315728515639599 12.838456080827587 1.311476013818193 0.5034019443751201 -0.15982800003564732
Ni 3.3163927623531784 0.5927177370700439 9.752420753136624 1.3902199047873154 -0.18885549761624895 2.0175248531666994
Ni 4.654087472553502 8.996794829499173 7.558473540478745 1.005153754741327 2.8814335130808892 1.7865623990780715
Ni 4.283761632304541 6.557141769115251 4.3655950147528 1.976764640530202 0.9932197223079025 1.0083954016070762
Ni 2.774181449666549 6.3187527118740325 2.8082122973584647 -2.8185785254278812 2.2350566356717185 -1.442860928021799
Ni 0.4721400828088738 5.830423729828095 11.512469538482321 -0.9156629096683455 -1.480001284517522 0.07687547030181599
Ni 5.386548368638947 8.731999800237286 0.8244517819761277 0.2695737387029228 -0.8497506232462527 -0.7431904813958103
Ni 3.9223339623945868 1.9000199832453106 4.738137020647907 0.31891115148547017 0.5111383937874294 0.3740466590070332
Ni 7.281318803692628 2.273640752678379 12.721859333945071 -0.5380401032742799 1.0953783926565395 0.31052344164240714
Ni 2.2364936838258997 9.130034691845262 8.180979671223426 -2.7542114720057214 -2.6120358949445146 -3.0874012448973924
Ni 6.13619129657147 4.491481786546783 13.327118278875759 -0.031672905623248676 -1.8195234273851246 0.6002908816843855
Ni 4.969469903271971 2.84414750242628 11.212060420132426 0.5695286608008643 -0.9305035742256039 0.4367638355305962
Ni 1.1657161606670579 0.16954272194151052 2.2079246001035746 0.9559572384120182 1.384824701913673 0.15467113842505623
Ni 6.747456506480986 6.160735726680211 3.6230855154267783 0.17237704034525153 2.2381206193090226 0.5462138973343239
P 8.230453870616678 0.49011140842660555 1.5121826182308646 1.3674350456823159 0.5842294573461486 1.2622255043224972
P 1.4717908818258985 5.397159157536925 4.149088382686269 -2.2530265898865776 -1.3034261469305228 -0.7157879210131415
P 6.0458413598761505 8.733796188182296 5.3253604167649025 -0.7396457014673455 0.23371276314025552 0.01595472355704349
P 1.8529788191309455 0.7227492319309293 4.8062238468475496 0.2366363645449538 0.26115054763623413 -0.22128687867207697
P 6.74533434870139 5.978630389146069 9.122326977558934 -0.563499680997965 0.7523446370912528 -1.2033639540995984
P 1.1895532048492679 6.730265166924351 13.344991873543115 0.5153256923958996 -0.6094527506893117 0.26186788541823286
P 7.885351923274312 8.216296844376481 11.238283961045726 0.011668180366547647 0.1940676379448077 -0.8301207648304672
P 3.5332344719638558 8.238765655253427 1.7560027240001268 -0.9083283236801454 0.08511816992658244 0.7764243037482758
