# total energy = -340891.5848148192 ev
CRYSTAL
PRIMVEC
9.04869771859046 0.00000000000000 0.00000000000000
0.00000000000000 9.04869771859046 0.00000000000000
0.00000000000000 0.00000000000000 13.24368376753904
PRIMCOORD
 96 1
Ni 6.548080842812559 2.0022233765966932 11.262097492232797 -1.290153855301649 0.6967365608086452 2.0918911838934164
Ni 4.570053683129979 0.4314681344405188 5.855787624579021 -0.6943282084774687 -1.141821257500111 -0.27273696692225285
Ni 2.4082927222353336 1.2957825199393644 4.658134608733443 1.1778565538571133 1.77307079234954 0.9580583439154209
Ni 3.206804075190754 4.064041474433606 4.756164577155557 0.6578949053510992 0.7507032448330878 -0.5956572395671161
Ni 5.113283184334857 4.259764799733628 2.739945580251811 0.09458265777359194 1.4115091531833948 -0.7488044851484782
Ni 7.29817261584748 5.941944797109957 2.6768001501420713 -0.6144656305228707 -1.0437264728082025 -0.7432025655806686
Ni 5.130792413851988 4.492135349604389 11.57282071310554 0.3782894934437872 0.527685242402517 -0.09449446893515984
Ni 5.586195257851041 7.709164452885251 12.520061886154643 0.03869304569482369 0.8984105503458011 0.30779318719543763
Ni 1.682532896575899 6.623121690557038 0.21271587419419272 0.8688840016415939 -0.29052874368803516 1.1872385092926456
Ni 2.9636112831998433 1.792393132011293 0.5433236076580972 -0.4909333795944642 -1.346669016779558 -0.6864860867252306
Ni 0.6831965627123128 8.675121951687963 4.748866802682396 -2.5450817975214686 0.8581607016868188 -1.1759508521939683
Ni 8.658635224979843 2.3016176282934953 1.1973598380490114 0.6137354372250656 0.15802359983705688 0.8812900886154306
Ni 6.882936939717442 0.49970255198200775 4.662584758126997 0.008493639293307952 0.41042416919480285 0.4091440169307986
Ni 0.9775760262962497 7.362436464958933 2.544800466717238 -0.5119176951556151 0.5507788909971868 -0.2351708357430208
Ni 7.789444496438732 3.958533662459577 4.055957368154224 -0.3876202839264099 0.0403020420531564 -0.8218788365366491
Ni 7.619310887456253 3.787585670708859 12.706969970423351 0.3030872970793361 0.03501533973292034 -0.7857592079959564
Ni 8.023090912646401 8.643324828936956 6.89695246715883 -0.36920270065117056 0.0742989678238914 -0.35503335112932405
Ni 7.010487378618464 0.6087918383968023 0.5433616121872817 -1.3982345475616758 -0.3430952049308414 -0.5966370869818821
Ni 1.552837916385182 6.7161965922692906 9.437978722180153 1.7342846727202776 -0.41059720443755743 -1.0662367380955766
Ni 0.13063333011367675 4.880559735264526 1.2468553080933291 -0.8894129748328811 -0.26363140507655886 -0.22690628174138341
Ni 6.180387022952809 1.8722750328780797 6.743392452379749 1.3808081245551123 0.2897918655220106 1.332871962995466
Ni 3.3082218759287403 4.344125805825727 0.22920803012076782 0.12554053960768702 -0.390879671403972 0.7575488070000115
Ni 5.833921447251813 5.5468967649348135 4.916333760533764 0.1663884268619844 0.08200456399826521 -0.23649958185677336
Ni 5.272422625946113 2.8221439476593653 9.324705318076097 -0.2772942472756321 0.15787576140528295 -0.5390772862895425
P 0.15672977348701303 5.484804603205329 12.254883474030516 0.12603753384876357 0.8036018926043322 2.0486400865142653
P 3.999560456583955 6.17494875580046 12.672774942854753 0.12858215464748823 -0.3101202926667175 0.06269583636732427
P 2.5288666154217783 8.550512339450025 1.3726683970887754 -0.560366534685622 0.5826289456282482 0.11289379737795396
P 6.248270351034213 7.749946932179157 5.7895819250001885 -0.019326468242753813 -0.6476326041931427 0.5056984537187807
P 4.783928695464297 1.098946204856083 12.818892404001875 1.276481242910563 -0.26449658129033154 -0.8456471426008404
P 3.84239363101132 6.180034123753239 8.262866916489678 -0.31963620257695274 0.42013188340086993 -0.0010952899467077909
P 4.881211241479116 1.1794705632400357 3.7867269493232385 -0.623027661160269 -1.0081064096117476 -0.7959682873184744
P 0.12220537333214922 5.614092392011926 3.605275229601728 2.2498533343649187 -1.1077235444854536 -0.7108256919118597
Ni 1.413641803898347 1.0491602716244268 2.53967528449579 -0.24992433990311153 -0.3266154621082633 -0.48793290220524355
Ni 1.832623640762282 6.426240131986632 4.85857773461028 1.5357890809111034 0.7128573776299078 -1.5079851713249577
Ni 5.912093144305298 5.612345993408925 9.095603157715198 -0.893341620463326 1.6899974207671282 -0.16479048624724524
Ni 8.58275284837485 2.6500105765459896 10.352839131494344 0.37599658364455246 -0.8474913948984307 -0.6535659389584421
Ni 2.2857552617076915 5.155115312530048 6.834932695008743 0.6054294884625315 -0.6729446005953701 1.7036049842482335
Ni 0.5619928801850971 9.06308485377943 9.178203287288417 -0.0016501340089132871 0.4553462265184739 0.16720860877043459
Ni 1.4349605350313497 1.2320073004888534 11.389554729550342 0.05915079932854329 -0.9645948594823581 -0.629144058470652
Ni 3.857269689577813 6.778569263618947 1.5390223651568842 1.4198241008069934 0.4439991769367709 0.14590059132127775
Ni 5.848869895397704 7.932042919157319 8.072951950066683 -1.2682778811641642 0.006508490542479113 -0.6834496138917521
Ni 5.50158993692847 2.9787135592019585 4.63879844720623 -0.3808431131035764 0.35444199740222826 1.1060811237860242
Ni 0.9953386193412771 7.391989510748571 7.100243218115273 -0.23472629200643444 -0.028567270114731442 -0.13233596526296565
Ni 4.885328398807434 4.72743767744081 7.008014369612247 0.4278097116611019 -0.06580789963374473 0.039127562129080994
Ni 8.196726367532305 7.012107095457517 9.256381318430101 -0.6830282100836172 1.0750242544802195 0.35118929479288546
Ni 4.795438638588736 0.5786044789176805 10.558221941295418 -1.6706604110014132 -1.2450831882152558 0.4295817159598601
Ni 8.05257156885664 7.107625145474485 4.5399613349738175 -0.703064559909202 1.1061875674569013 1.5756391230285058
Ni 7.461999282724821 6.249283805145799 7.043811921494789 -1.115384403464821 -0.9633697288260055 -0.4677777674136073
Ni 2.1820933840083363 5.320027823098376 2.3013280699758996 0.5019487568683614 -1.1884890938702952 1.7001388800765043
Ni 2.243814549143401 5.320299284021122 11.390706628732527 0.01542044832012828 -0.9120276269086035 0.4625484006938679
Ni 1.1389052526843262 3.246129714199256 3.644542052076968 -0.9341123746227848 0.6373435635623088 0.8865153415701119
Ni 3.4597242169134037 2.6178696032928372 2.6836599676598683 0.6429346844968411 -0.2596333396607593 0.9134167939466461
Ni 0.978055607259768 3.2855548888794317 8.421605500805013 0.1480639175211837 0.3295277506590518 -1.27110866574474
Ni 3.789033462296839 2.7444427828719733 6.664128577547081 -0.6744420110765029 -1.1814951790509653 0.8947786100201688
Ni 4.046830851931496 6.9346050020134715 5.984847386210511 0.21479972828583652 0.2799941627052984 0.06872918704559777
Ni 0.9281248948693139 7.6231565838618245 11.57805176508686 0.5122977042028531 -0.5033926884037395 -1.259923852772514
P 0.22403669954245242 5.489365146707465 8.074899229752516 0.7661668876863257 -0.02396062458065551 -0.6005083970118303
P 8.221275483645988 1.496129729623497 7.783696763834452 -0.1858611908746154 0.8641259181313182 1.8801924631304068
P 1.8459071285819972 3.2348369398130132 10.420540580757509 -1.0544669991541582 0.5385011020710984 1.277097536338323
P 3.881447809097076 5.933674287663623 3.7247859008407493 0.09177604156273227 0.4899080236537434 0.14148240764892406
P 6.816329477972945 4.145705968693092 10.174234131982699 1.3527015961268833 -1.6589053273480139 1.9472800008075237
P 6.2529485276028725 7.801587848382913 10.232215470472063 0.37674914553986083 -0.2686031472595374 0.9497009730896612
P 2.4004655989628176 8.49915193286644 5.727694263832506 1.909500210955589 -0.528990848587818 1.9937053821495987
P 7.120392857540982 3.9282024286913995 1.7731175967568267 -0.17940103707156843 1.2277410973923824 -1.3480759244294138
Ni 5.449813290263342 2.9688414303114206 0.5729825232076065 -0.5220301009992687 -0.27584028843792496 -0.3387852647015778
Ni 1.068515435416232 1.1249883560448701 6.975633605877335 1.6120009494869914 -0.3599415870642188 -0.3383114103889528
Ni 6.783736069848549 0.7647479482539885 9.348915108036346 1.2224911618473528 -0.3112173823856382 -1.5967345102462243
Ni 2.7812528839963604 1.8039211725305824 9.215682992022247 0.7834984369862377 -2.0027363820036155 -0.8748502465273579
Ni 6.735877509168391 2.1219466922251997 2.653278966055854 -0.7109619603794078 -1.998206869564378 0.7093750755082622
Ni 3.8585907994018447 6.972853846028414 10.693877298479899 1.7088101825982571 -0.6782819536478835 -1.7285804232466486
Ni 8.221592188055858 7.248431926102947 0.27122113226445727 -0.0813648735317373 -0.7944225400979094 0.6414622137163728
Ni 7.667060863767313 3.858056926253777 8.113000579999433 -0.23694952490999835 -0.42883841003593237 0.25611967008054604
Ni 3.0471488578262793 8.581422689853394 12.390763238911134 0.9351212755032734 0.3054375424790675 1.117596066404159
Ni 0.13416503671860502 4.9190981375970635 10.243962489469034 -0.44433367745805413 -0.5474297720192959 -1.0361692292862348
Ni 8.49057376770766 2.636283702552456 5.841232794771111 0.905664403694737 -1.0060621254882092 0.6061090310280594
Ni 3.678702694595352 2.71059160580552 11.596486676350555 -0.35271241630563127 -0.6214209787947813 -0.3274474710912554
Ni 1.0253621973970086 3.184118990746595 12.625879163580603 0.32185943548051665 1.2205402087685688 -0.11323164033334691
Ni 3.129944439263875 8.498265160518802 7.933138716415471 0.05206920989141355 -0.3323557070261502 0.42271841318112363
Ni 5.714433397756353 7.58113443302071 3.6086259622581585 -1.4542347170763792 0.605854491815092 -0.10939838263018578
Ni 3.153851097860392 8.321942242497709 3.584071416926021 0.898936083831968 -0.6347950861088422 -0.2881016223037812
Ni 3.447291306651627 4.28761669040739 9.458161841786334 0.298558298860731 1.1692127621391863 -0.8325419726774502
Ni 7.2353746557188545 6.072472257463763 11.42029315470264 -0.24829477471948852 -0.2361951632424771 -0.5609370624771113
Ni 0.5800875604256174 9.164520751912265 0.2784003688013522 0.6671393067675027 0.15790275798847642 0.4233169659970709
Ni 4.793719386078012 0.2777081434483493 1.746365122820187 -0.230932372181641 -0.3985238182127911 -0.12637923345889848
Ni 6.299323101905352 5.509824251585105 0.36725224342541635 -1.2051693827394534 0.8828216947686087 1.0434066275749387
Ni 8.037894581633495 -0.44777841154885395 11.570635452677433 -2.0731745813205196 1.2778164167822186 -1.3035359330355099
Ni 0.19456147255066822 5.219786353025622 5.774444359078117 -1.259336098589844 -1.9397862635336398 0.5248994521272637
Ni 8.158848520111784 8.861371290784142 2.517637181917509 -0.08986905434800652 -0.06078473538754048 0.08468673881611867
P 8.631036697833977 1.5560321065761624 3.8066051278262014 0.15476704057297216 0.22292158606202256 -0.3538784115892744
P 1.709235602676702 3.24509816269282 1.5844341580533565 -0.24114916481364276 0.2829653295184804 -1.2454927649488485
P 4.660441121707044 1.0660360923218168 8.145964079848506 0.275968329375357 0.1673819011235053 -0.2180370042762116
P 8.358625661858149 1.5851055714022821 12.353323348445976 0.9841223879923245 0.25624565413544903 -0.2463494780676596
P 6.475474094675371 7.543727117866282 1.5969367432853045 -0.5986659444864528 1.4490128065558077 -1.8136695397075087
P 1.689780903213223 3.0594822324163826 5.999666437983228 0.14478421832864743 0.398481652120946 0.19486725102796762
P 6.835105525129558 3.973056821826499 6.136182326292815 -0.9067972317475997 1.305444205801816 -0.597084458931946
P 2.522197725419646 8.525185035357802 10.238400255161965 -1.3754800274739796 2.4011424436916196 -0.5240579300625748
