# total energy = -381174.43265683204 ev
CRYSTAL
PRIMVEC
9.19220247862527 0.00000000000000 0.00000000000000
0.00000000000000 9.19220247862527 0.00000000000000
0.00000000000000 0.00000000000000 13.45371748954289
PRIMCOORD
 96 1
Ni 8.576692477024958 0.2759765718173633 11.128780606033143 -0.036896101695400974 0.2367219822802246 0.8433521759190766
Ni 8.376559847545206 0.8875347131250437 0.40235096967183803 0.8166371285217355 1.1555979995692292 -0.30851181052901705
Ni 6.506498202250302 4.585015377031196 8.707016764227562 -0.6408896290423544 0.3344904939809658 -0.03975593974169927
Ni 5.195919952752067 6.853062615103766 9.549246788869514 0.6258913558613091 -0.6483993071558382 -0.15076383295085002
Ni 0.6176488945822204 -0.007751784238484038 2.4502578306380887 0.6785501197076056 1.0143284792620595 -0.6777659332434134
Ni 3.198776110022037 6.147882812121075 8.443633509624384 -0.628850181379317 -1.156969683105775 -1.4480255029418738
Ni 7.066689397627623 0.23309035177153464 8.951121212850218 -0.19368994289041483 0.09171639196939042 -0.45982534533575
Ni 7.617945772324514 1.0503561932818892 2.667158875637634 1.4539770925396185 0.3603552775628697 -0.026766212350250677
Ni 5.152100724168108 6.101793109557622 6.829806343168078 0.11525638407285957 0.7140760805283574 0.5147731623265392
Ni 7.588438802793465 4.125956791865901 12.889683929247623 -0.4706180650758798 -0.2081089465292222 0.8101466357013853
Ni 1.5611760698581922 6.449956965619311 3.511406588694559 -0.49980239994931985 1.0468771026220423 0.2050724736957436
Ni 1.0740904597395742 8.8530376561564 13.199280981145925 -1.148129716216642 0.5209119282344254 -0.7080059630748774
Ni 1.0295910081820012 7.192126190842793 11.176016576229157 -1.5213775334714637 0.1485118036918797 0.46246972493713256
Ni 6.483251122516962 1.2854099994745554 11.979808487540568 0.9881281667176078 -0.6444626911055933 0.8447017479684356
Ni 4.002854818046646 4.0561512072494565 9.4464467131519 -0.4796624346663351 1.2044921541667708 -0.17228268085923235
Ni 8.196282375133077 4.932912659224847 1.9028667770277419 -0.33838083017430753 0.7355679318535461 -1.0744516698062012
Ni 0.12198236357349802 3.2903304453894044 0.876857970100024 0.41192466499972924 -1.7487661541659043 -0.8536116488635557
Ni 4.080721964120639 6.027722343052577 3.134648548794791 0.2676153294249714 -0.40138288492814095 -3.9642867766872247
Ni 8.692799184858817 8.288967351389017 6.953257620676488 2.237885106259449 0.1265088170582273 0.16875461310131581
Ni 3.051140148140984 1.6762992120410147 4.970838766884708 -0.9067098142401159 4.4957564258328375 -1.4805712980883792
Ni 4.776433798686825 2.4347110588100938 10.98537765333248 -0.8491142752138343 -0.31308580305294464 0.7204616723397269
Ni 1.9054975853392018 8.982555787213249 4.384216312881351 0.10378566442909869 -1.4739255106370874 -0.44605785923801244
Ni 1.999533815340022 0.5207355052470641 6.589616853524634 -1.6189197880940118 -0.37038026589903955 0.32778222872285484
Ni 7.369976921835548 3.0533922377157836 10.694763418499152 0.1298270827981829 -1.2743533979342825 0.17077807128924782
P 8.324715826313083 6.731137243184813 3.299052926195639 0.04995422043093977 0.07011141210510506 -0.1645529163151424
Ni 1.9333867272573335 2.610934769987584 10.219417169996765 0.7260448228544593 -0.04269933864073936 -1.0279221587860943
P 1.6067234324832231 5.190965355687508 6.575854288172022 0.15141637893318438 -1.4481859397791381 -0.37668255396798356
Ni 2.159524097174262 7.239760183400394 6.30730409663009 0.095472516577713 1.6523472145145222 0.6240226780836865
P 0.013029946825626852 4.386822302246476 11.602620252571 1.4271838836061743 -0.31729392759702124 -1.5289237212498379
P 4.857334371535037 2.9135604556265875 4.801523914990562 0.9417146124500749 -0.4501214877844248 0.08857913189198938
P 8.8754390532739 3.08603374824686 3.0006501383144437 0.8719988931214917 -1.389459372472207 -0.058843038280137365
Ni 7.453359389317213 6.745807998129223 8.019330641529775 -1.4890189146351 0.40202694627004304 0.09033288135830249
Ni 0.587583039148527 6.051677222366569 8.262156454806085 0.003695189463400088 -0.0529122746179992 0.15142512068393277
Ni 1.7207710869915493 4.594749919315738 2.1206557887739232 0.10217641096044984 -0.12445527696330824 0.3212475129281306
Ni 6.26475247274966 9.15854050112974 0.7652811795823352 0.6925646888191427 0.7752053437395101 -0.5499661652879045
Ni 0.45918543755767105 1.1562779409162443 8.617159309413287 -0.2715270057745517 0.5814943178031727 -0.028392177989447875
Ni 3.58358927683771 1.4314005571356527 7.947608482724163 0.14609188139647744 1.077794361026189 0.3672350354018385
Ni 8.26315564720111 4.7036223639031975 4.20943945435314 -0.7217703638488214 1.7913716475412569 1.846405596487949
Ni 2.018883401278607 3.40663018947253 7.788827894718673 0.16162237293190876 0.33664816375391704 0.7439510137109188
Ni 0.3471710982083069 2.2382736946734827 11.826396145705212 0.22850499368707097 0.4480026416692091 1.339028726625481
Ni 7.496158283440753 2.6116058007588507 5.190753935033547 -0.568220483512402 1.1699061886617852 0.2147524199876689
Ni 7.935462825764233 6.114937958912576 10.149726487909646 0.5294947848074301 -0.5562124033079324 0.4272242714712771
Ni 2.8261609957196665 3.8828873852274173 12.029103511062111 0.25217302672797215 -0.3695266596494926 0.5838065108761171
Ni 6.142817908628362 4.837028796552455 11.016401336250638 -1.2468708762432976 2.441577668888531 -1.2417703217919387
Ni 6.068149648970819 6.805382661534434 12.492731540013663 -0.6442441473368841 -0.4725893298696377 0.3003904669734633
Ni 6.985274061448027 6.856399384555408 1.260083643570522 0.16273591771106166 -0.5473004455302832 -0.5184084450862814
Ni 3.2512911620254275 5.610718083620788 5.073383299377098 -1.6371347684401418 -2.7404766389181323 2.2141268274975867
Ni 9.175362231423144 6.417922140443078 5.652794470639924 0.25748903962424685 -0.7190413949534327 -0.2852158161155539
Ni 4.229341491652727 9.186999559593332 5.258278015027685 1.68546662277631 -2.1055897644264316 2.219225582176733
Ni 3.8717372437815727 5.098795142762951 0.7085818370709902 -1.313015847501487 0.7946459689626251 0.2897129326549591
Ni 4.723119025079321 1.7258084138772238 0.24707077231975044 -1.8648486336844852 -0.2913946912327562 -0.5264642255112223
Ni 3.9490068967030676 8.572638715790319 3.073891768167868 -0.708676763889657 0.13550536412988276 0.07472782783119387
Ni 8.627461010582586 8.520399429857312 4.4570415359684965 0.38203096276409043 0.6303810162015466 -0.06265264183421466
Ni 6.484400147810228 8.752943764809487 6.75624114779207 -1.3057956756039641 0.025745998615852434 0.6517839073573549
Ni 4.094565420853897 3.290771671102018 2.577852952964128 -1.2641551172450423 1.6191373034214567 0.3384031987718107
Ni 5.738131200340375 1.9095697309785336 6.755070980433409 -0.3320129789747508 -0.5091450175064843 -0.6622534394301111
P 3.8104895995493666 5.82061283199212 11.466173039385646 0.8294317091832425 -0.47866433241912404 -0.2607432848954865
Ni 1.9503463405859272 0.30834231627805614 11.047103292086684 -0.9135229805072075 -0.6701505827900007 -1.7469195878754689
P 8.120584588812768 8.15716955415033 13.030422981708382 -1.0966847701727886 1.3403564442979692 -0.005644342769970924
Ni 7.330147109069804 5.053973964123264 6.534457204906265 0.29613991922722543 -1.201673453771053 -0.6342808654765851
P 2.769638143493367 1.321544546897158 2.6057834597928173 -0.13005899630333084 0.5276631309153299 1.414570822827854
P 2.9191768912600673 1.4472938749920965 12.360724160561485 0.8468830718904705 1.618073638043633 1.4248248964556944
P 8.319503847582833 1.0670860015518298 6.440765682493425 -0.32664708667714715 1.0186996117465617 0.33041658102190835
Ni 8.978630716811455 8.115142805023865 9.391058178695113 1.207377703244682 -0.4638846030067882 -0.8364798742792756
Ni 2.4237907224229014 2.7143378541791017 0.8444269610026736 0.5211955209131153 -0.8266909132133118 -0.5652084361589556
Ni 4.598923179180877 0.3029161592331408 9.803697061232729 0.7132844378649974 -0.2630775894556179 -0.40417073208592325
Ni 5.665816144483439 4.886179502497166 4.700365566611968 0.1204852365719667 0.3551163977614336 0.4752275388234331
Ni 6.704314396738831 2.470413572722429 0.8719153228985146 0.6019713547106019 0.9942119110178426 0.36618036888507904
Ni 1.113800773874818 3.7904414062324765 4.704805400345145 1.5203694039219235 0.8113478550983381 -0.07066805593952345
Ni 1.7750878106547798 5.154821616062559 10.273043559263803 -0.03995571445733119 -0.18353537095491615 -0.20319839660148228
Ni 6.6478191211195705 3.3943585993404586 3.146447659726273 -0.7787766060305362 0.5291829099939661 -1.1610325403212391
Ni 1.225954834699843 5.446425851088563 13.364330651151471 1.6536080835048168 -1.180183402218077 -0.035756845884635194
Ni 2.7843916282588914 7.372716198134691 12.774035912310836 1.2627433244991801 -1.0402251445231634 -0.16298814293118383
Ni 3.000049887501242 7.5599889365322195 10.238319095681096 1.0229100502834836 0.42853939073827485 -0.38569401343797444
Ni 4.123943699552101 8.29574200451811 7.624557723472079 -0.2092451170161945 -0.3375225959390703 0.23724905842828814
Ni 4.718173620217108 7.656176141882031 1.1075813297674324 -0.7413135760880717 -1.9315301941724348 -0.9789364729160108
Ni 6.221659428151044 8.090902967437144 3.0060579109546666 0.4190178244010848 0.4357441360168302 0.6532406944085395
Ni 9.049805939577473 3.7756787292646057 9.34201869839879 1.4513653659483843 0.9237785967969445 -0.1873046081893613
Ni 6.6404837436473665 8.252832803966415 10.816197007592587 -0.13179089139277303 -0.2735738610012514 0.5023655326908057
Ni 0.3801904082558089 1.538544867682042 4.585430864577241 0.031976810016912674 0.22880941230136725 -0.12115680871769459
Ni 0.23266842968384768 7.142047072461125 1.3710280105667978 0.4770679344662816 -0.40131140826025724 -0.14379151539807494
Ni 6.459526048261623 0.6144233507789665 4.662573665106359 -0.16256391090957165 -0.6444200107931161 0.6537718843216612
Ni 8.551579380215356 6.2371115202948735 12.515616446974565 -1.8488396598507384 0.07476022373102609 0.2128724293561366
Ni 9.148521000572469 3.218484191852121 6.74533092282746 -0.12579456460002206 -0.03483921916637226 0.5746816657567134
Ni 5.393120269683406 1.551220914717343 2.8401735889760933 -1.231197688482415 -2.7470195822429724 -0.3542723045935834
Ni 6.858908855795899 7.136733979505067 5.119031776227937 -0.5934910851537327 -1.0909234422089793 0.2986431452650534
Ni 2.9251793993920843 9.183883402997996 1.0138668268487263 0.03844519135007573 0.4721807815773094 -1.0073001116603684
Ni 4.185320034617153 3.763260063894996 6.803410014910957 -0.04392755462088564 0.4492126028169102 -0.25757285758730475
P 5.890372455596834 4.818947734537636 1.429080445263492 0.44773524694043537 -0.45080642966659135 -0.1737124713272234
Ni 4.591128191591366 8.875705627141937 12.090223383681707 -0.4120794454100387 0.3360375267531116 0.4990999745656566
P 2.6055481394127566 6.934496335688054 1.4904025463347013 -0.6247780681924724 -0.6967345039261161 0.7513889580462028
Ni 7.441887520789253 2.452828889634299 8.403164838795586 0.2651681534360595 -0.4626417317386226 -1.111117143548035
P 5.3182773581812866 2.4903514596111656 8.888023178285739 0.2748840951722427 -0.6470101401177953 -0.4223142357641695
P 1.9879792169909474 8.764020368636563 8.50951678149974 0.291860060904949 -0.6895629258783414 0.7446835210015691
P 4.611084462884796 7.113303055724804 4.811224446126424 1.9571062428693264 1.5014540550746593 0.9983837830073451
Ni 5.26226926928637 3.9662055072926603 12.726543479669367 -0.8373350231907193 -1.090762491151083 1.9807187400819437
