# total energy = -340855.4937374754 ev
CRYSTAL
PRIMVEC
9.42007677778991 0.00000000000000 0.00000000000000
0.00000000000000 9.42007677778991 0.00000000000000
0.00000000000000 0.00000000000000 13.78723456024382
PRIMCOORD
 96 1
Ni 3.4695178457280034 3.820236718947373 8.78445319656586 2.714885420712589 -1.5972543873054363 -0.3871878243746816
Ni 1.3733623927781993 3.387902301757317 12.458655177470114 -0.688903952138104 -0.7663563779893124 2.9832983063381913
Ni 7.277093981677154 0.3221270566150499 12.981108641809799 0.7157786650417608 0.9851963377827936 -0.25337013235986683
Ni 1.268827802353141 4.6874960744022705 8.677643657633308 -1.266109669868252 0.2192773044412159 0.8187752579106607
Ni 2.833888754665443 4.660997398826377 0.5379777506351223 -2.1607350421400073 2.5014491484331822 0.28344664003027314
Ni 4.373977083816816 3.212726556642026 0.8236594727547675 2.198444126655007 -0.6969278508838449 0.8515627367543269
Ni 0.8674797852481698 3.803346521539774 5.2242039987069155 -2.276372206591054 0.08491171034273119 -0.718416359774924
Ni 1.860210793458371 1.9143573939596987 7.802678679490503 1.9849536040988975 -1.2427293432710984 -0.31812362258716825
Ni 6.139016843025897 7.879225280223583 5.363551424346433 -1.0074852310879812 -0.14270548142274778 -0.9595673243607796
Ni 4.978180799223073 5.9310498111421435 4.720059395316151 0.5893881187289527 -2.1306865594940594 -1.4668611475911384
Ni 7.9443651101586354 5.773951193090535 11.873303861434648 2.203531568480244 0.42548157774855755 -0.4092185789224759
Ni 3.940889060495913 7.477129309033747 5.914061644937534 -1.1090417490762448 0.8398189659548375 0.08530097536134987
Ni 5.396319160923306 6.838909696896401 8.270603088217454 -3.7309288257832263 0.6765456876830671 -0.7107644996566211
Ni 0.3993462508199099 5.585530820225615 13.653043650233556 0.5543673796793936 0.6875322686015579 -0.9256827557981928
Ni 4.933312974207794 4.416471049519927 6.638883789616444 -0.6901103137413793 0.023070765776534462 1.0479482241990339
Ni 8.137222339118914 1.0369620360449148 7.09482774487826 0.6317740398943313 1.996195495561304 1.0235947350553338
Ni 5.276495786118698 6.057259997905677 1.0386237375634315 0.8781569423030875 -1.0221726578968267 -0.28505203684418007
Ni 3.167726850553849 1.3980524136400607 10.043917442743231 0.6198893726416034 -0.8473672106157406 -0.6335478439653024
Ni 8.38194651003471 3.576171953396068 12.990042642490984 0.22868625645994164 -1.5093406569115877 -0.7509032766590359
Ni 4.213666219632474 7.708759573426083 0.14116361641485706 -0.4756607697061098 1.3465319769810618 -1.3485999152536838
Ni 4.456223772922086 8.481187017390573 9.924355004061429 0.4004878839176974 2.0757713955134185 -1.3988256441784555
Ni 7.457714531087811 7.052971518363376 8.984795618420772 2.8559407681264233 0.09813669367343744 1.0770577399704806
Ni 2.440468674056978 2.0752805631253533 1.3870648362523175 -2.075931061019735 -0.7468635593720234 -0.722415453631988
Ni 2.969104534692593 6.315539659100076 3.155428940506096 0.6075249375389796 -0.1279064687367023 0.1699334639007654
P 6.493767509045297 0.7509534372660149 10.464965666116194 0.0694480674894933 -0.49992607001137773 0.32878238785259506
P 0.9036905598353487 0.4481281176772735 6.100134534704867 -0.7952290951596046 -0.4700861038318098 -1.103791813531215
P 4.785869934707658 4.604957362921296 2.4572298164146695 -1.8527346240297706 -1.0442070119890468 1.2083200125532931
P 4.257262334301949 8.827478454591219 4.069660566096662 0.23450312025203485 -0.05349128704992078 0.8602355819379767
P 2.209045651350624 8.933557937584512 8.442916072043191 0.21049004516688907 0.04205219197504371 1.048586372003665
P 0.4823154598031293 7.386112528580749 11.672962381587398 0.4369798081961442 0.6364776160175877 1.705671122748643
P 6.3157845810926005 3.857738044033627 5.066629666785211 -1.1781463171833904 1.0813393980649701 -2.5665793052736117
P 6.681396595472827 8.293397789660236 7.380802431381271 0.6967776984592258 1.7987663973434311 -0.4296187398453827
Ni 4.0183220904404005 6.334973277199283 10.01193157252711 -1.212034999511035 -2.4191633057490725 1.0967727019009048
Ni 6.71840807657403 0.047663703760720016 3.639539866915967 -0.9588404734970842 0.7696820999284357 0.3488544760121218
Ni 7.634849652143303 2.1378487121388923 4.765654450247698 0.04395840785882107 -0.8512632032360371 -0.5155496354812477
Ni 3.114503417562808 8.215446655500791 11.707499208556436 -1.3109461094566521 -1.2819528075480955 0.8083039260656917
Ni 4.060750115607064 3.179332384968886 4.490253799768127 1.6631396771443356 1.1058497245015084 0.909623131232169
Ni 5.921064529908426 2.4797974940105343 2.4846526015085133 0.8896533729784615 0.10675965945575808 0.7288948907087447
Ni 0.458405421286694 0.30313900814070643 13.442622688386233 -0.20847198629559582 2.034002024886116 -2.8335616291002745
Ni 0.8159312418829356 7.23255585934412 9.565196684184238 1.1716008027553888 -0.4015363797868698 0.09751037294334819
Ni 6.282098387043759 7.29369215670905 2.8974290555877737 0.6562319158263795 -0.2485804242807074 0.005058388359513869
Ni 7.9073630491340685 0.5881048044360472 1.740004021534694 0.24800115473846968 1.4485600352891053 -0.6832508676173845
Ni 2.4503314942944328 8.720937387842781 2.716595612445152 0.5942120224801573 -0.01334094008328025 0.2680956114954996
Ni 1.2690633042690305 5.435412478960974 11.181364378267567 0.5701763216871922 0.4455541801287165 0.6882339226542727
Ni 5.2639105637335595 1.096534600688338 0.46857816204545943 0.161416941789322 -0.538058615217041 -0.38823297780974425
Ni 5.694822549351643 2.2067094723449996 8.763125201055237 -2.163931180479802 -0.08413703696023575 0.20604512202165803
Ni 5.797303563070144 5.159554954764577 11.836257526049893 -1.5780060805987857 -0.11710500724582414 0.24732341194515473
Ni 6.392642986362318 7.45153496081487 10.948249509797462 -1.3409462553631681 -0.6866755770282175 0.8375720789021899
Ni 6.188029501760832 2.4391216030980893 11.934312987764997 -0.15897156557262299 0.1881553862254308 0.04677453715137751
Ni 0.05656096614302763 0.045060936586308595 3.7445991556096274 -0.9336943132487597 -0.5904754382558605 -1.0380705600740057
Ni 4.486226717006416 9.111484345077393 7.609932607434525 -0.6287946455510333 -0.10876743391440623 0.1476142315782748
Ni 5.937106920418823 1.073257591321814 6.29492005335245 -0.1188459011963308 -0.03253113985848591 -0.6297009594153865
Ni 1.2706835574503508 0.17375990759696297 10.990328050120947 -0.43694972628915707 0.06307995917962039 0.09823002471819212
Ni 9.445699244031223 6.125517873207108 7.448526188337464 -3.163952241980254 -0.13878300643989003 -0.25856607473850957
Ni 9.268545282822458 8.564017751247249 8.116338029217829 -0.09427721071803118 0.11580865703190377 -1.9433606111484598
Ni 0.03420995030978118 5.530649453746712 3.136665089855679 -1.4787018489798083 -0.008879818988133094 1.5375500294662683
P 7.152927951543542 2.4731846002123556 0.6196535830962763 -0.6257296334724644 -0.6794872868098943 -0.041624874629637994
P 9.227209986545523 1.7874501215251322 11.847122642441375 0.31601660354649447 -2.297738845192288 0.601321636941745
P 1.4154136148794392 5.88207483271375 1.7309183576196747 1.1799558595883035 0.4546252891920493 -2.054925919522977
P 2.2419028786555355 5.438803706549783 5.051739351647345 0.30681668221478126 1.5720056400409765 -0.448874245640885
P 4.1205864423962835 1.832798370448826 7.334436814180935 -0.7579869229786945 0.7550214125924674 -0.5035109591491587
P 8.395492580236679 5.073841677457413 9.200703774908321 0.3941524286179728 -0.42190234503773144 0.3799550540716682
P 3.374676514160959 5.661089254919623 7.8111718205851455 0.9436807350375103 2.156317886908919 0.3829668443147985
P 8.481592080685902 7.501809909818973 3.7700503186636443 -1.601935080610557 -0.43419607480342 0.053685919559230126
Ni 2.4314348205634544 3.827819880639017 3.0998523723714864 -0.7125650432004695 0.9887711996182453 -0.8433403488445346
Ni 7.744913827553448 4.933115152598447 0.7455708054764432 -1.3774739179755566 1.354726854087028 1.3051261603407653
Ni 8.301489635490201 8.638643598354333 10.864381625503208 0.6082343049011782 0.9439789830042195 -0.36758907630714754
Ni 6.207416019476861 4.841928810766009 8.956670095609914 0.22356230496981497 -1.4381897477983747 0.8253210294489786
Ni 8.459671562354902 8.132823163330098 0.5767507860671797 0.07332940482177049 -1.755525327266609 0.09251214839780841
Ni 7.743773998280543 2.4086476551819804 9.437775075565371 -0.5374572341876163 0.47617370478678633 -0.3414964929851538
Ni 3.1299052428619856 1.192864304363804 5.337107385215026 0.1536838348111224 -0.8478174107792819 1.302614192552189
Ni 3.754701245793626 1.3990980421466104 3.0109249649162613 1.2839207299077435 -0.8909445809860591 0.35471247745479556
Ni 1.8427742316059077 7.957543797371816 0.07068448704275639 -0.5096394406443997 -1.6014761386962677 0.5153897128646155
Ni 1.893727426127773 6.996761921078856 6.915317822502937 1.3901872517771672 0.6437571803981365 1.1480261007592423
Ni 9.148910309550562 3.488094236853372 10.787063520493676 -0.11105494439700228 2.6895459135065356 -1.3904006533395536
Ni 0.08409773416416222 1.1696909158402713 9.040455083229775 1.1716344842068016 -0.13815102928284595 1.4502196823797153
Ni 6.993587355252664 6.056534652004737 6.890680554070236 -0.8864148114365057 0.0036728208658969004 0.05927472650091726
Ni 3.650477517897542 3.5490232925323193 12.518946493960835 1.1181449969290935 -0.6081186052589205 -2.7632982647983377
Ni 2.0342655494540276 3.405564945449034 10.358376556976918 0.2693238274756458 -1.4714102004144014 0.6361860529190979
Ni 0.9219815226386592 7.557595603654892 4.910613415539031 0.5441773265202693 -0.6881737588402987 -0.2848430061571675
Ni 0.5174674177764688 3.5968113413046288 1.3898362227985057 -0.5627216651813598 0.5172689321651994 0.5758926553456791
Ni 5.19680193778167 9.17945019800312 11.981257939678423 -0.12447481734733401 1.3547062852617378 1.008606746286934
Ni 2.3107259585551008 4.099777493108282 6.7395862928661465 2.1037043744782613 -0.7534149873372961 0.3039499021899475
Ni 8.307688045916414 5.301807532038508 5.449694257148179 1.057759810972817 -0.7393343408745138 -2.6196417323162304
Ni 1.2012858528760149 1.859777469933134 4.090617410587841 0.7817274611287439 0.39841171811495907 -0.5666935053449144
Ni 6.769521412398701 4.968402759675339 2.9335098331173812 1.233696800755185 -0.6838111109962288 1.6050828822109195
Ni 7.0937604501954485 3.432035360795021 6.841529420208756 2.2373837411429984 -0.7290226745358606 2.8143714293250697
Ni 8.146623575601227 8.784946808581564 5.653951662852841 1.595768546788529 -0.612678456715461 -0.2588992897082122
P 0.789882845970223 -0.017825611017512646 1.6019113501030369 -0.40408331457843955 0.11885490005739532 1.973545362261956
P 4.776666519834694 3.7622749874086345 10.514158248314871 0.49566832317628823 -0.8905136640962277 0.020695066455506297
P 3.6439682449423545 5.82383991895258 12.353582700669165 -0.3106057169435683 1.0733543229769644 0.30415893287696005
P 0.09158198505113246 2.9803992065786566 7.463002020103364 -1.3219020942475235 0.7975310038199039 -0.3975131175600896
P 5.1987330534919645 8.80098919909196 1.7502069065386934 -0.21837227612844326 0.2365396910660894 0.44048216492244785
P 2.770190196455634 1.4338958052384518 13.151684563503933 0.36379181404824446 0.08226013165249704 -0.9168744134779436
P 8.880438125436463 3.4486429559035527 3.6419806087722466 0.5413935931275451 0.09606901251113131 -1.6668091555761229
P 6.905255296640808 6.846068955139444 13.527937496451713 -0.06094260112164344 -0.4084223082734256 -0.5739108490289601
