# total energy = -340893.61526855436 ev
CRYSTAL
PRIMVEC
9.01099510287242 0.00000000000000 0.00000000000000

0.00000000000000 9.01099510287242 0.00000000000000

0.00000000000000 0.00000000000000 13.18850217840061

PRIMCOORD
 96 1
Ni 6.227814123533832 2.0779264674380227 11.38865433496743 1.140841410085345 0.5764189601627943 0.22274649393673895
Ni 4.5297822000475145 0.3108622113119469 5.959897413942025 -0.18368063828352882 0.6521047810318834 -0.47857820046322086
Ni 2.6608477428059376 1.695734119726557 4.656648901671142 0.3416152779512052 0.1080801780393945 1.2632092083920052
Ni 3.427872659803808 4.283881153772742 5.011472153855092 -0.5474667959048185 -0.04510203454496104 -0.3178839957725364
Ni 4.856854290510171 4.520266589183571 2.3404843382222644 0.9959240086129427 1.3882422122356544 0.07377060612424714
Ni 7.098861968385267 6.251431941786101 2.501818997341792 1.2259837483816434 -1.694925454196365 1.1209855517016825
Ni 4.894853656999992 4.489728326666616 11.33281409920723 0.7333092177263564 -0.41000122272477135 1.1435598374577725
Ni 5.624708219060581 7.9607456311830775 12.427776162200841 -0.4815740498667513 0.637316052758483 -0.486184294945253
Ni 1.9796976094571042 6.419568100034515 0.42455934354385605 -0.7299253888557881 1.0087221888188758 -0.3369119589382649
Ni 2.647925975780468 1.5734188717462807 0.35227674495842914 0.1797483931086582 -1.27245283847746 0.6638416098528374
Ni 0.5886018067018445 9.25005683727663 4.6139971583924435 -0.7280034892427268 -0.8828175810035506 0.5493760971123893
Ni 8.695565251563774 2.458262550151409 1.3493154227062434 -0.20695426409948872 -0.15230700906825384 0.2138391641447801
Ni 7.010175754253702 0.6474751434249278 4.790697366418407 -0.784902773532932 -0.35004026879010686 0.34854440097087075
Ni 0.7808955418111929 7.486208605314704 2.674548960910697 0.6575971716050222 0.2536616954583567 -0.6744990895666836
Ni 7.80304420530251 3.9335516848632706 3.8544324442679248 -0.22342603650226683 -0.04117210336293554 -1.3991812277456612
Ni 7.543347325474047 4.010514594322497 12.70112109526276 0.2178256595963539 -1.0006877485501735 -0.6667215025037937
Ni 8.01309951292504 8.546730644897337 7.10625548989461 0.14885581729485978 0.48738037213588326 -0.4525956603565302
Ni 6.863647962342159 0.7204488853373098 0.436267329524464 0.377969133989891 0.17057443991887397 -0.5251048832698505
Ni 1.7247134800849309 6.494737821461615 9.20475676252737 1.08756223904623 -0.2557404323642563 -0.03000425967157413
Ni 9.111107292274724 4.909929051863038 1.3654451040002387 -0.5405394726573659 0.3439619238065108 0.8467876839631867
Ni 6.24486292633173 1.8902094167584065 6.912516391165398 0.43509621802018617 0.3140571658272785 0.34320833346993795
Ni 3.459735538605801 4.027527353139851 0.1948366379368153 -0.06086803912996614 0.6949499012218676 0.5618886277571034
Ni 6.019488926977473 5.468430530411552 4.588055404494519 -0.2853022051817732 1.2161827031308217 0.7070651964281629
Ni 5.289823595814745 2.847961056811421 9.110722522782403 0.24834208301765615 0.34292422657061583 0.44753804332796465
P 0.2305967721352628 5.474963501885377 12.374441884188048 -0.002763678788066208 1.3517523448397364 -0.004281915204805528
P 3.96322489184714 6.031635748421219 12.704549778912126 -0.12742824354870314 0.7222064229449756 -0.2945504632529185
P 2.3787134850880616 8.446240027137204 1.4328122047388083 0.3987613881448939 -0.4618768285481401 -1.563244606018895
P 6.296694170355788 7.858948419128179 6.0733314251159545 -0.8699906044422113 -0.12476406645297866 -1.5415923178564417
P 4.625118528589678 0.9967962819786472 12.650345038769164 0.6661013524212915 -0.531678165611994 -0.1702949610052422
P 3.91298859396221 5.962043832983495 8.294248868874517 -0.7601823879681165 0.12782496476648952 -0.0419082101980117
P 4.902359815948538 1.1574893582444692 3.810276765900977 -0.009083964579139195 -0.21901993701477118 1.5003150563742098
P 0.08494124455291557 5.85015430637593 3.709741093165163 0.5409955863581779 -2.4147412654219766 -0.6246338293051242
Ni 1.5331577454772463 1.095953272458606 2.5362941636338014 -0.3483826785820258 1.0240631900513202 -0.2726297519204272
Ni 2.075376355814447 6.390462585744232 4.828138952309291 -0.6854866989264388 -0.5589827669642179 -1.8186991317116161
Ni 5.828699126956374 5.407894665085819 9.312876088769904 0.018590875628309918 1.1713956287231182 -0.9207346677642982
Ni 8.592398368248158 2.2247966771647447 10.133781350085828 -1.107614272601099 0.10440504318065245 0.016403638169004007
Ni 2.3041565113302296 5.19874045697692 7.026662270955096 -0.07187261777058589 -0.4918018982423466 0.16957222390660473
Ni 0.4489385908851436 -0.33757891079159347 9.022439100133433 0.7108418898617758 1.0128860903885781 0.3839037543067711
Ni 1.4097161231049313 0.9308267865857195 11.286034419056586 -0.4486397610325757 0.7749664882558266 0.5789201293180933
Ni 4.150788755609439 6.967409571336773 1.6514513863281872 0.2641250568835258 0.10839590950760042 -0.26552168012073624
Ni 5.365876394765205 7.615597484476983 8.06629862601079 -0.010995579779555257 0.38261486029201847 0.43949537552914625
Ni 5.44572282266805 3.158236652339994 4.579245354549749 -0.5178569434581856 -1.5908068319078796 -0.19060898997224593
Ni 1.0432930168820085 7.3204062948065936 6.741869769672007 -0.9997971184151039 -0.2879437565696783 0.5628849302321015
Ni 4.978340526937906 4.504172951870121 7.024050884564592 0.04649145869331993 -0.16780716158638195 -0.23739509708784926
Ni 8.133630583868328 6.75819228626192 9.269854894690617 -0.6754974489242109 0.169214840567186 0.3831630194860046
Ni 4.819449649699346 0.47769628076316434 10.359396844109739 -0.7532931170474509 -1.2515279153993348 0.2846409174486904
Ni 8.086503079305423 7.237171732732495 4.902113815781316 -0.3626008790639368 0.7455618098414644 0.12026206481756707
Ni 7.042363028880602 6.019840355787789 7.0003249343706875 0.3489904873693538 -0.25351797079164085 -0.058711397798279524
Ni 2.3260712515017365 5.272639628089801 2.376120120687831 0.8098833547376697 -0.06079270580734047 1.3620305868372928
Ni 2.2663463757382716 5.3057730572060136 11.412221691646938 -0.2754620791628998 -0.06435625478888271 0.792124745202668
Ni 1.2241346782726203 3.4692691714600175 3.559919782531299 -0.29746352313465546 0.1828817965313173 0.813786803557134
Ni 3.779535755993454 2.611647709361683 2.6283631053395387 -1.134723470113065 -0.4667482977078284 -0.20365476741261054
Ni 1.1798816811582002 3.246562426666108 8.308585362136387 -0.5718778777593313 -0.19267949934802944 -1.5982391198162087
Ni 3.4857142375837835 2.593580664113381 7.1605656586806665 -0.6485363469543347 0.4521457173033052 -0.9044032775941263
Ni 4.077060793404148 7.006679488140813 5.93080361394542 0.7699988598379061 -1.2473048784569227 0.39202304097979584
Ni 0.8062741085130974 7.465708591379597 11.380464241488038 -0.478644277814466 -0.7398138516140936 0.08524621086401449
P 0.25003619194282506 5.537436731165416 7.8800377521452 -0.4926699026695967 -0.2970701443509787 0.5045663969968666
P 8.358932495261493 1.617563736919065 7.9784107860483 0.4469783141697528 -0.6835023215065583 -0.33169236241053845
P 1.5917021808778544 2.9719883938675964 10.363735638267872 1.431674058167044 0.041431784782225416 1.5921047247836968
P 4.083359479004429 6.076934020971451 3.761215501781822 -0.6844320324096793 -0.09215630772028645 -0.13500605589596104
P 6.9686711106558565 4.048991543554542 10.418560334876211 0.10425463364571723 -1.1358046189923858 0.3782180167759035
P 6.218920271334293 7.585762079580659 10.186364111104254 0.10788914507451094 0.025507914463117363 0.3187931378503671
P 2.35859193294868 8.468055646362211 5.443132161566361 1.4989929951286765 0.6484278464009283 0.7346731879534186
P 6.865423128384013 4.080692224444081 1.590863257230664 0.48812599205265617 0.3120059397252046 0.7813119708578803
Ni 5.4847584535985465 2.7517416507458994 0.5195334300815395 -0.5690807746301683 0.19154332886105724 0.03821584894808902
Ni 1.3537398213181715 0.7212427540088187 7.002119023502327 -1.0367150744873757 2.497455968113389 -0.5698351362976894
Ni 6.863476753434569 0.3796188075005356 9.053035934118773 -0.9122281729551839 1.1126855164764193 -1.0558993607253107
Ni 2.8140346601232125 1.496501017262736 9.256811479230807 -0.5263770651140548 -0.4934546033544211 0.03918515483989381
Ni 6.575097876087231 1.9588461667116819 2.679376151005218 0.10344422192927992 1.1440686587733908 -0.5917463345484841
Ni 4.026130648893722 6.78725274557652 10.58451132680407 0.931589093980299 -0.13766200546156937 -1.6171855790117247
Ni 8.264244958369144 7.237225798703312 0.20325831399121091 -0.33204331799205394 -0.1497662449242711 0.6376232995862567
Ni 7.699742157059848 3.8274652391234887 8.128482602346953 -0.2891724867704568 -0.06171907427635177 0.07115065200289683
Ni 3.077182751088883 8.21854119103778 12.154417712646218 0.14870797886308584 0.778308665255182 2.2170136621270786
Ni 9.256995303531589 4.665001193062987 10.194633501340846 -1.280272591632195 0.48555694577389924 0.1287410488228557
Ni 8.412097366565725 2.3595561094282655 5.780771446025367 1.167050978601177 0.08950087237531038 0.634430503680572
Ni 3.467881478209026 2.488701691721865 11.583540533377494 0.12228526589518293 0.550983036588193 -1.754155957722908
Ni 1.008898048446712 3.4304858483933374 12.67192186662306 0.193542361568957 -0.7006394954074773 -1.4700799116387522
Ni 2.949578048963592 8.416143303381928 7.908050232725448 1.142967198179096 -0.9303950736721978 0.4989611349949471
Ni 5.5023929710803055 7.899993501974072 3.7082110261910173 0.9780669258268639 -0.38996950088487675 0.5639804772891254
Ni 3.3044941143974467 8.646455328070884 3.3181214423420893 -1.7525647019763884 -0.8500961795111295 2.7547100089086944
Ni 3.2645844169387286 4.170558878938504 9.650409944585816 0.40338423162888587 -0.00962621023585439 -1.852147898288365
Ni 7.0937166901624344 6.127422626720198 11.590609659061931 0.986668551452946 -0.399183563283977 -2.2316370684672084
Ni 0.5826527477128524 9.134625989580494 0.3945022681671793 -0.1311622566698386 0.059543406781271645 -0.39250152327811116
Ni 4.7404412443441775 0.43448405358698816 1.7988063875932427 1.0120306843668183 0.1275835381796448 -2.7493628856641683
Ni 5.945022063171004 5.851325735743649 0.3042760749668177 -0.07629440098736538 -1.0837343806597077 1.5641226377484738
Ni 7.932009567693384 8.925453759481323 10.96836259872013 0.028886086906730897 -0.2583467596388519 2.1285029215791798
Ni -0.05250166206219843 4.905558719221928 5.767780294337348 0.14224319707434857 0.41152280157562027 0.1525540920820534
Ni 8.075419555287763 9.060645719511387 2.5344874591089717 -0.23518060593503368 -0.8571317462016722 -0.31975344488110735
P 8.67428128105181 1.833629378297514 3.5685712389616704 -0.8344641294008273 0.5382013114424924 0.14042208470520978
P 1.8846496327593028 3.269243101424201 1.487583736475843 -0.20023417176683578 0.05660026499254769 0.6857906033201028
P 4.627497431305664 1.0053657383532784 8.149096154820777 0.6589549711844974 -0.6364593611851427 -0.27395824092386367
P 8.434687931372455 1.6509134299185497 12.380284613434432 -0.28836156083338726 -0.027020494452901854 -0.12774500345817352
P 6.4643887898425225 7.884341403422302 1.4788403678950814 -1.233153012436573 0.6298624246939152 -0.7483956797458337
P 1.4486706550792008 3.3250211613179617 5.970118585725142 2.6286272236442922 -1.0827833296003482 -0.5391423351995231
P 6.841282672413837 3.8727905446591295 5.972320872936456 0.017870709632833735 1.2747233796791917 0.7682872764634382
P 2.4459625417903452 8.422919571724433 10.138423814780054 -0.3044432968865982 0.007525361842767684 -0.8854779014445332
