# total energy = -340865.9631255775 ev
CRYSTAL
PRIMVEC
9.28542824221061 0.00000000000000 0.00000000000000
0.00000000000000 9.28542824221061 0.00000000000000
0.00000000000000 0.00000000000000 13.59016281794446
PRIMCOORD
 96 1
Ni 0.4615145576243509 2.4943166738283225 12.724876846039667 -1.2168583890416074 -1.0804654801004487 0.12210271757073166
Ni 2.2176852021345113 8.163089053393811 1.695250808329684 0.8454321983765569 -0.48162701459187374 -0.18909049644519046
Ni 8.119215405979967 2.177646436494618 3.251133841817333 -1.4664196891783454 0.7990237863153464 0.34478570525938684
Ni 8.215291729745267 1.1128771195437246 6.912187760443138 -0.7521296928669691 0.302253231213815 0.24587356687250558
Ni 7.6611838124074545 4.820446389856229 12.419831964592126 1.3877788994459905 -0.5721588993348597 1.3312202863246556
Ni 6.913456149911229 8.624416973914878 3.604573445583648 -0.4159127031131998 1.532716612633367 0.4265899803213879
Ni 1.7057424134541082 0.8201957855102668 11.049631492387892 -0.9562788834174949 -1.1766820739330381 1.6886766450731758
Ni 4.981892126911153 7.9952549418583105 8.310860140597653 1.9687764801184027 1.2280048925767302 1.202944864284309
Ni 7.34122653355322 2.8445630188971514 0.3539419454224184 0.7508084029523844 1.519660293670041 0.4009123730496256
Ni 7.1120343136345054 0.5352046429663639 13.333322159631678 0.65766042074279 0.07238401018936566 -0.9104307147351289
Ni 1.3500455221351357 0.7447906816122036 6.512147379052302 -0.8695478604778379 0.21323726889472308 -1.1680200273826657
Ni 4.558848026133426 2.049061829216963 8.329926838502326 0.641910871218017 0.6137094690831366 -0.026973957485682577
Ni 3.0569300432362074 8.633163847113574 3.9720108320962844 -1.674459473032529 1.2661533786219936 0.9831358557093389
Ni 1.0265504952037219 0.7666922206926344 2.455443229405453 -0.23166899323734938 0.8420936209216272 -0.21532166222757756
Ni 0.24261059195633275 6.050598465344262 2.5103888211952268 -1.0550354700631184 -0.5947858927057563 0.39857755426886193
Ni 8.24827357008685 3.809773976573708 6.011988727077276 -0.995052661751583 -0.6388021503857063 0.49299746121234445
Ni 2.474464428712809 4.959495674517038 8.477896633865882 -1.7818881335308538 -0.7684286871373088 -0.06754108027476756
Ni 3.638467114957196 2.093009760055 11.609776795026974 0.9228162328836752 -2.0927956979855575 -0.020317371401113397
Ni 0.342866286875279 9.24134081183569 13.586221005838706 0.00495605845369469 -0.37646812396433227 -0.36704194555442593
Ni 9.05944856227171 0.017127900533243954 4.7909939407066044 -1.0567226279575543 0.8312569353174394 0.704004298114652
Ni 2.298635563648564 5.3668288310779975 1.6811035301921744 1.1071105934918029 -0.3799576251748295 -2.6441577151797238
Ni 8.745731091049667 3.4146511578644323 10.173432504835906 3.251192857566478 0.4801774266295408 1.2938973815044812
Ni 6.346302206199562 3.8852273646974966 2.300039520365807 0.9932395198022442 -1.080951675708248 0.40493100729071546
Ni 2.3504018248828884 2.3474212024871544 9.470195970717128 1.5728787866745493 -0.009554733567970642 -0.4563191319547045
P 5.7508462778704565 2.455912143520669 12.588676330696648 -1.5063484070524833 -0.09846810887092719 1.7310314558903026
P 6.229194387959688 0.6995947892477281 8.71645877920371 -1.4962257167961845 -0.30989892068453084 -0.7639539391954069
P 5.739750191381664 7.00272625493487 4.550298932551643 -0.36333210080300654 0.8870629865434658 1.5722092714113505
P 8.444326097387574 1.20952913984652 1.382065392133422 0.3967235317792587 -0.05802748435737748 -0.5479295944738499
P 4.5405835892100335 4.715994610013195 2.8331140861434436 -1.0802068271224234 0.6575529486306481 -0.01799437969489159
P 2.6485754895925977 4.080927045733303 10.400823351717948 0.13435428124457505 2.102834570278798 1.6243360740135768
P 7.122684699578142 4.515475791832882 10.314064026432023 -2.903059318880781 1.2547209684153358 1.2271255752955705
P 2.2670001103704753 5.882968633225291 6.338560944855875 2.1153280747601184 2.965062757166771 0.8571751978450981
Ni 0.646214720622816 2.1326863940019543 4.488803399833673 2.100027954067938 1.4452677376910785 1.0924077400639898
Ni 6.5875933388336705 5.696990795330711 8.57980977768713 0.3454763035685082 0.03536860930728102 1.0263792397790066
Ni 3.671402528158658 4.2398842880777705 5.71727295576374 1.0739279360922471 -0.31726333146940194 -0.1617090191084441
Ni 1.1652190773155429 6.711953076360364 0.07277918485284945 0.12228603722613132 0.994252791558107 0.1240960938516766
Ni 2.21815875896374 1.2202259529302764 0.11103979102612915 0.33789694855935354 -0.4186208460729822 -0.2946859603895183
Ni 1.4588428822934463 7.867422454250608 5.834039070252328 0.008418048860366147 -1.4312557396827028 -1.475570245329362
Ni 2.2202665511252095 5.643497444483905 3.82874317748413 0.1618584002021148 2.269729761573872 2.991007502056991
Ni 5.913898393973549 8.374778241487109 1.548653399228089 0.09197658760931257 -1.0150686998621936 -1.681251556253698
Ni 7.287891034982823 6.5611205835369795 10.853253046563525 2.248690938625701 2.427096187442904 -0.5461218518411498
Ni 6.9469394033661125 2.9662578385809284 8.83247741673636 0.303529012602445 -0.17417475567562263 -3.1979573952811053
Ni 4.358505631085572 7.113557123830456 2.852330279439306 -0.06178592295854521 -2.1173186228275855 0.01576831857785026
Ni 4.888267156144213 3.993588309738674 9.866159120662585 -0.11244256877314827 0.052856995900031546 -0.5762536382295238
Ni 0.24256509335901466 8.444771797932729 7.76426413453133 -0.12045823998877318 -0.7028997521965636 1.0572910988665145
Ni 2.3410235425785535 2.561905304415703 7.13248454031477 0.9834490160743837 1.327211936496211 -0.015549517698824832
Ni 5.1282954705670445 2.0012790166049745 5.853065840816498 -0.3424588568984231 -0.44593136096247715 0.7529313628326582
Ni 6.145402685470263 8.796921655746498 10.900288382219573 -1.01646892264383 -0.7880968549901975 -0.2984580258374408
Ni 1.2278307184820094 4.6071601081427875 12.517844300100453 0.7372802865589625 -1.297617510668546 -0.33652166547838175
Ni 4.369007450180823 5.908317851731068 7.816653447986071 1.5617320260291103 -2.565199137096634 -1.557324640990034
Ni 8.901224868741147 8.309362401057365 11.514850007251056 -0.02147771025780172 0.2663596026409993 -0.23869324707398246
Ni 0.273388071684995 1.7217504913676462 8.89224678838465 0.10369850403193108 -1.0887225779029184 -1.7692341922122692
Ni 4.7232372438719885 9.370296836234308 13.045985517968887 -1.1787384422414344 0.2350458801293823 -0.2953673027272591
Ni 6.2374677043291555 1.4088594232397478 1.9703288279150641 -0.5898460322019777 -0.4820386482079956 0.38800234985617693
Ni 4.0269229963451725 6.50637369990692 0.43375855617472886 -0.3476920802729044 1.9987686556051194 -0.44971653903652226
Ni 5.110374594480542 4.606240850768403 0.45406207309221297 1.0975064947431357 -1.2297810106405467 0.03407765840999937
P 6.313654641266848 7.859761976130731 12.840121078875104 -1.1935603377456154 -0.9112652948212823 -0.29205906428963246
P 4.226225423454328 0.10640079118529173 2.4815640669800314 1.2035938107222175 1.7674058807542787 -1.8630007818424688
P 2.0887198923078687 0.3404195765909302 8.588806428899675 -0.044325818500568825 -0.7015805191645079 -0.1184851754228024
P 0.9597789822824613 8.178057163368651 3.5533791667156076 0.12723772480445183 -2.1918623596724314 -0.19904323678252817
P 2.30456895215596 3.432321327394283 0.4202974711681996 0.9877530427663761 -0.058711397798279524 0.08737379872997855
P 5.581470785282956 3.8487820597029274 7.362593231979463 -0.7338427216323232 0.9690906904701825 -1.3321060313637185
P 8.809234133306447 4.361922668598439 4.0275674050500445 0.4998651348664552 -0.11232506935867752 -0.9540641351543633
P 4.343435381402467 7.234834099253149 10.578650440892977 0.5775862409980181 1.2135303531096393 -1.3816157080580722
Ni 8.630211081001914 8.172643758830604 1.9089010788216698 0.08204518742821354 1.3901790242470509 1.6896444083030835
Ni 9.13098349976933 6.038870969749832 6.7588909150221586 0.37310254992620906 -0.25799580405733635 0.5598908806007842
Ni 6.183825786633964 3.7234566376617297 4.757304550749587 0.27702196745085195 0.7674328988829429 -0.5277834585432781
Ni 8.089251329746215 7.148089630652063 13.660016016517393 -0.19092780676424537 -0.8895477006385325 -1.5665669855239086
Ni 8.039537148105216 0.04830558220974467 9.482794439460221 0.2681897138712026 -1.0172145425606027 -0.0587921304375439
Ni 2.6523546587984037 3.6055409871837587 3.1129221027642973 0.4494925959511743 -1.418810057720182 1.0813219145634732
Ni 6.048267822910214 8.71566487510765 6.143664453344152 0.6002402309521082 0.1074361166974924 0.18075472288598546
Ni 1.2758920939347205 4.283813648059759 5.855402983050164 -1.7040994073861493 -2.668651843666346 -1.3450988440789606
Ni 3.8810953492267743 4.14585075847777 12.115276425201458 -0.9903400867672622 1.2017068781121498 1.9321868539198273
Ni 6.558780655674907 5.794608500148012 6.299271513257525 -0.9736675112075877 -0.2173672319026966 -0.9005954738122618
Ni 0.09287285109698908 6.318483063839376 9.194492113282925 -0.21220805629926032 -0.1292976926572741 1.027927815213049
Ni 3.630555930280668 0.35185829537381175 6.963734885576094 0.413557572617462 -0.07768176825319524 -0.13098022256601957
Ni 2.8732828477756747 6.3629045515066425 11.823196786903962 -0.26721218044928174 0.585363828060908 0.19596742607068185
Ni 2.799315128135741 7.418694859558237 8.044126006634723 -2.232944217314406 0.8975255766376864 -0.9901030310557916
Ni 6.260077721567824 1.9034756032271918 10.66516555942187 -0.2819592568514693 -0.7331097001210406 0.44888941514953656
Ni 0.8224317165784688 3.1775106115570932 1.9217985383471365 -2.1344429412126984 0.037555332545954674 -0.2383600321042798
Ni 7.990890790686987 7.240739631476474 5.045755443775268 0.7475446445994481 -0.6434337356204467 0.4445488787926537
Ni 1.8560827785922154 7.87395939557957 10.06038984698498 -0.4703337010662416 -0.41971870712285136 0.7827337909060713
Ni 3.9007990274939024 7.670692090704126 5.775574301241421 1.003756103062852 -2.259446377369992 0.6659280600682208
Ni 6.996337880454293 6.058073234903658 3.0692025934556524 0.2897548416364881 0.3213580703640659 0.19576508025188866
Ni 4.139555238277434 2.1159354818464884 0.8537356800760972 1.220320122337963 1.0714614768296256 0.39374902253196703
Ni 4.530109626398855 2.3214312894477147 3.4998477456139025 0.9049118417994286 -0.8574868155482459 -0.42442151191515937
Ni 3.8682536022694527 0.3188848119174512 9.978400446075032 0.44243723176628963 -0.9080447310014556 -0.29405604011500325
Ni 5.5337622560951605 5.578016606057994 11.696957678745191 -1.537547972583739 1.1109669911234157 0.5428516657303103
P 8.894771496264402 1.409648684621796 10.990745164944693 -0.3214969099347753 -0.7730980675885201 1.044045546710518
P 7.660756682718346 5.356549862255325 1.1503038942804407 0.08469805167002832 -1.481532633560384 -0.7144828290484728
P 7.622380008694765 7.399566877828603 7.707850516570946 -0.13315537584046744 -0.08571055209494272 -0.4116025057736201
P 0.4278845944066869 6.243206098848046 11.65520853726326 -1.4135020152437074 2.0566403311109225 -2.2402376656520255
P -0.06414930804725642 3.650008901991145 7.904772159934724 0.7541819474103075 0.3966266011900782 0.1287983844233524
P 2.6101802447129687 8.427435903811746 13.087978866207854 0.08916457208181418 -0.45082519871966875 -0.4975686255227946
P 2.824701488353614 1.9985955279060115 4.818269885527381 -0.14131580016407277 0.16491029965456114 1.2516086480385993
P 7.094846986361907 1.1568714775218825 5.043866787715166 -0.8357787344471929 0.37872529542962513 -0.4179441317209318
