# total energy = -340859.3168019401 ev
CRYSTAL
PRIMVEC
9.36999408301108 0.00000000000000 0.00000000000000
0.00000000000000 9.36999408301108 0.00000000000000
0.00000000000000 0.00000000000000 13.71393347400501
PRIMCOORD
 96 1
Ni 3.8776596788710997 1.1536618015785076 10.343665954333279 -0.41960017926711607 -0.2448055306193074 -1.3929357610565818
Ni 7.459705409267907 3.9802611158673122 4.614340807502178 -1.0137001016494414 2.0181311192921303 -0.13186159672970837
Ni 0.1065265275859579 3.039494953557384 10.699692940710136 0.1097562801902368 -0.7134890976766357 0.14849329174911846
Ni 5.3472683164382175 4.242405444894073 11.793680996932107 0.2736998450561544 -0.10166373299008945 0.029109772881762766
Ni 7.034476330385522 8.7431228911682 3.915204308816317 -0.4683567798455288 0.58403611038842 1.1117689181994206
Ni 9.380582339727683 7.6184987017587575 0.7674109617610129 0.5999381263306571 -2.2056941233492013 -0.9201389431618282
Ni 3.262557036583122 2.7506742509116076 5.648701031339419 -0.09760421820873513 -0.8264083489758863 -0.6186256754378313
Ni 2.6484101337082597 4.468597105998052 0.49737053858295427 -0.44442520873059593 -0.4709613073479115 -0.6142182903987551
Ni 7.236034276616165 1.8343918835670767 4.967570850596537 -0.4963290966887387 -0.6926009413737169 0.46193519258990123
Ni 5.916898376649244 4.924578505996561 8.000818828989958 -1.678635973007722 -0.8257403763745844 1.6343474355029917
Ni 2.5945420367866863 1.568274676979914 7.893040470172705 -0.004702547681991901 -0.19913193984159253 0.3832635496196109
Ni 7.399531306218622 2.8729058258536706 13.656691653925442 0.2831260234660608 0.8653518201186193 0.16198155604354036
Ni 8.310566476785263 1.4945703022390735 9.176555400013159 0.6661167790402592 0.31220442888925587 -0.7561244158486591
Ni 0.05077225082261885 5.39037965996512 10.906430619760092 -0.3485618844723674 0.6851701961272845 1.147567673065585
Ni 5.911613699894372 5.089509144718692 2.659337420998212 1.0712177362499358 2.2160541264272866 1.7819200152100538
Ni 0.757103031090736 2.6059640597728397 12.984571659649733 -0.5729335727173552 -0.20026631055635188 1.2059880219860066
Ni 4.740355049121445 8.422640977964415 6.152057122246865 -0.04042982588027231 -0.1617781817834827 0.4753992885146071
Ni 9.145273674222121 7.954160005641435 5.573013965816076 0.5621192557106707 -1.15887075678323 -0.6236493539046678
Ni 6.802906292584208 0.9833902661360262 12.422094653046278 0.24907690430115165 0.05714636730400481 0.06188131088582892
Ni 1.9112539463688967 1.4239392856109958 11.345893656901925 -0.43030008218312343 0.21307220407176852 -0.471276267485169
Ni 5.345844077312791 3.7970402483765415 5.882166618976746 0.31159353477813434 0.34690120894049287 -0.48315784941410334
Ni 9.26662446970504 9.530033747955041 10.878989654610585 0.028431515867815553 -0.40725297055567283 1.1044471877270268
Ni 3.325008048234241 5.154630604729987 2.5144360819768217 0.7718122588975611 0.5902268125801642 0.9114141616943207
Ni 2.1785236622483453 4.688389061031856 4.961769887158695 -0.4890171364083578 1.310862034383278 -1.801579184201878
P 1.0188088443867735 6.57199215438013 3.9974747322970603 1.3814164475630724 -1.240688915802302 0.3275315461646295
P 1.1921537379420182 2.323280703358344 6.103880359830452 -0.7243792622265782 0.8761404260936911 -0.6115602839506177
P 7.647789303772472 8.770155324568572 6.674708842305571 -1.4493267382518007 1.0677940552803675 0.07709144296736402
P 7.251166817323824 5.405024960971977 11.772109396178438 0.8114794955801959 0.6155462651815592 1.544575825964798
P 7.331514517985242 2.2771897016611415 10.919555170700786 0.35209458021597423 1.046704324489604 -0.10998793658506863
P 1.46192524228521 5.968339645061044 12.943155348081975 -1.1758212685946396 -0.9353241355426989 -0.1035375529740346
P 6.686690253948225 8.359712096606739 13.239472983124159 2.6814510523135437 1.4701706715803455 1.2544517739143493
P 3.606135985603863 3.496019813222175 7.8546694067349705 1.6510971441575049 1.5168914726756522 0.15569418037293187
Ni 7.412152688468293 4.301811208415168 9.974527535007674 -1.184445777038857 -0.8359018902886184 -0.0027112282835759756
Ni 8.648017449568972 0.27143655232074687 13.76028724731118 -1.0601745910618967 0.5353466156025167 -2.3927048544472274
Ni 2.591843478443772 8.232664344622112 8.196351868920274 -0.02627847408055474 0.006491264151298497 0.19368428646345998
Ni 6.884903112232963 2.7095212361821677 7.663702365000842 0.386634780084689 0.009570417297254484 -0.3659713381980665
Ni 0.025639115255957624 2.9750668731203103 4.271259405175912 1.1723322816047745 -0.28879016373037364 0.003990352106315709
Ni 8.676783331904895 7.3444544800392855 11.917051963174513 -0.4202434692780698 0.5823232414623712 1.4709453449628407
Ni 0.46026348736903644 0.2044232904711385 1.8031354567605045 3.9109291870016905 1.5636603534000748 1.1568598970007882
Ni 6.214854823685094 2.825774754795136 2.6051807282538553 0.6841718367697572 -0.5133140612825094 0.6218572950012516
Ni 7.291111102795501 6.122747780244659 14.005080220992774 0.6885367986066723 -1.2034452009594951 -2.3263140857268194
Ni 3.712719670154723 3.8074596819783486 10.047760599037929 0.3290433548234656 -0.41710183832529457 -0.15680926781398155
Ni 3.987916401166482 6.054337452252938 6.487500105263605 0.5607342024376859 -0.656160953379128 -0.7615517575118175
Ni 3.5401243761391767 5.790150464480499 8.689779513924416 0.14970685244124543 0.7840501957246497 1.1524797656552217
Ni 2.2557417848315224 4.1064468283812845 11.837538192001007 -0.3220604957477292 -0.4335016198395566 0.6814770635464134
Ni 3.182181225938966 7.235743806794532 13.042801488892927 -1.5598643766927522 0.4787437795068077 1.1716925911382465
Ni 6.427450623137795 6.355048677597179 6.233915265980774 0.9673096873103598 0.8691840493805161 -0.14513388835858232
Ni 7.828592712747715 6.343298704812408 8.467037884701899 0.5068868175999272 0.9537201215513833 0.5914460296992459
Ni 2.2120026516901232 2.2732449340834786 3.4264541649398934 0.6151163767329922 0.39107507524422974 2.377175648463377
Ni 1.619238075685156 0.10535996330230234 6.161313739562715 0.5347084677978856 0.3940794092881923 -0.614842040025683
Ni 9.3715871452513 8.658146413349145 8.039327631343113 0.1803189209001475 -0.6873664324476549 1.0814448132945826
Ni 4.863879683269487 6.893298627077584 1.4712174655791959 -2.14175747259624 0.14978552819798074 -0.3803556319441965
Ni 9.182210191540758 4.739717889512701 13.870958123352244 1.1963057617012365 0.21710137983581967 -0.35375628418911337
Ni 9.096118684406402 7.97081985541123 3.1529983788590843 1.0840501121279138 0.9670520627735991 -1.236296186051245
Ni 5.5124238350222585 2.46980867338088 9.684875713872257 1.3613055357458101 2.588648883479142 -1.0193850678493603
Ni 6.337583008322208 0.45033316746688246 9.752485844355348 -0.27604032026387293 -2.653968273512242 0.7628735616470346
P 4.458814832004989 0.19285884357244212 8.405818090294733 0.13772936836439506 -1.2730480488592977 0.33306584571929737
P 3.9811700053091967 7.181707049976525 11.104542282106971 1.6503486960272546 0.10689824191615138 -1.4045396638440972
P 1.3709613381428145 -0.44330473478278576 12.573620577999753 -1.5799632043251564 0.6979341806611722 0.8014524503614971
P 4.037268160861372 2.507494790239215 12.250643435328199 -0.8103273842536238 0.032931717731014255 -0.6617297057161572
P 7.63536469140197 4.551427855134721 6.718922097155829 0.7374746619579556 -0.07879428459108366 -0.2556255040529468
P 3.0797390788449395 0.2320741434917616 4.1314188000469105 0.39682406191286496 -0.23044874767700313 0.4972858041750532
P 8.06567230716581 4.96218029290668 2.0432940312879126 0.25527943356743776 -0.15436929091392124 0.41856042514869213
P 8.146038747815721 1.1121808370504498 2.48512955097289 -2.0033177084283817 0.9853110089837869 1.0885390011372027
Ni 0.3760712780683911 6.236255890543483 7.005324404286654 -0.4315444961131858 -0.5053001898390974 1.003068332967208
Ni 6.2846987607964895 1.1374985615037618 1.1614482667971242 1.1435994324464565 -3.1261367137943776 -0.34898585938366344
Ni 4.617992294259934 2.541807709168907 0.6789479090829362 -1.4575804936201608 0.30307778399763935 -0.15374194174256747
Ni 8.093623000002314 6.24709697388637 3.991111569204446 -1.201771412801498 -1.8652859783322198 0.4837787708275539
Ni 1.0567948010609876 4.637613062211539 2.56974434701404 -0.6813063422965041 1.8871493540642146 1.2503855742647754
Ni 2.875135884484273 0.8964723255091527 13.514464511261925 -0.2828357459191516 0.17429636885515143 0.18683075387673628
Ni 1.9010312826462605 7.554220541229624 10.93960508438887 -0.3214046073312852 -0.0789979159614575 0.3462969996975907
Ni 5.433219273658881 6.86937703176696 12.771443644523847 -0.42341929590289007 -1.865948037396251 -1.3897645624174517
Ni 2.3527399652684893 7.836650907799472 1.7810560023186894 0.16588191953921108 -0.13487055875936127 0.08824694536355125
Ni 9.142294016051821 0.5921592743766606 4.5169996852758 0.639641101347234 0.7912713960634373 -0.6836581303581323
Ni 4.931933951479852 9.097318043669919 2.7696794102412343 -0.5521629158289071 -0.38387135840693887 -0.9875820644061507
Ni 4.749284653638101 9.428744110153302 12.037131250438216 -0.26204117777130354 -1.8836469973379106 0.9866922056020297
Ni 8.733537387054307 1.4084225751392399 6.89344573598725 0.2419541772134414 -0.12907786333698415 -0.8256403604616104
Ni 5.35692878050608 4.729251605939663 0.5379472986662509 -0.7507533813447328 -0.491958735535185 -1.3598927145586839
Ni 6.955946408607874 7.355501703255589 1.9663317095476578 1.0000799397628455 2.0795257203495283 1.7728234522254243
Ni 5.174129562756391 0.9111326185068033 4.766840274857837 -1.118295920684661 0.6994714432413051 -0.14223882619897438
Ni 9.666273464295218 2.7887164275512992 1.6467005918214301 -3.669824245162422 -0.4510637970930361 0.07936892614763105
Ni 1.67402443204286 4.6398056408651565 9.658216206242884 -0.29464533695956996 0.054984583765995625 -2.220434000662537
Ni 3.6904846738084207 7.26984121585656 3.823829061926512 -0.501182053905666 0.22922130302780522 0.2791665245976805
Ni 5.957030062005845 6.373451346296774 10.241429010113245 -0.8866562380233504 0.27664890038214934 0.4597217298783502
Ni 8.95358233193276 3.9038581827835577 8.374153131739027 1.0790138352555867 0.022373225488877598 -1.1166848674437995
Ni 2.1651433104647295 7.216703978486193 5.820796904661641 -0.3352397134421646 -0.13714907038089283 -0.8716391957892279
Ni 1.7411510708228473 4.395979650589774 7.192669943244614 0.655693012603774 -1.1225786072204151 0.4771903189767588
Ni 4.860178535542227 1.7335238955064167 7.0960690505636865 0.7911780650186825 0.031168455183004384 -0.3304669746438696
P 1.0978353758594726 6.778169507774162 9.145383303154802 -0.5418378797538154 -1.3176667160099373 -2.0093669999462556
P 4.548776146763037 3.7739057325826013 3.5871401962684826 -0.9460582341307512 -1.362604714173208 2.008926055754095
P 1.1005620441851254 0.948262157706912 9.252695036258594 -0.41954824298325805 0.1337644701793761 0.29016390414944865
P 2.076793634717032 1.985220680948632 1.4845331644025124 2.3172769152252157 -0.8180404366271653 -2.9748761437127667
P 4.323840064888054 8.781221287773368 0.4629451797223073 0.26201083875400033 0.4177042477959839 1.8969709681403262
P 5.477248876621912 7.1525569978765065 8.27290284791312 -0.8168147917501803 -0.35642097550547003 -1.6411505744677544
P 5.727127883180359 6.85444126093847 4.325868668642362 0.27693300728147147 0.6026881782719685 -1.24762318102829
P 7.873409395227429 8.057033172470788 10.035582417516105 -0.7499175157069987 0.03184979752074515 -0.9731969993290722
