# total energy = -381164.79245225043 ev
CRYSTAL
PRIMVEC
9.31001285265717 0.00000000000000 0.00000000000000
0.00000000000000 9.31001285265717 0.00000000000000
0.00000000000000 0.00000000000000 13.62614488038210
PRIMCOORD
 96 1
Ni 1.7693028134851518 3.9450249374415174 13.692641204701038 -1.0279830939310166 0.027294831160211055 -0.7310150223755411
Ni 6.861600661298403 6.962958773569904 1.7620782433443707 1.539972779975148 0.1164041245240576 1.546433705109143
Ni 3.097478587781523 5.7789392416187075 7.507038730268737 -0.10645112707640375 -0.6992863238136925 0.8796396974962012
Ni 5.2569454289211315 1.0083395853577157 13.34728626994295 -1.8140192097374435 0.23541509054334295 0.8154297384771957
Ni 8.711127857390657 7.6254686135030605 6.0310543955006075 -0.22716673449162167 -0.6193903215179978 -1.1643328083390658
Ni 6.9524477688161115 6.218762878977966 4.183921734769447 -0.1872598709943549 -0.6264891373463082 1.3489210460385286
Ni 2.78331219680129 6.6040112197325085 13.863921239118575 0.41624900340669607 -0.11277501241190255 -2.0922125717885773
Ni 6.938538609292495 7.738920432749914 7.747976282461175 -0.7421977784652379 -1.2483168646612048 -1.1657841960736115
Ni 1.7660070688590739 8.506475150129507 6.731602155825761 1.0121121883370312 0.004032261087844668 -0.44375106548170673
Ni 7.74837940602702 7.299050245325317 11.794818315818446 0.17294962501926986 -0.3027525394477366 1.7584003348215584
Ni 6.505734721786522 1.1940743460646546 11.50759324065444 0.4571922785882772 0.05072812248248683 -1.287550356240531
Ni 7.922681470686435 3.9909605419191134 3.341880395836571 1.024236739514707 0.9977044975521333 -1.363444179355368
Ni 3.0084376227990086 -0.25692563763414433 8.8062910869667 -1.0891169851278597 1.3658504748040154 -1.1105453302049646
Ni 3.4627197104528977 8.238616764149592 10.892317752021869 -3.6315263780234877 -0.38132648049789813 0.9019617580321692
Ni 0.789842888664425 3.449266741569613 10.71042244070418 0.08372334646158484 1.1810064123400048 -0.3993141753245704
Ni 4.000019184634294 1.1347788728344543 11.236200773713906 0.35327420234637225 0.9544724263363755 -0.6122742792985069
Ni 6.061377108063138 0.7880386081318433 2.2757982474284004 0.24232261629645366 -0.9257935703444443 -2.3510902642302347
Ni 7.068720522022577 4.338140239238535 12.50326934623704 -1.7850184516297192 0.2875568055439048 1.55878399914438
Ni 3.6649238842771585 3.2321199967711847 3.296696109413564 0.0272781189896627 -1.132759918628791 0.2626811253481476
Ni 4.889832993623085 7.94655234419283 3.092739791129903 -1.061948652243184 -0.46780245000395565 -0.3372857973379159
Ni 8.625969167857505 1.660748061112074 3.64540264887614 0.04617932676953982 -0.005890397342505985 -0.5840597645375039
Ni 8.293750661538388 1.785669816458726 10.088361814547637 1.0233332538638311 0.18652582104180782 -0.13826107249814898
Ni 0.4193071615612694 3.596178747782921 7.810438091135809 0.7878466866526045 -0.8487504641165124 0.9425414792267445
Ni 4.216123207969104 6.559611767411135 9.608353367782897 -0.08882107269946639 -0.7469450633422362 -0.8104587676251654
P 6.797510531338174 -0.17596576399466862 5.9289533441862785 0.36026143229748275 -0.07103675213285185 0.5245518389798579
Ni 5.364122299360142 3.009210353883654 1.4515660324933344 -0.3657867329910861 -0.29249743737863176 -0.4599839824008014
P 1.4916875338099536 1.9797463488746079 4.550995999013914 1.2220425043457082 -0.6670570314663415 -0.557233388373279
Ni 7.487354569639028 8.55092115251622 9.944960614262278 0.4781470264630733 -0.5930750806622367 1.5064821044168701
P 5.5366554615366335 1.9400484531525837 9.110032125313367 1.238125268840184 0.12206492235426074 2.4619837433487084
P 2.03133313128449 4.777340105722236 9.215320925102183 -0.6026904922648135 0.12691479424739432 0.26649047179190877
P 4.874862492609714 8.290203546559473 0.9493932376175661 0.5740445463933468 -0.11001159073415248 -0.16883354596836728
Ni -0.38651264052917955 2.909872514447913 12.648196457664246 0.8140948217158559 -1.086128591923497 0.8828980565324988
Ni -0.09825601591723766 6.781078358273124 10.178416639953259 -0.3615690953653128 -0.6496588905945521 0.26418316381497087
Ni 3.203212406194992 9.413354213071974 0.21366573091229663 -0.4998738766172036 -0.3005583600098953 -0.7837594039571082
Ni 6.192666912348314 2.5646944699381153 3.6610862968905216 -0.46148010733035366 1.371006565083658 0.40759158484201413
Ni 1.7383563300470635 1.3192195417249388 11.96427358767465 0.05250552609788377 0.5566443486390285 0.654891085527769
Ni 4.9260117044054 7.141459654122993 5.31972843304661 0.6321769317597047 0.11300975413052795 -0.7351367578533985
Ni 3.0992847303167186 4.882785313730596 1.757513543937122 0.4455073860511811 0.13596841980923036 0.33400378415253446
Ni 4.216253548152056 3.755892021964752 6.932423792709421 0.6614288866462866 0.5804039129524714 -0.787743585415837
Ni 9.077281361342697 9.087084805103318 2.4152073141101935 -0.42736336815230275 -0.9292445050075221 -0.9614182615265895
Ni 1.891031234349474 7.1640364358129345 9.388400585045767 1.1528001251091178 -1.2414635891847976 -0.4927097547685966
Ni 9.237441516151794 3.1558802997571935 5.4112961355757845 -1.8102797972996694 0.5808016626115222 0.1885608491939656
Ni 8.957107712660733 6.856508084150197 3.25228827808043 0.8459214793081495 -0.12496461249955897 0.33530784767593863
Ni 9.38942747948717 8.342674780210817 8.168260995394586 -1.2125134818093506 0.6882318657717438 1.180524844717896
Ni 7.087899148942691 8.571468351357334 3.7969249735607304 1.5861312808090813 -0.3222497289403998 0.492938582949951
Ni 6.415613795288117 2.517930274297466 6.072682256931631 0.8374124133958739 0.23839011401126686 -0.9184960082417666
Ni 7.279545767947821 1.6214132558997023 0.09632791221085135 1.9900413030344501 0.9714779597554366 1.256776565392784
Ni 7.31945779397041 0.5634243018515587 8.245765923184521 -0.2700383370441672 3.031453011666547 -2.353953701820959
Ni 1.0914314519897672 0.7043201776203142 0.7358420198660062 -1.6423183695236105 -1.0999017344481896 -1.1639039483317635
Ni 5.829390202434291 6.204397528814015 11.147821750660526 0.6171164378821565 -0.2067462618537407 0.5619364502759032
Ni 3.297522838574004 9.205107840766571 4.89462020234266 -0.3996180797182344 -0.5278148260018457 1.1553411463634167
Ni 4.864695958339439 1.4147495858158612 7.300016624681777 -0.8098131636213666 -2.257837638121976 -0.5101413199814827
Ni 6.957335525676821 8.51280595901576 13.641679124168022 -0.14323075779859848 0.7044264732537352 0.06812369225111493
Ni 5.6239833841146325 5.333268916052734 8.036196598022151 -2.7371871695335828 -0.1320089209408501 -2.4654974129289218
Ni 1.004103529411768 9.185333373010103 10.25860657551201 -0.5857952591713719 0.5321985568918383 -0.29653972576880544
Ni 3.754188289573305 5.149964068756548 4.931165727639853 1.8883256337605026 -1.8348106925614982 1.1005874476613045
P 5.923281684225243 4.657827467968103 5.580233770705408 -0.221800842194018 0.08475513016020886 0.04915203624461858
Ni 4.03754784731147 3.646508678428621 9.127896178388278 -1.3729001825619453 -0.05857152978630558 0.9257151516980252
P 6.6671237983205955 4.775692233409196 1.236865959129181 1.6088086678019389 -0.975713595103339 0.4077923879989106
Ni 7.412306554297744 3.332267807343843 8.12704184353725 -1.0927617809692984 -1.3059198598866542 1.5577848684559044
P 3.9857003845356838 5.661400326634993 12.099103989929594 -0.2918253510122716 0.5229636685571315 0.10696174816423513
P 9.003862598288315 7.653873463373579 0.4804683614103002 0.15825577045252098 0.19450086882748438 -0.12647359294491767
P 9.194531665921303 2.703813995213493 1.5034684243462222 -1.2534423588132284 0.05616626277892263 -0.4992154170975983
Ni 1.8727742987230929 2.3042096143080677 2.019122118144479 0.2752653897710614 2.586207878137817 0.7580095486865138
Ni 8.94857974069043 0.2561259075116017 12.325025422044627 -1.7209581308147006 1.0382302255803215 -0.1308436969881553
Ni 1.9270237448704277 6.314581533473996 5.590003698418984 -1.6982684025266688 3.7924874632223133 -1.7199829113856249
Ni 4.402332779342512 7.652644541648602 7.387551229549887 -0.3840127690808096 0.4605910198571809 0.26932922679228455
Ni 2.9999468908809774 0.5827891290330341 2.7026781736191947 1.1649601575104194 -1.309898642028744 0.26224455203136127
Ni 7.3201188048982395 5.819661238778214 9.041451776050433 3.1855379385708296 0.92655693087303 3.5390530532834146
Ni 2.125569083558958 2.0892879626328957 9.54048151051444 0.35587410186306456 -0.7431442015389071 0.4017752352705532
Ni 1.787345618810969 4.249080654229884 5.942839228677227 1.263336735108805 -2.557248000570357 1.3458465208782628
Ni 0.5822677683012252 6.033996359630101 7.70096630247553 0.6260875310325152 -0.03952814000160934 0.14238229375537415
Ni 7.881102952324671 5.171786739387979 6.999845976346693 -0.13305124616243538 0.5719742941278795 -3.3872124423286176
Ni 5.366729103019187 4.842128486662566 3.044421754308201 0.19062647347374265 0.8116908402600538 0.06453983155459853
Ni 2.447118314902129 1.7156957582395103 7.326833186322893 -0.7166286717468818 -0.09590394768817677 -1.115802721949162
Ni 5.979327962894705 4.149994185146979 10.169383134273362 0.5188876987155452 -1.370942287504626 0.4069482948310605
Ni 1.05794333498411 7.840623015504932 12.282648104561629 0.653735631767087 -0.8444559505062167 0.7155130700852
Ni 3.001995093755941 3.542925473033864 11.518834150432765 0.23839654176917008 -0.8779129446130817 -0.506394965565173
Ni 1.9960947318220459 7.767734923195428 1.9647814338690774 -0.6042940893065076 0.22835844080687764 1.4604087070975753
Ni 5.245177572403157 6.058425833920577 0.4955952706432142 -2.5230759826743387 0.4480054698826865 -2.0963803300130217
Ni 5.176721046314029 8.857006452153415 9.125483954002355 1.691986426172699 1.1291241216484167 1.4890975903918355
Ni 5.368106984953253 8.370772399650091 11.640651947422539 2.686895877478199 0.8855090117927846 1.2831571122688417
Ni 1.908580608982686 5.624709565133938 11.58879145062846 -0.550225332486562 0.5724167809819367 -0.6794672322052363
Ni 3.779269464778543 2.286511279465768 5.411977628532363 -1.290563689145558 -0.8719011912013629 -2.0772824328413066
Ni 8.831971827013517 0.9194978546548568 6.035237384372067 0.004235378237586254 -0.7149196594755752 0.4040054101526527
Ni 1.096700919386265 8.530858074354644 4.348129883260517 -0.12703743586818766 0.5798945774162206 -0.038715671402643
Ni 9.015332534388111 5.366310152431126 12.836455162913925 1.371905936969476 1.0411193742026585 -1.6075868795796957
Ni 0.40656268467246093 5.664658831208799 1.289191025575357 0.5450067644001001 0.37534172366937296 0.9943396948449585
P 2.940474527402485 6.277118040888296 3.471819317225577 -0.8507147869317349 1.6102397438215104 -1.6739264833471947
Ni 5.370890678860591 0.6682075679307832 4.388627509105084 -0.5795816741614922 -0.3900101243148251 2.3741615442274013
P 3.4735844957032733 2.626391926539864 0.18995964463720497 -0.7182181277211889 -1.9892437468338193 0.5739059639329536
Ni 1.37794710415799 4.464486426584593 3.456571377822779 -0.5301113353455064 0.11008461006393298 0.07748559308198913
P 9.036410403974102 5.30920253227191 4.908968794483088 0.04564170909851494 0.9642588162991781 0.23935839146180715
P 0.3030102023208284 1.2914198427038401 8.149224811674411 0.28159004643750857 0.03092959969932093 0.6421682386444618
P 8.073382652218426 3.9430232846318938 10.75181848280981 -0.1576055384630318 0.23292472002132145 -1.2094525834958398
Ni 4.843199138165388 3.825502989674315 12.815853034995712 1.4583585094367657 0.2963440648182316 -0.03363568577657433
