# total energy = -340865.4032787018 ev
CRYSTAL
PRIMVEC
9.36522487359135 0.00000000000000 0.00000000000000

0.00000000000000 9.36522487359135 0.00000000000000

0.00000000000000 0.00000000000000 13.70695325394127

PRIMCOORD
 96 1
Ni 8.788813917780384 2.3546890992118987 11.382172024218082 0.5700454525362827 -1.0628693642852405 2.131385128222981
Ni 7.5126334685426 7.604693628051858 2.244609310718739 1.3772571739790604 -0.03929468383456458 0.7029871697040474
Ni 5.303620440659948 7.894650352219315 4.406059171551578 -0.320728407199867 0.9989406839520797 -0.4704956805654026
Ni 1.3280076031263126 3.8714528076188897 0.7536851939803124 1.2120008038389902 -0.9451691466575786 0.36063012849081116
Ni 1.002416198701203 0.09524808202166293 12.310817410867369 -1.928031436990557 -0.9599918134927079 0.7329104396260409
Ni 1.1481578266038537 1.1506021502693589 1.2147239712386346 1.4100263979902814 0.18485640375918486 -0.2915080768821689
Ni 5.958212191327195 1.9464495861734428 0.08494165216002131 -0.48204507596589885 0.9222590748286246 0.023021914816470028
Ni 5.3281479643379495 8.003071559405344 6.758925798022836 -0.21113076407468157 0.30505367677708756 0.9133324617629561
Ni 9.366067642280036 4.556275503850315 2.6539398724431384 0.032688491371956604 1.2246172070514199 0.20535375238158823
Ni 1.096555438109855 7.256335362205893 1.8451618706962845 -1.1569228890282397 -1.4260137745574732 -1.822829866050538
Ni 3.273492571148234 6.530979973161034 5.774054411409592 -0.5308911509343244 0.11458686880966072 0.5991953346273616
Ni 7.855044816658313 3.514263134812882 1.3883908263665856 -1.429072615988455 -1.198060282498498 0.13762035359035654
Ni 0.7715793289522693 6.134634295583082 4.747348565739599 0.20573633253198761 0.0870675803434694 -0.1732139344242501
Ni 3.4665660450488285 2.317406139394365 1.1183389509296449 0.2744210394928951 -0.9047922855024289 0.8595223579210358
Ni 2.15081752114913 0.7254050247361513 4.076982030466311 1.1988092448493808 0.4857502927316279 -0.1263532653169695
Ni 6.8055964591518725 6.297542380492902 13.239971329221772 0.011888523907469849 0.20484878772071172 -2.3680911696636056
Ni 4.665033859128138 3.783082546669821 10.849793647258666 -0.5788473670986288 0.1729406261582054 -0.5515895598239403
Ni 4.613600044680036 4.645020373790265 4.866667148470386 0.207488539336404 2.365211277012649 -0.6163967861073125
Ni 5.2901064213138795 2.9918896274774456 6.164853066355057 1.4572709327995417 -0.04598263737770145 -0.5238285876605882
Ni 0.5762385341343617 8.547031909840356 3.5277443758722486 -2.70242636901363 0.8075917304900155 0.8677660859870668
Ni 6.071128706403808 1.0741819161294264 11.712605249850345 -0.48474627694714584 1.192453734944998 -2.6708961596158325
Ni 2.8798440783046333 8.913287120225709 0.8948556556717251 0.2751941702134938 -0.029190505521027147 1.7329209596035315
Ni 5.37345692178513 7.41073982302269 1.1060854908378939 0.24115430701996532 2.210273772300084 -0.6826605423315533
Ni 8.234823411614506 3.557989369273586 9.699012621196161 -0.06768171961768989 0.8724503788366136 -2.7033236840169184
P 3.3957274848730377 5.81437170405327 11.824687323399766 0.28230532733697833 -0.5968165499825399 -0.422435334723066
P 5.017981085112407 5.765466500293622 6.909497072340432 -0.17250739527552872 -0.7145442784140275 1.0701692403807634
P 5.873915803153967 2.454166516740619 2.1587489300085796 -0.3207654310853895 1.774714241490234 0.9179941289046836
P 4.282885862304615 8.646809014561784 2.7066848183593275 -0.6958850114416273 1.2886137645080387 -0.8105071043645978
P 1.3595028540347185 6.286987772174801 7.215696842352535 1.705892751841146 -0.2837160916415759 -0.1719756911417748
P 5.505572147644447 9.068749851441748 13.13513981269087 0.09988658648500863 -0.6305339968396431 1.526410725019997
P 7.8388336125778935 4.049270330365814 5.905586183765611 -0.5711749381550356 0.676715380491712 -0.3186514700661802
P 1.4030511492247537 3.142501172261563 9.018654327613573 -0.8114293590685508 0.3912442538322423 -0.9111179706101405
Ni 6.952658583747382 5.285901435391229 10.69177982881472 -0.5266408602984026 0.6723635312809194 0.1057024218358373
Ni 0.29920113753994826 3.421940749010007 4.797844921188019 -0.35352102824985565 0.48954806921116334 1.177611784836159
Ni 1.4498772730850065 9.256091807781848 8.191398737391463 -0.3696935242446601 -0.8890939009305656 0.7175961778664738
Ni 1.8324748006975877 2.968345452400511 3.0718377417890097 0.8455756659329566 -0.2480667178690825 -1.388861848097524
Ni 4.531757345397086 4.175841343160077 2.439823675002224 -0.14391415701886828 0.12188185980917719 0.2035583510440623
Ni 6.999035176818576 0.28037328965821784 8.174484204930662 1.2026386458977998 -3.91546255609567 0.4324019590174747
Ni 3.0655377550848515 4.612494948156933 9.065792313458735 -0.7059043433508424 0.7798623828955472 -0.06102436220217232
Ni 8.909990561105948 6.268847331791339 8.882694676985329 0.9422473450250934 0.8507093876150962 2.5122259273337124
Ni 3.4777106625275684 2.3655246642731607 8.85818682027935 -1.311366227713206 -0.03348913289638103 2.439208654435722
Ni 8.590720683401972 9.2656911631732 6.662744003091399 0.993656809845321 0.5367704925332369 -1.521636443559805
Ni 6.609891357090331 5.48170018970049 1.4818314200072429 1.1890873895759264 -1.8519254978649138 2.5184449116602305
Ni 0.1477036424923953 4.386970970421185 7.3548903050945675 0.7730492166284557 -0.5534381829969048 0.075559836814186
Ni 2.728221089245135 7.432055074603877 3.600802494319015 0.23241332760254166 0.07242771894310752 0.47449014643677634
Ni 8.809773290820235 6.781490370588615 6.695462352355034 -1.3813609117347887 0.9258071971911991 -1.5829870787531448
Ni 5.335490300559237 1.680636411468332 8.01670358058354 -0.01493810936707105 0.1445661887805704 0.6463241697943642
Ni 7.301878450272375 5.134240985432642 7.908116608919046 -0.44866495784355637 0.9549377960085682 -1.8624605930682827
Ni 8.895437001810182 4.216018157432174 13.106752879884308 -0.8146360389313066 0.8070574552531005 -1.3491516739920957
Ni 3.329384232587832 6.622468853959196 1.4446027784933875 -0.32897753458253665 -1.5388772329181237 0.9743851060999025
Ni 2.542461855891512 4.10205273718109 6.545755488283898 0.141440241557079 0.05424899115155173 -0.21756957772148983
Ni 6.6707184919847995 6.335640114865603 5.425472316691576 -0.6962236257279687 -2.858749698330128 1.6104845128424652
Ni 8.734617362024528 6.733596611104347 12.00921034708348 0.9470802476373625 0.7693509418412621 -0.36115386220476514
Ni 1.877765027695224 6.078808190716889 13.51165649985896 -0.8131843940864446 -0.1504576145643409 -1.3651434214346618
Ni 4.860102125905178 5.049242205401511 0.10442600229827248 -1.2158543732571254 -0.40892238783829576 -1.2546024405596006
Ni 3.4587835432632543 3.3366891079100314 12.804597013928777 -0.7201001752352502 0.315467930131876 0.0568414344690763
P 5.881005278306409 6.119518822800992 3.3416180257075614 -0.8594817344910877 -0.5605907348812862 0.1252068104173521
P 0.3127151568860172 1.1985614663270299 5.098808594030067 -0.22286707867500327 -0.46594148553581693 -0.19635951930277795
P 3.774831783645644 0.975744038550403 10.635622194991596 1.085786635203046 0.5874813886245431 -1.2381687204836096
P 6.239983709043879 3.827155294447091 12.233154411400182 0.31985937433135236 0.1235232520673421 1.6429850565733317
P 1.2801606697659063 2.2565321783760366 12.91492404435592 -0.127330027407942 0.4330871580099574 -0.24143738547802288
P 6.064235900971578 0.715442298623644 6.111436633822713 0.12149182345961011 0.10856534520592914 -0.7839123845952047
P 9.184297994679309 5.072617806432549 10.867557605606292 0.24244602924819533 -0.4155818021363423 -0.25042519079893
P 3.2253927767189827 3.080231792752199 4.646095501594097 0.2644006791424156 -1.274887673171198 1.2081901718436483
Ni 8.483854103528104 1.6447956962656944 13.72641702476419 -0.0780167829951108 -0.2236859750318728 -0.2657435663235552
Ni 5.820028299815588 7.606707151377848 11.489634232387456 1.2226482562505072 0.5626321907913471 -1.1592314825567582
Ni 3.480445308161007 1.7111670442252167 6.737693896942119 -2.0145256613290594 0.2196621985844604 -3.0001752845991874
Ni 4.919477650959979 8.889209127336768 9.118496052385927 -0.5127018816198073 -0.7470833886923134 1.2214573212661997
Ni 3.1603700211266355 7.035306692360728 8.260001818414166 -0.23700274674543703 0.30593505094077633 -0.2719065006011575
Ni 4.701998401303421 6.134072382096759 9.895953932927611 0.2152062196956358 0.36093120467099776 0.47836557023178267
Ni 9.147118052334267 1.314221992261854 9.07414047482054 -1.7538589953077794 -0.14833979689038967 -0.6216590629475165
Ni 4.60585500379355 1.4136619488914868 4.077229272400293 0.7528807121003808 -0.3207538611211637 -0.3285885266742341
Ni 0.7937112281335792 1.9962725819607516 7.068689036060702 0.22681037959346745 0.30361797277182545 -0.38241842801049625
Ni 9.035428381702793 1.9267170575787322 2.919731507131274 -0.2529423007938289 -0.0810699679991378 -0.4160327736308319
Ni 1.4131655919785682 8.335115603698396 5.845083085648255 0.37916649673210184 -0.1067671156549258 0.5408490334779847
Ni 6.981924911160039 4.297682917444455 3.8143848739479225 0.2916464022322461 -1.0513410519306667 0.13225548973401738
Ni 5.612766510385337 4.108936177388548 8.683409249493433 -2.1532541603819304 -0.9448840113169921 -0.10709955929368006
Ni 7.559946584091 0.9729532015683319 4.443698009910449 -1.0344471043888057 -0.9411140027515985 0.6964491114752134
Ni 1.5359624191896948 6.461096665911993 10.516632331650309 -0.3196022640152238 0.8431503443209157 -0.4501518268017279
Ni 3.0996271732551155 0.821967047793333 12.645856454042521 1.4400573971347328 1.4613785272100124 0.337070081782684
Ni 1.5210810770269068 1.5256606719404393 10.417092167115614 2.1520169455407197 0.017192966839518778 1.2974215926076558
Ni 6.569695812368691 0.5071915414574646 1.9854932082481216 -0.0419945992642309 -1.0623955099726154 0.29580336182341316
Ni 7.994099674073719 8.444595081283667 13.426426398775957 -0.87006773753705 0.8290928377865849 0.5207250090346
Ni 2.7693906173430687 8.41570336286189 10.710105700648668 -0.08250670044566437 0.8560341422621193 -1.0588108779451506
Ni 3.762703817565839 7.846494366441432 12.70572833601024 -0.23023328923208736 -1.534600459919641 0.9713008107476239
Ni 1.7785872973592087 4.294302071301744 11.255615059260977 0.1533994708014842 -1.8971925972328294 0.6582209212319502
Ni 7.462173637470792 2.542976943253975 7.455403516483076 0.9630827937132057 0.49495124250460565 -0.7622480122478936
Ni 7.966931157010001 9.322968877879061 10.837704078600426 -0.7639236001781037 -0.39732234170552216 0.12220350481465404
P 6.90679707803865 1.779720489556627 9.599897637866118 0.23480188243937625 0.44159108171591044 1.8320297873822513
P 8.763799402414238 6.194346968729676 0.5793974244499743 0.5924040227371411 -0.03292837529690458 0.3086902450884103
P 3.438854344948331 9.166335493566516 7.490616761625986 0.7173974315921064 -1.4378459913057107 0.009905432039170037
P 8.039652127364974 7.565163014289032 4.6451627252068 2.6088204733310105 2.097486161482691 -0.47654522919359216
P 8.714407206966444 9.38489174407186 1.5840846901583996 0.22152573415576043 0.007688112672877082 0.5697855140066769
P 2.03449206425549 5.1178050159576935 3.2838430175663045 0.5357178828990065 1.5015844100049365 -0.8712000513692801
P 6.921640959302351 7.435464016420904 9.171349634909472 -0.5862372318047968 0.2920688344816454 0.6107336742842643
P 0.4587714563410088 8.588463664231908 10.331520235328433 1.8794391299041502 -0.6930601403983225 -0.8231227362460792
