# total energy = -340867.6202543643 ev
CRYSTAL
PRIMVEC
9.24331102953133 0.00000000000000 0.00000000000000
0.00000000000000 9.24331102953133 0.00000000000000
0.00000000000000 0.00000000000000 13.52852001991736
PRIMCOORD
 96 1
Ni 7.268569888615476 2.389552980689769 5.7636368770315585 0.3072758812393869 -1.9438149250770587 0.8146890036564292
Ni 3.9568117884039022 6.485411893609723 1.9087926718290673 -1.322049418458665 0.3329995112577362 -0.8015668644521744
Ni 4.213794315545781 1.1739374461235565 9.072942726885216 -0.3939850498021731 1.4698734520549008 0.9421568421938161
Ni 3.46269212242939 8.689590276003313 10.93150355044798 0.797037352012937 -0.0025371645995569203 -1.43710088560957
Ni 1.592853535347248 5.610070359895031 3.9150052179409855 -1.2151959137375201 -0.6798061036018938 -0.9483961382353087
Ni 7.353959593879006 0.20474857775410932 8.89834305600035 -0.999455418804969 -0.9476132373226971 -0.9424350355558673
Ni 7.053441072821646 0.06176565149512479 11.576557238640307 -0.13598898863452064 0.44420872184441557 -0.7708779200087499
Ni 5.765616794207078 6.43144944510047 3.14335144756946 -1.7039520831750072 1.3772515175521054 1.4946807409065677
Ni 0.6566817731914109 4.147371884064537 7.72575883057939 -0.025534396825678606 -0.3844611694721379 -0.6060699502600079
Ni 0.19114427290383176 8.498919260612958 7.591988712204812 0.4549330502404552 -0.2565762980019904 -2.0601064352826524
Ni 2.40900090663418 8.767372736470147 8.50670582563937 -0.40477005623281903 1.0667666424571176 0.580053214481272
Ni 7.858339334852708 8.891963322879231 5.598642854740527 0.11604237030926466 1.1863049417347828 0.13049042741379463
Ni 0.742268360975196 8.320347739072998 4.157841782219116 1.6798652174291326 0.56994003730667 0.6839766900398155
Ni 4.738000958207108 5.4052201057220115 7.038807987478205 -0.21275364439008523 -0.37942617815139174 -0.11265648455616727
Ni 3.2795728919708704 0.32543201668377286 5.646100785432727 0.4278739892401341 0.9297648962873666 0.13715241281500248
Ni 2.6303319839815753 3.8125606799017744 10.866390896108525 -1.5384707415083245 -0.3566552030034632 -0.2040088083179196
Ni 6.263738813762355 5.4528323997047385 9.059806133561931 -0.873822833704108 -0.32101971318804073 -1.5535803434562534
Ni 5.103370547907998 8.744338405931424 1.0749360413611004 1.0407452786926916 -0.8464254155277616 0.04381519741273745
Ni 3.824327414563008 4.09651518798747 3.4167491703789623 0.5363498600560506 2.226271176169605 -1.2996401975255296
Ni 4.816208610971204 1.8110511303300254 2.6462729978046413 -0.1200571478956126 0.8786703916043964 1.0247252491153513
Ni 2.4746376566965673 3.3951604936509368 13.134271403611951 1.664156034223992 -1.8770361768896124 1.1637231997795248
Ni 5.267402341543699 1.808610896276164 0.49471401085960054 0.3990827760400546 -0.011696976721954048 -2.681662654103717
Ni 2.7117100923535307 8.849296200179898 1.566251286835834 -0.1491214122514206 1.6648643731449264 -0.4804623048598113
Ni 7.522779422514329 8.186458381988972 13.369032087235315 -0.44210401679658695 -0.35131707862000144 1.4485626063922665
P -0.16623170160850084 1.0148693103928688 3.641187848820707 0.669327315557757 0.24085580194294004 0.547993872052882
P 5.167269555538089 8.358716722245646 12.312941307953805 1.228322166706833 0.5232148653359893 1.1324716979644107
P 4.362667079452949 2.4026692387292745 7.183630332588397 -2.0979309623295936 0.26402092720549364 0.0623065713487056
P 1.9400138027522786 8.079272949835271 6.135873322333258 -1.8363572111130115 -0.5259543757543393 0.7509019911074551
P 6.37234771578081 4.251941459258986 12.56051322035994 -2.426064660854596 -0.24769056547658633 2.8688140245446654
P 0.7639328328518644 4.539269775790361 5.5289843401446745 -0.16370522360286646 -3.7681488864769492 0.02981682625111639
P 3.5533505148546665 5.384441143020949 13.362010868343976 -1.0472941355548029 0.7203786257076175 -0.3976409013872055
P 5.088895523179411 8.564186278242941 9.122862151246142 -0.30308369753491027 -1.1063708871123012 0.30809863425099837
Ni 7.3019659705723 2.8320025392359276 1.6034140179477656 -0.47048256793928006 0.45267022234820753 -0.1254443803494549
Ni 1.7397112574978184 6.525795918538969 9.360423558044959 -0.5133731966552191 0.25919290968923103 -1.630043665921315
Ni 7.438498914548009 5.317732168904592 2.3301924386674275 -0.13341171482564765 -1.7256074566612538 1.516273636585995
Ni 7.705436487432345 2.6006239830379743 12.525082685693818 0.8079154323780215 1.0603959630440836 -1.670474263132536
Ni 7.0972636093722405 0.5872534170347288 3.1851949912756172 -1.6604423328178306 -0.13667135941352593 0.17104032381169898
Ni 6.208352895388349 2.820993756061121 8.101770244015928 0.13692075642017065 -0.07938589542849554 -0.11177948126785264
Ni 3.4242769227026923 2.3741258949477437 4.654446974470459 -1.4033669836922347 -3.628500703823286 -1.1903464587940082
Ni 7.267969073412821 7.2886556030057825 10.292078114207909 0.2866551196652418 0.6614306864184997 -0.5857348382470816
Ni 8.524606421354173 1.535960957311198 10.187056541114849 4.1474079429228565 1.6757992748898751 0.6649178736361516
Ni 8.073052201660087 7.176534242879496 3.9249750529807397 -1.555597373886282 -0.4741191362506028 -1.0597920109114973
Ni 2.6378190657377414 6.225397560522138 11.357422371941388 -0.8508747095483669 0.04978375629134652 2.697295475544968
Ni 8.720795693298147 6.382811143617821 8.216275454000133 -0.9808699424932978 -0.5340487227266996 0.8496277245151432
Ni 5.48024805956744 8.030542215244521 5.133369713142117 1.3407495659713295 -1.082187347887562 1.8376314498397448
Ni 3.8202511144957625 7.684149142636728 7.031759038654438 1.956585594479166 -0.5186742971531584 0.46157472392668897
Ni 9.010878516450926 6.894123367699085 12.054939243629576 1.0638306997572453 0.8671001702682937 -1.7961523567593518
Ni 4.3575555285749745 8.91553376544494 3.4854066344140837 -1.125913585130919 -0.16739244264646655 -1.5940320237133967
Ni 0.20699192928771604 8.607777732023285 9.814845977083415 0.4525663497804916 -0.7753449546411679 2.4238180309122646
Ni 5.216083479926128 3.371543834531179 5.381306736325249 1.1255795988302677 1.1824176908652346 0.7959531178098227
Ni 2.9374779588897644 0.873713786681037 12.86389069745086 0.567854358422235 0.4119431769424906 0.8178170077624496
Ni 0.37209594697738696 0.6662227186095768 12.989286376231503 -0.014247253947633529 -0.7648797934437859 -1.259465682189173
Ni 7.257440942400137 5.023341962914315 10.990866865463564 1.7992577351575532 0.5188792140751128 0.0036437674001743698
Ni 1.9250858557939976 1.3563541849605096 10.682078354224425 -0.37831597580634846 0.2766491574924655 -0.8927793202019527
Ni 3.259561124067045 7.668352324462299 13.270138829209335 0.021924053766600952 -1.08711795241996 -1.1012921870378132
Ni 3.1147923901595527 6.978995447557251 4.606528726899917 2.064416375511916 1.1720962543345685 0.7816459571585312
P 7.647748984666627 1.1432126809908465 0.3619051968092724 -0.3397126616118537 -2.693160884551304 2.0325038430740348
P 1.5650681430521438 8.422264484064955 11.872074204218334 -1.0170962718151837 -0.8644231376567629 -0.1287932422170298
P 3.592255610054299 5.380605169034764 9.669116863182754 0.8831608232755823 -0.4920258413276945 -1.5984242392438213
P 6.107360481477401 3.651043066806415 3.160357290797848 -0.4167565391707339 0.17296659430013436 0.2944777010334541
P -0.06453309875166312 4.6329045142964835 1.6130187422105213 1.9751024223364309 -1.7474471782441647 -0.8546213210749928
P 7.4134218123202595 6.787501777504799 6.119720636692643 -1.7626606527598094 -0.10079264323904577 0.11100275100282819
P 2.0632548657830916 7.304609557463983 2.6899975552606494 -0.8490111739770668 -0.6323173139923111 -0.5603495654047574
P 5.440141333962497 1.0064116810016444 4.905833601247914 0.36796934246470175 -0.15930606609390627 -0.8679558334003697
Ni 0.6533190567187033 7.024056587756397 0.8356988223124161 0.691345214589745 -0.5224077960536615 -0.3706024092121747
Ni 4.9165817230578766 3.7564537832845817 10.46117154484321 1.233716341139211 1.1395635718141859 -0.5590236475044824
Ni 6.4612960957062215 1.8939728716072641 10.373385049086627 -3.0629451687375573 1.4094589555225854 0.11627042715967072
Ni 0.30159906409105947 4.7126188267226246 9.975917138266649 0.3064508142349303 -0.2590350439551281 1.613913850238988
Ni 0.8273188367319965 2.176633316179548 5.479604725135058 -0.09663388387566584 0.07085317536713603 -0.18052975135937296
Ni 6.971221823165973 5.047263651290805 4.794994288330987 0.2833581940815249 0.06684765375216875 -0.7336488604539624
Ni 4.8069745434719335 4.144691323929614 1.0490390574644959 0.8445749925825842 -0.10048873884538179 0.06680471632937528
Ni 7.681533285677475 4.391349072896631 6.830225284400075 0.2540815566045947 0.9595675814710957 1.456365390266137
Ni 2.606105266348352 3.1330849022527034 8.52409064461097 0.4591542874106544 -0.2575263206200855 0.164030211042453
Ni 2.75718718153913 3.768433114094447 6.124564131557125 -0.24037526276209573 1.439679959190656 1.2920330746022328
Ni 0.35729093605287987 2.4722621258183763 0.954257224086842 0.8171778315165539 0.8108629450421196 0.39548837382057694
Ni 1.9029019098498026 1.2377902371995977 3.0769539730274045 0.05107753540210558 -0.9968454919859476 0.6115872805338112
Ni 2.0388710118660973 5.078293445680247 1.375633882648177 0.3936196960429543 -0.056745789431476464 1.07536492564909
Ni 4.946724159609551 6.770780628249361 10.871775124655397 1.045199200698987 -0.6674704648546762 -1.0068008034264468
Ni 8.35453874575949 3.0571880771911264 3.908362050461781 0.007536674696677343 0.8272699256452333 -1.1122923948030585
Ni 0.14683091654922134 6.420135632668931 5.843360432768509 0.2903971032061773 2.164596581977943 -0.2608286455204411
Ni 5.685144530294511 0.6056984437562458 7.13211366411949 -0.2726541774004595 -0.06773005635712206 -1.0771328161827902
Ni 6.233531674035009 7.483541568125536 7.753451789766394 0.5283678702918384 -0.7560061451032399 -0.3832285826166174
Ni 2.087426123551454 6.010786370133673 6.969947170605263 0.8549229114758116 -0.33699243446721316 0.6730142774910409
Ni 8.884198941798765 8.799752054237862 1.805530100783164 -0.08483329169631197 1.1917505382303861 0.7738161767014674
Ni 0.763200762635706 4.759704251989178 12.842853846378196 -1.7718186651099939 0.9243766353922597 -0.6541048421810477
Ni 7.734728539389493 5.793799648867015 0.17517922647265946 1.33016870513169 -0.9145725048176442 -1.275368212352042
Ni 1.475297108464635 3.451064037430308 3.1854390146810037 -0.7026261868202028 0.03872492737402363 -0.09226429405306047
Ni 5.5618480073988374 6.2973290052461905 13.293096440268334 -0.84123538668639 0.40342331239693746 -0.11813113451749334
P 4.82015550468711 5.496516286593183 4.798308939587482 -1.2576481693644597 0.6200711496351063 1.6555574939217033
P 1.0323853843779724 1.4324081463058578 8.264342518874717 1.9874144069345645 0.34035518029185896 1.9341388354398752
P 4.272212039865495 2.1159417374005547 11.571254351228564 -0.7032033994799115 -0.5880300620391614 -0.30872546920171995
P 7.785455829115218 3.7857920517957795 9.147822787757686 0.353373704038714 0.48968896566440173 -0.10477219671208407
P 2.9492169636185674 1.945744655454529 1.3020478852891204 0.29625947552422527 0.22426138791936862 0.034130623135121864
P 8.491025473181148 1.2055403257832242 7.198471392425063 -2.076158089428876 -0.027259349936585308 -1.0153165542069418
P 7.036008188633832 7.388871578808683 1.818382000133501 0.8305079729665569 1.497660392360182 -0.5942773285004539
P 0.5368986327346492 2.892158005987936 11.674368104970426 0.8163509647398843 -0.05466088187798973 -0.3154334773495148
