# total energy = -340867.1758147772 ev
CRYSTAL
PRIMVEC
9.25925310196106 0.00000000000000 0.00000000000000

0.00000000000000 9.25925310196106 0.00000000000000

0.00000000000000 0.00000000000000 13.55185285436513

PRIMCOORD
 96 1
Ni 0.8415910798141004 1.3403601764602717 12.377313591358114 -0.13569279755034053 0.1069344944707255 -3.7253798709405386
Ni 2.429905713002087 8.501058886914267 12.488709809976356 -0.1303040224346014 -0.5296418519082555 1.5999059659956705
Ni 3.3739513510029013 4.999894661655619 10.815326717589212 0.4922567263915781 -0.8133664281902637 0.8804953606282773
Ni 5.983671753432647 6.737152709501914 3.4488383358202555 0.24426996983081156 0.7897590731839689 1.4434954762820043
Ni 3.244405145040884 2.058211527744903 13.143670464374761 0.5440839954755146 -0.11286577235349596 0.594883337515569
Ni 5.773255233492196 -0.11619251157002092 10.93940718662182 0.794372146475948 3.5800778324352085 1.3001402770903996
Ni 0.939240085796234 1.9903226861957992 4.514135741122464 1.4637341719263823 1.5634371816456751 0.9795273124224744
Ni 6.734069378318629 6.347134462948266 7.173374627540836 -0.3321759869151763 0.933142811620664 0.8525911780188412
Ni 5.236551904038808 2.542896374952948 3.421855947228024 -0.7089158764836565 -0.6277872873324414 1.6332367189373163
Ni 1.1793417702220128 3.613821554108614 13.172048222364353 -0.2770885590227292 0.9890835886523417 -0.08529686159629181
Ni 5.472514702461797 -0.09180363968781423 2.8246943265996656 -0.7913282174433016 1.6314677999623515 -1.5949645628299949
Ni 8.091670283497454 3.901330612884012 11.223454210774303 -0.1664753301488359 -1.692962416932723 -0.5306641225251828
Ni 3.9937194373489544 6.4723658571042435 13.078513102402441 1.4555104984650094 -0.3345552857806303 1.2155571537316807
Ni 7.892513014965038 6.436199215657053 12.979300208621938 -0.042383350062217336 1.6322453015583243 0.653119852559959
Ni 8.77870684145483 5.202431557461005 6.208184559839867 -1.1041828783220466 0.37822058787906476 -1.0084643071717987
Ni 6.332588176795287 7.405004095652181 1.1956639810625418 -0.3858562500474516 -1.2399620649386065 -0.04097412841951653
Ni 4.02308052798619 8.008892563441671 4.5327968392209455 -0.0626176748312212 -1.3627052443068144 -0.41445797294454434
Ni 5.837607040470684 8.621068062489543 7.495516069574024 -1.170453576524823 -1.1473614705920498 -0.03825004462013413
Ni 8.246059064729007 2.4904982633426944 0.4059080502882932 -0.9943682340900487 1.5263253643950423 -0.8383755486400916
Ni 6.887763715589983 4.562459781499547 2.808986930145233 0.055926121743658526 -1.0790580582299611 -0.7981285281945867
Ni 3.311729172169026 7.7248001689504555 6.799520258604792 -0.03297876891886579 -0.41786931261893845 0.49538858715234046
Ni 7.951457418306772 7.786337163076935 5.834072783675909 -0.6229222459306563 -1.0539175544085915 -0.5640509255157446
Ni 7.5039021748373935 -0.28210628476504623 9.105421428447254 1.8528886331091317 2.7104392120157774 -0.7360901229056033
Ni 1.8953783079573225 4.932459523493844 3.589492867369624 -1.158848902406359 0.32052451871917703 0.5005968708261572
P 1.6945358554148227 5.770375605870569 7.109450598041832 0.6249798997906334 1.7673768272885562 0.6871430035829392
P 1.189638059338571 1.7129247314809055 0.6625217602370557 1.676686305480519 0.6428066435594091 3.454673818405386
P 8.658355073525856 2.7126925528481283 7.220278298537991 -0.1925771694422103 -0.4235727907616189 0.6511066787846722
P 7.294976394598171 4.464904293970721 13.081332544880851 -0.35186652336556823 -1.8209784146640962 1.5508979115280839
P 4.4233117303811715 3.199377398661548 8.918121559053924 0.30107797995879115 1.364155860710412 0.09810686887676652
P 1.8563412981413077 0.7804707520637412 6.267311370461814 -0.5559501507854813 0.023945712182320052 -0.24211230005786047
P 3.8876732150000883 8.047059203494237 8.843437351872948 0.4877832640012567 0.13082338527318116 -0.5472526230114834
P 8.708586519980287 4.047330511076356 4.021891639926328 0.897430702931035 0.12075006019757913 -0.282816462645442
Ni 8.518947763329006 0.6248764161172805 5.824789456815962 1.1915314802410448 1.251090056530968 0.9836755302628929
Ni 0.5671699748752621 9.064808493804225 3.977956485377706 -0.15868128802571382 -1.893792827522661 -0.8953846190352838
Ni 9.10283624506475 5.940190302271356 11.082948753195057 0.27720914376099354 2.0872102334779794 -1.376262928386591
Ni 1.090971461473425 7.369309676097926 5.720412677747416 -0.00788685894724448 0.012311984598133636 0.10785494940246586
Ni 5.701718246338844 5.4881813582038985 11.462061451797732 0.9533820214856742 -1.1074636059558474 0.3245565226967056
Ni 1.5555637300996976 8.889577134513884 10.484905651699885 1.1640304466072986 2.0918112225851004 -1.1486426512973185
Ni 6.646513883816675 1.5400081853912284 7.262329195141272 1.1592222265853778 -0.6390680024525832 1.4986852340802705
Ni 8.823179032666008 6.278615992208581 8.355001581354546 -0.5343246020959056 5.893103685693554 -2.333977258699032
Ni 5.937912526081901 9.317956465428953 5.101106628116216 3.0472598967918163 -0.15795777959612795 -0.19516781298752195
Ni 7.4368466660405295 2.6781833176526146 5.245366712706939 1.73477266810029 -0.9414060800707207 0.6517293999703357
Ni 2.3223131954351763 2.449090884809199 10.894971106496573 0.4172987848274491 0.26345605584095916 -1.3438009512031437
Ni 6.134190166992689 1.9967486076408454 12.84483826534699 0.7902820355669744 -0.6623218307742013 0.6046918389655586
Ni 4.060487909308936 0.7462763314635175 5.869253314699616 -2.0076075940529874 -0.3607208884324046 1.9124981172416482
Ni 7.164180189507795 2.4368594118568847 9.43542305018462 -0.32102202718088585 -0.35360613176449424 0.42341338236561915
Ni 3.978228707410104 7.56121694968586 1.9698838115592074 -1.2615446762053886 -1.0567604231740253 0.365380498691603
Ni 6.448088096255669 4.1569230272486415 7.535291041838411 0.03150732657966186 -1.881216019298915 0.8715947157045377
Ni 2.0825170663518855 6.73181012063478 9.634377541080658 0.13302810623398378 -0.07171115249205715 -0.7239555444255983
Ni 5.004515028804145 2.713035145201827 11.027250643885935 -1.1116097669137373 0.5288034151673603 -1.0574605345648433
Ni 2.0948874280962397 4.4069321121732665 8.836688282505088 1.0477181104660989 -0.6018535981858151 0.7856345094926341
Ni 4.514820925829862 4.95461691545061 3.6749779929449033 -0.5897015362043134 -2.381631370241885 0.3316018595792612
Ni 4.7374781779754285 5.691523809003116 8.960118751990949 0.43174349949786933 0.2450613553838554 -0.1763735630991543
Ni 8.326605304859347 6.231032692055711 3.902120427148079 0.5878153749251941 0.19177601369715358 0.3355569875722672
Ni 8.269466455814133 1.5772859371747379 3.4247429822518933 -2.210317995274458 0.26964161582638074 1.128192868083399
Ni 4.5643579283240925 -0.32375810757253237 13.634247900066418 0.7055667575057655 -0.19117643243994173 -1.5498877250960146
P 9.3177712803729 7.734846458241342 9.663080298843623 -0.6015293820771769 1.7846962924036103 1.2381250117298677
P 6.025579131617486 7.475309602182779 12.395242282559906 -0.3070750780824905 0.4127121938980311 0.24163021821511935
P 2.0433782047550415 7.338393030989844 3.709576116967323 0.262092085613897 -0.04876817054263859 -1.2045178651983837
P 6.64882869701734 1.9724893652978759 1.9485393819985153 1.7823177648691044 -1.278764896738417 -0.7241198379176045
P 7.233846807595009 5.257533370889635 9.52008132448462 -1.7709506606827436 -0.7713438039015748 -0.0013431442914557514
P 7.33698562456384 8.54924403849931 3.4416013038296964 2.8631272585725336 -0.7174858775408547 0.7692015607475914
P 0.6449791798771359 7.431939262055119 -0.0951906743630273 0.6690871745224929 -0.37588782598083004 1.332954238296627
P 5.31908888352172 6.405134422504129 5.660717349003386 -0.8514436946779594 0.7159424443131347 -0.45226501648998885
Ni 0.40902841848278965 2.0273596974064394 9.368097171205918 -0.2764954055234206 0.11178308081227845 -0.08301320776843768
Ni 5.3741906969503495 3.456256849165747 1.1828288048274944 -0.10306832664709993 0.16829001476007144 -1.9797687174638485
Ni 4.194848926728337 7.556078064380384 10.877150748552573 -1.0652386358483654 -1.1601036007490666 -0.08501455446918262
Ni 1.909072742852457 5.8447737021399435 12.62607082530382 -1.2184933535418692 0.2504804695168977 -0.5955646798533097
Ni 1.5338785600358675 6.069782804497386 1.4993906211217995 0.6634243198097606 0.925151308774755 0.11342138774664984
Ni 8.653031003164326 5.04911684955456 1.3417592495587534 -0.4588501259066743 -0.005223710292784551 -0.7027087192316802
Ni 7.29211528548215 -0.2358609466421604 13.497794291513618 -0.8126796865358842 1.245125868527733 -0.11370678019755256
Ni 0.7256930124832041 9.256502804577698 8.166834119973608 0.3278153959536354 -0.22927709596640516 -1.1674698113061508
Ni 3.0987756169606464 4.203811883441312 1.1886102822774756 -0.24441189472531452 0.5846588315740835 0.1581423848031083
Ni 6.4907084369063135 4.6060708622000766 5.092149226954922 -1.3234164740095207 2.235384965545415 0.3995720569716473
Ni 2.86849799975849 1.9076560771736497 8.016801817185705 -2.1369536234496938 0.4022388051705331 -0.8638053015671058
Ni 9.004808535642988 8.734197613232444 12.071325841764448 -1.0464341015473526 -1.9844437543420146 -1.5809106558400903
Ni 3.316840279716094 5.609523866182758 5.320186104978835 -1.798710604404831 1.6722316121432745 2.0090713230827077
Ni 4.750718909483233 1.055147412379933 8.972857631996849 1.2517163772610571 -1.179023577582021 0.8111943602396093
Ni 8.792401276349967 7.49744847563394 1.8960671963658404 -0.6282151188984794 0.6797125154468229 -0.3787890587880251
Ni 9.113715867107876 4.390700642010203 8.701156895531433 -0.6293093804039226 -6.60005112559693 1.0178935709054986
Ni 1.7688598776617752 8.788503130920047 1.5843609322412504 0.3175479525893563 -0.48716697057349645 -0.40527167845958584
Ni 1.3194342651262598 3.8776176664563997 6.490727881337199 0.5268110673276799 -2.9239667584574094 -0.47964238006167725
Ni 3.6965344593947767 4.189441523091583 7.080964506794449 1.4247284800871463 -0.23629672181734787 0.7045892240838446
Ni 3.219247755176057 2.801951749865772 5.258159296379095 0.3742893711454587 0.726736192494529 -0.7666769945535248
Ni 6.686300893109705 7.301615278857679 10.075734640723935 -0.3322202098895504 -3.4693866991355287 0.39258354146895613
Ni 8.948401167569182 0.7385698553558635 1.6325099727403634 -0.1384832158112841 -2.5504921699037624 -0.5687431887850914
Ni 0.7659198362843609 3.343293964973294 2.1197938922101147 -0.18436378039348247 -0.6478403493285746 0.40651609238964825
Ni 3.011933084924497 0.6276180808721482 3.3690856136551037 0.2768479037668329 1.0442970005996917 0.12832530144167578
P 3.6826363209379833 0.7750800150820325 11.385805949416143 0.6292273622130776 -0.8378029639660732 -0.32014939476794546
P 4.073043456109343 1.1409899451133947 1.445969362076852 -0.3610188792887976 0.24727456098509024 1.5142563490456502
P 5.104524218325677 5.468653594043087 1.8341616839778159 -0.22992809928684274 2.381968698976646 -2.4620485351483725
P 8.212522051077773 1.3033787207664473 11.118210765643427 -0.9993296918603821 0.8855768889162426 -0.8182936902885519
P 2.694998120742245 2.975997924797374 3.1291228180213646 0.43258065068718404 -0.5234514068268274 0.49077422830878054
P 5.4692924824864715 2.376285380021882 5.866339427842619 -2.638854043578623 1.6808970011277566 -1.458354652782024
P 4.1923859654828295 4.069089755162608 12.764055914270182 0.26495243788082756 0.6967075073429226 -0.6389713289737189
P 1.1880084308453025 4.354969185444737 11.024608053136056 0.9472221725318654 -0.9135798018870717 -0.5448416995771456
