# total energy = -340871.0980874576 ev
CRYSTAL
PRIMVEC
9.22949391494160 0.00000000000000 0.00000000000000

0.00000000000000 9.22949391494160 0.00000000000000

0.00000000000000 0.00000000000000 13.50829727606170

PRIMCOORD
 96 1
Ni 7.397300993116754 1.3684663038614748 2.0802504183112274 -0.3544322272102154 1.2032814216881214 0.043226157678486844
Ni 6.2594335966746595 1.4577431992574192 4.309606080930332 1.7163931371518375 0.2646341353094604 -1.0284399789627772
Ni 4.013408544954488 3.3949124639901123 9.084614011213315 0.6226103711171923 -0.23521840115150458 -0.7030216224864086
Ni 0.09870943825696511 3.6606111370655223 8.463056507091403 -1.100326480690434 -0.4521578014881632 -1.0593747208684205
Ni 8.57038813863679 6.246816878385994 12.919930240075573 1.0223400367126263 0.4080685244784327 1.0102836197687246
Ni 4.957032010816303 7.62695849214883 12.955091843341357 0.1462597744329094 -0.04276258777850701 1.259002112289193
Ni 6.3398594073311525 8.638049559100727 1.723009932013949 -3.7232476550888847 -0.3941115480777084 -2.5209764198328326
Ni 0.5280858037060705 3.8860138393667474 12.959427859619348 0.8397194642624957 -0.037645835377231936 -0.1992314415339343
Ni 4.200758043521869 4.623588851831017 2.149804807993164 0.05152002225616288 0.011401814079038428 1.25352129168028
Ni 1.5983729992313676 7.814935596307747 5.809175501066004 1.0606101359374185 -0.05738368012579149 0.38213483533180637
Ni 7.296478000735352 0.8759758896388674 10.945719324150685 0.07422260606000121 -0.8299132768053514 0.026332981467574002
Ni 3.128604644311152 3.297892023133897 3.9448417111298206 1.4983785014731292 -0.5065165787447019 1.1863383660758793
Ni -0.17823906504672132 2.115704596536595 3.548467247352097 -0.5677947088288932 1.203087046289128 0.13914013266899264
Ni 7.6340190550536065 2.730204306601928 12.625408780208888 0.11161698754805938 0.4923485147744359 -0.09001200768377401
Ni 6.450936367538967 8.981054473862939 8.552130353619498 2.5437877613003934 -1.939708359107853 2.445631013022298
Ni 0.9391840792510998 1.358913777578543 12.765719239690673 0.47676068763850793 -0.005436597634539024 -0.43919532779022424
Ni 1.6404594918402278 8.04693738681409 3.0170920519868605 0.07544002340687007 0.5466872374263165 0.8802894152650581
Ni 2.022985099881198 6.138398012448214 13.572327175426267 -1.0362903282451315 0.4872109364375544 -1.049210378740909
Ni 7.22152528001681 6.133164889354085 4.002130103294833 0.22469333325046462 -1.6403064812999042 -0.5918180683266839
Ni 0.5067490594926575 6.188560312301099 2.2222092654201924 0.30291888982227183 0.3520495859106518 -0.771216277184775
Ni 3.638820301747645 7.927249308710646 9.22851751270664 -0.8717669796163439 0.4722612571062576 2.411256649307486
Ni 5.822767776869747 3.4334548309055943 0.8875062964845362 0.015029640639612828 -1.4565289124271947 -0.44059426502027993
Ni 2.454740828881743 3.1882087165190516 12.06461180389222 2.788665797028849 -0.9176755692230002 -0.11961003305586497
Ni 4.355213625497588 5.250585296763103 13.318964644022127 -0.018235549171420208 -0.7388232055660503 -0.7260139696165239
P 3.8898440793739133 4.61390711263218 10.760696581018985 -0.6410104708909348 -0.32598091384805794 1.0061719115931962
P 3.4413460482697555 1.1064963463593058 12.337790058899696 0.060110849248967445 1.0768803338523518 -0.6140077170498458
P 3.0908929318550555 5.916050272658728 5.854333569275792 -0.6127355352056416 0.2351788061628208 0.8239200353363939
P 2.4544270260859746 4.173983281447679 0.6956851080774641 0.5670323767415718 -0.7271216008584058 -0.30372775887681236
P 5.1220922813901755 4.128537253025304 4.447917432013196 -0.5020572574217677 -0.9711822828918887 -0.7865783614631421
P 1.4338295803211127 6.417830172585462 11.439204677825758 -1.773856521475629 0.10084226553005858 -0.4307847351290258
P 5.445659881802769 6.816867345380215 2.520364377071988 -0.1214512000296618 -0.921784192074735 0.40414296417178136
P 7.956792918982787 4.966833733437051 7.477666812062291 0.7868470417434964 0.69011159929296 0.423540909082419
Ni 4.540098849168792 0.5151682039132283 7.941866058347631 -3.0236453426966703 0.7583607613783455 -2.903892356305038
Ni 3.2293630302346017 5.814304330878009 8.397878743461028 -0.46008914052009797 -1.8177935891782113 -0.11193837544322012
Ni 5.88765111964174 5.424099783834721 11.137631884548291 -0.4543499240434756 -1.1001601303158988 -0.26992186607096097
Ni 1.1000541595520725 0.6909439170131721 10.172382791311078 -1.1100653052447527 -0.0958725802296091 0.03741752141650975
Ni 6.118028519205284 8.066310094705756 4.198189475343569 -0.3930237143301683 2.0633419115008143 0.5379215754185446
Ni 7.447472522463632 6.386883679226359 1.535866251162616 -1.8527585352891704 0.1273372264967936 -0.5080296729551186
Ni 3.5255190334874764 7.478474392786694 4.337027830533443 1.073763642600241 0.27522579478237763 0.25760473926650473
Ni 2.5550100516235537 8.425291263570145 12.323620016771981 -0.9514194984426647 0.7384614513512573 0.29003226366759083
Ni 8.746053097808815 4.917188285247784 11.095175289230305 0.3152542714591732 -0.21631616493036296 -1.524497052937052
Ni 8.643716468412535 8.735596081114553 0.8056268405241185 0.04245251273725592 0.32456397889587335 -2.3293968384172015
Ni 4.533675121349544 2.0234650335688427 5.581263299348036 -0.9881441075572078 -0.1546765377416949 0.46183157713250145
Ni 7.625260265254088 6.2251460264900285 9.326682410818009 0.7243836331019525 0.6346233364176683 -0.8397608590233926
Ni 3.2601157042198476 2.3473095188012314 1.6927925686803067 0.32961413972527104 -0.5370438007992815 -0.3981206692371015
Ni 7.422239085886302 3.047071294375479 9.877996082056693 -0.5177571846555277 0.40082984063814836 0.5851617393524309
Ni 0.7919579599202321 6.714623010923866 9.232961514064353 1.0443095990051823 -0.49532970888994693 2.441014597296209
Ni 6.610855809958643 4.23047701417988 6.032008712239531 0.4585927584802295 0.2085390920881054 -1.0038203806418842
Ni 9.338863496990195 8.120339552541779 7.588312754900625 -0.6660021078392658 1.6636083892506384 -0.5135986824024639
Ni 7.0762345855763105 7.21695668049019 11.378606589114796 0.45789290419972756 2.7771182014005658 0.1189654574933306
Ni 8.066817716875379 8.21551409459936 2.8315284605071582 3.381499708214557 -0.25419777046748476 4.326116581913092
Ni 1.762316501032066 1.6957164723773432 8.058671765477007 -1.0385037909566825 -0.1451976517169822 1.1209595835597534
Ni 4.985948015496908 9.053542919685304 11.007290201528532 -0.1648604202532322 0.17187490389785237 -0.5261472084914358
Ni 6.25539107830565 2.383729102098284 7.303706540430805 -0.17534075095926577 -0.5903664234818219 0.20672209348402465
Ni 4.091683883510573 0.4202271680536749 3.690669753102482 0.22303574304238366 0.4399610023116552 -1.3002716604619413
Ni 7.343059256918887 6.898077663026128 6.664534547022926 -0.037002545366278214 -0.451943371484512 -0.2269024250866415
P 1.477586611342737 8.145859103432898 0.7140508781744753 0.4370224885086216 -0.1838259056121415 0.9608251080272806
P 8.899954910144944 2.0917356006363295 0.8211665395604207 0.44794170652428655 1.004408134824554 0.3424794257237134
P 5.195863626877593 1.3697215150445463 1.997485853876865 0.5831580786588407 0.42804342493846287 -0.0067355189516206575
P 0.15453126382646268 2.6168661203657866 10.931968301050262 -0.06786786748656698 0.4103501214237579 -0.02009214276418475
P 6.800521911518309 8.707750697737156 13.025511036610453 1.2416942171383647 -0.24317622254600058 -0.9743735361356769
P 2.173859638187566 1.2211358912484844 3.857902646562347 -0.5914707122895942 0.6016702785304154 -0.7368056609153891
P 6.586296126442814 5.0914965088028135 13.262932385989586 0.9467727436992727 0.27138970886573904 -0.17262180936620594
P 5.585366732377399 1.7064134559154285 9.237203389503614 1.0741703911203564 1.2837091281175699 2.81978000193515
Ni 1.7104559742844374 4.000524171340022 9.940175183088686 1.1134157097742243 0.7003327628003357 0.7585196555537129
Ni 2.2284151771812004 5.662469925196352 3.7614664326758995 1.5423176260582407 -0.3291300010000009 -0.17113134086360848
Ni 6.800365010120426 3.7556287777252186 3.0585352488643966 -0.056531359427825216 -0.34374903646475635 0.4994306184321979
Ni 0.9302037815957444 5.8481119673749955 7.131138076493487 -0.03343462550936177 -1.5652590653457623 -1.0707037727279947
Ni 8.193446374461688 1.3743731800171044 8.333606393191383 1.397485070990161 -0.6750061111100891 0.14215757933907774
Ni 6.930131695664411 0.10638007071468962 6.3817650018577465 0.25620348804360393 0.6320208657978148 -1.3512324677805245
Ni 8.590139255782175 4.420106197763573 1.2047498476130083 -1.7438355496335065 -1.4970698099640347 0.7943245810674643
Ni 3.229667603536376 1.484545649813588 9.991073996562227 1.0134563610697516 -1.2572956711210477 1.3003657628376444
Ni 1.118097820308722 0.7769295748511517 1.9057779097631193 0.4599575000382401 1.5608506518654215 -0.2572046756146086
Ni 4.1546382620379925 3.954182882000309 6.790770028165125 -0.10324239033111897 1.3234079893690884 -0.9804613942009696
Ni 3.5541673828422797 6.676486741744083 11.349563217417083 0.6580576561812086 -1.2036845706638106 -1.1754991093685303
Ni 2.0258831609950536 2.3270046320162545 5.919254752973156 1.4188432249509628 -0.7429973915483978 -0.24406890956359903
Ni 3.419573671939865 6.798251455995989 1.8385465837192636 0.10366405124956986 0.2975041465646038 0.3188419888104316
Ni 0.24335129926974491 6.262479329692407 4.709911386199748 -0.9708662943133667 0.8436841053371985 0.5781392852880108
Ni 1.4261691003067807 3.66756094604238 2.585002215303763 -1.259566212322779 0.16842422634509058 -1.4130302178136116
Ni 5.585052929581632 1.2558387886628077 12.902855676188207 -0.27452594050187556 -0.7833940501978894 1.6988998654630805
Ni 9.195538684770241 8.644224090582158 11.87652209990659 -0.5515304244512308 -1.6795340593419592 -0.288131189990136
Ni 1.0805799272264813 4.03620539511762 5.009970542462335 -1.6630347761353554 0.8999012759587146 0.2946558784825312
Ni 9.819074069454889 0.6636190770969898 5.1377048934290235 -1.0865546237173223 -1.2061685134279292 1.1398664477665852
Ni 6.088429531969185 4.6117935585077445 8.595140718577074 -0.9817628866212125 0.3790690519222891 -0.32557802198268443
Ni 4.615143864827266 7.3158230201450385 7.2001922276009935 0.49871456620177984 0.6783153779889801 -1.0899821613416323
Ni 5.288740024930874 6.136690556059477 5.280960484444029 -0.6356407219385891 -0.7135991408919388 0.45066990408872704
Ni 3.628187924667512 9.06002202446851 1.2322048233944944 -0.22375076683153725 0.8996696195638828 -0.7042457247014968
Ni 5.426582517718884 3.0680222457399773 11.587039020810776 -0.8482586120817586 0.5129078269830263 -1.302946379080627
P 4.7692948735012095 9.007515433141359 5.631784626517255 0.21350492073381294 0.28503481045299944 1.2414767018109198
P 2.129788804370174 3.7460485629603073 7.667255385872416 0.5750012538796613 1.74610994748998 -0.10443435375669109
P 2.4476341185070014 8.976107465082599 7.924642899606974 -1.7061231226843974 -0.9057104264413239 -1.2905104673101193
P 8.348880282800684 8.22628491408939 5.140204240402374 0.36107004424170713 -0.8499627392570587 -0.29619596927614145
P 8.434373085659427 2.1190364438681297 6.302418119049055 -0.6125049072520742 -0.16233893938295915 -0.21688566428058775
P 5.584499159942042 6.9967963307770855 9.205824032876231 -0.02442316603937084 -0.6712857248357085 0.48838850168542347
P 8.639452442187688 8.45824978661976 9.667320883320372 -0.9384958484024611 0.20483104710889885 0.2795755871106411
P 8.774636840705666 4.564067845069056 3.439928397992405 0.15138089770955865 -0.18718119523761959 0.3359038293887247
