# total energy = -340889.7405851829 ev
CRYSTAL
PRIMVEC
9.07021867826519 0.00000000000000 0.00000000000000

0.00000000000000 9.07021867826519 0.00000000000000

0.00000000000000 0.00000000000000 13.27518186739422

PRIMCOORD
 96 1
Ni 6.500834237455641 1.8045834686224134 11.428258573055187 0.1580349126909665 0.5550950018740376 0.4807368986774366
Ni 4.606936326941136 0.34256854865456166 5.9712169211529345 0.03509632948250084 -0.6453823747063853 0.20967140592033567
Ni 2.614898651902163 1.5581637715243783 4.610683234217019 1.501912996988949 -0.577525820073728 0.6230346031388044
Ni 3.957363556498966 4.523272631194954 5.271548426732476 -0.6489574936521533 0.8851449435851465 -1.061096588655534
Ni 5.291356876986171 4.972874293645354 2.515673182219324 -0.7704336333824797 -0.8311294086006396 -0.14740108712620423
Ni 7.433361545245805 6.025981086610035 2.493769511484561 0.434921897225851 0.280869109111084 -0.42426390329137253
Ni 5.063639970502688 4.2831295253215895 11.630598822127713 0.23927328794716854 -0.016974937291441734 -0.2091517859714398
Ni 5.456217169037624 8.140639045993396 12.207445673352355 -0.44696674420552696 -0.9723678185595577 1.0044503009163992
Ni 1.461575014369013 6.759743625473288 0.6843697568212518 0.15158247219740345 -1.149119076713105 -0.4506591054554497
Ni 2.741999624201735 1.6670970961028309 0.3586573022879721 -0.49968130099042324 -0.5592774153865013 1.1637142009184605
Ni 0.6622946589562194 0.12158718645350661 4.918003099609567 -0.6095609941324018 -0.7805072155683976 -0.42633004179178186
Ni 8.599329067413622 2.284098711793858 1.1195561209575364 1.128664922623811 -0.006896727119833284 0.26775648298852595
Ni 7.040249203817436 0.5871569686308322 4.746965988737304 -0.9330584794369737 -0.22969875688485603 1.5126550659968012
Ni 0.5699661834456914 7.860351152894034 2.617494548446239 1.3797850826072364 -1.645761076656572 0.5227217277496546
Ni 7.690075940378522 3.9322209107261545 3.7667130050714617 0.4274914090897347 -0.7554695558734795 -0.5182966020987654
Ni 7.573587123762281 3.737038878119683 12.669939744425223 -0.3378157016994569 0.5759222230320339 -0.7742635486515311
Ni 8.070743941979945 8.684317015065588 7.291831669304317 -0.1963230096378877 0.4422063467024062 -0.1334471960492734
Ni 6.838935703482818 0.4454982955861801 0.33817312075358597 0.29040918739103533 0.39162683398264164 -1.2087319032797312
Ni 1.8119484860710149 6.253906608119771 9.232145516138372 -0.5833059170906149 0.22002009614451137 -0.03453171522828247
Ni 0.2676802893388253 4.673493590534531 1.6542074085459253 -0.46202903785528815 -0.6800164198404869 -0.9510991389887685
Ni 6.522466708656275 1.7320489310159282 7.056608249963122 -0.4121429516581224 0.6272782089065068 -1.1178925145986554
Ni 2.9459162772552547 4.660722722840405 0.46308182123378944 0.3094726317803896 -0.9703438461509933 -0.035390206573835827
Ni 6.423728309708645 5.70447812049781 4.803983196477943 -1.0953771071049587 0.0013760544119202109 0.8148255292342934
Ni 5.05211172274755 2.7068253167316896 9.2746657935981 1.0897967848037038 1.6623863439180788 0.9243681507518273
P 9.198380720628316 5.330685344544221 12.662943884870904 -0.10360620142844093 1.9833083551859907 -0.16580530066500476
P 3.9957759319852064 6.064357181222144 12.295619081753026 1.0071934108791751 1.124351897070754 0.9930544003746316
P 2.5655203822098156 8.61699785311544 1.2380449207602522 -1.2248169817670518 0.14304332437814074 1.5352401503861688
P 6.656696872722596 7.765331543544836 5.960981179538714 -1.8339216050883254 0.4575231795651346 -0.5930252012609077
P 4.783950711826488 1.203790333449429 12.895617665782542 0.7176324304210479 0.6528750835390046 -1.5763785722976915
P 3.8961667920584317 6.2504599250773225 8.265951371198307 0.21740014202316105 0.5889461460955276 -2.034887255704547
P 5.243402631603467 1.0622042221530392 3.5866483056935423 -1.5342073382462804 -0.2452421039360938 0.2657438234338713
P 0.3943848930885153 5.726092451261377 3.5936849812312577 0.05794572327684859 0.5240440461055039 0.633549129516883
Ni 1.4370128625822975 1.0363359588976064 2.658527310066594 -0.23944246653518117 0.6814346403442523 -0.7947323580288442
Ni 2.1727164282115603 6.527482539504891 4.958214099430854 -0.3661855110914016 -0.3020097477444411 -1.5387929007344339
Ni 6.080765206547907 5.443700267462415 9.412674610705167 -0.07310880417053214 0.9538561329086154 0.533235739907101
Ni 8.760724535985561 2.464568849940192 10.114613380824375 -0.11113259171247312 -1.0484727292439362 0.889858547010732
Ni 2.383689711283567 5.106025101706278 7.021987225823576 -0.5322746615454123 0.012315069921927178 0.17913132834994958
Ni 0.634659517130605 8.971498274249848 9.116067580421662 -1.1293328952251132 0.17235467174774835 0.703584179858098
Ni 1.4110901780156684 0.9052821853614578 11.581680412514975 -0.3150732657966187 1.133411179059545 -0.6247685551107756
Ni 3.935114310438105 6.740659885680359 1.3147200131269423 0.12956380183446717 0.903650972809134 0.12068809661139214
Ni 5.677593992766707 7.605722908023851 8.076381989819907 -0.8269086856510726 1.056749624540748 0.20559157942400721
Ni 5.098732646005938 2.5850848435849794 5.163886746792316 -0.9451583480243011 -1.9712784206046503 -1.3992503904206999
Ni 0.8913312822362189 7.377996931321835 6.714746271332263 -0.6419314400433073 -0.509374102798155 1.1494510061312269
Ni 5.4389202622956505 4.793347458226428 7.267259540277217 -0.4461470765177091 -0.04483669669871633 -0.5835152048879434
Ni 8.40332164492067 6.9387625286543795 9.268280359751035 -0.5263348990222096 0.5925294925714119 0.02995592293214196
Ni 4.754717397495401 0.6413261277521839 10.531268381476378 -2.006626203976325 -1.038275219885644 -0.08758591474078464
Ni 8.053428894800904 7.348972232017002 4.394802055896935 1.689035828184807 0.4170771557349462 0.5945868893210727
Ni 7.41665420270846 6.275847466750519 7.258046012291639 0.4303525326876137 -1.3543177915740674 -0.7867691373177095
Ni 2.3686512889562503 5.182586816341309 2.6847728944129896 0.8310970127008074 1.1127320534436385 0.9880322645696918
Ni 2.2413054207562944 5.224500296181194 11.544482539290271 -0.5305977880636217 -0.3833913334467268 -1.3233015456982111
Ni 1.0425762692481457 3.485712192795425 3.95028243689044 0.7548854012352354 -0.32009385893966164 -0.1313219221761545
Ni 3.7803854524877454 3.2797366001349686 3.127420420314323 -0.11949484763423936 -1.2605578868120872 -0.39434166181064345
Ni 1.0498415142928867 3.1888439402181765 8.105189003879955 0.10353421053992493 1.0617139105245585 0.4338749440185753
Ni 3.839369083606286 2.982541819690541 7.148379814055739 -0.16900709543175407 -0.8846302087322572 0.9566969447915201
Ni 4.30432662603265 6.849856246596262 5.912779317190065 0.8754860803391439 1.175131955837099 1.4362953589891394
Ni 0.7100874544490406 7.11120552339922 11.317517553923155 -0.09533573388953258 0.43057698999359395 0.49041093143209086
P 0.2072390741020697 5.287728789573067 7.9518469823432545 0.7535543411286376 0.9644020267452617 0.8064475895832435
P 8.464808656354252 1.6080862543286918 8.1103925882522 -0.20627009354827056 0.19838117771849706 -0.37956116106735927
P 1.8898616632674266 3.255927276486472 10.365925553798983 -1.5063700043190378 0.9086288856396998 -0.43666099140414477
P 4.298811933164732 6.256663954553731 3.810839618233341 -1.9677338977865013 -0.02371071335337852 0.3078510370165666
P 6.770972556016845 3.7404946313806646 10.431916835755935 1.1628783352807264 -0.2565945528344355 -0.4212194600380939
P 6.347865001900637 7.670284723540039 10.277008387478626 -0.14410776108691312 0.9048156825411965 -1.3944151738155854
P 2.515606969624035 8.594975362517898 5.9310721339269366 0.49539630046182426 -0.15785802079347006 -1.050599802889268
P 6.947215972326911 4.077271845502059 1.4673990016888985 0.6808787678407823 -0.30813411547462416 -0.1061431089176817
Ni 4.933836073080354 3.2041726095385417 0.7249136336626908 0.16836714785491003 -0.3046788099361721 -0.5306055013731055
Ni 1.3055037640758045 1.0699592589985494 7.193488731884717 0.8028755559612689 -0.37768914085562694 -1.678450596469793
Ni 6.69962621703815 0.714196263444381 9.167734266249827 0.23216315926494854 -0.8272560416881622 0.36699515147689055
Ni 2.6403134042309575 1.5181731780134378 9.348103724970446 0.5500641243183495 0.03627723716447946 -0.5780570099868496
Ni 6.595518248719126 2.002667971159368 2.164000855223431 -1.3403410176790014 0.9119376382979584 1.2950248102407051
Ni 4.141960644077706 7.138071510693257 10.207035279585792 -0.3658846920215311 0.0934212904756391 0.990865877363745
Ni 8.201980933930454 7.211603772338345 0.387782681018519 0.11623186061225142 -0.06359392270156144 -0.3027155155622141
Ni 7.595963352882601 3.788367244796574 7.997101930690609 0.04605025739084327 -0.04891986562915446 0.07409610778446593
Ni 2.7231154292165276 8.040603605795582 12.434132203010517 1.569117262749588 -0.21838975962994 -0.8875563812401166
Ni 8.842020904694692 4.844176962884017 10.2985410862754 0.3872132782959783 -0.39852716064690075 0.13543543012389578
Ni 8.75670642917555 2.392333629545288 5.6860519715485065 -0.5543308700145034 0.5069384967734689 1.0292269936404468
Ni 3.4015949861226047 2.663161284714981 11.66698672483744 0.7547069666758421 -0.157252011778355 -0.3492049173730051
Ni 0.9686539882061482 3.4080711221549955 12.504862674150838 0.2934626295053785 -1.6899822512584768 0.16917730246103124
Ni 2.7298546015863683 8.277463292560087 8.209611708782067 2.195983838039973 0.08774352336457146 -1.1466670156281864
Ni 5.773847151836361 7.835716439359056 3.545084029267168 -0.3449844515337543 0.6754000041143982 0.10188433364132775
Ni 3.2377505585468205 8.309626287477254 3.4232709943721953 -0.013894755704221232 0.051967394206226626 0.19583552847850788
Ni 3.517321904382095 4.511027836175727 9.260328499163364 -0.10002105518034388 -1.7357262902628106 1.158847102634146
Ni 7.34515367001471 6.365379593887397 11.566851512235766 0.10640690410202965 -1.2527391620986166 0.16335555357293158
Ni 0.561802986766207 0.12692319601632954 0.39777987588532754 -0.2536028171959633 -0.3327100050417754 0.39477257870047494
Ni 4.591435323468649 0.2906560599041607 1.5408369330612461 0.7530246938774128 -0.47276030822986326 0.7953041713719142
Ni 5.87330209804808 5.754328041553861 0.16792602591552627 0.6282989368615373 0.35477315548940186 0.6417458063950625
Ni 8.090879827122672 8.815372602645443 10.971233843757576 0.02815280828513216 0.3161510722418297 0.9217440828654191
Ni 0.06493550851973834 5.0816715649458155 5.789081490883986 -0.1588684643358554 -0.2929304111509923 -0.9206459647052339
Ni 7.7892134289415935 0.028737173377344816 2.4219370087925114 0.36239081993565975 -0.4669308460322798 0.2999567218701544
P 8.513189202007997 1.6162040999155125 3.6535157707607584 1.3166498447096486 1.4135781198972817 -0.7105179308634537
P 1.9294168862887948 3.061652265733277 1.8566800828090295 0.05956217583434902 0.6028714979273682 -0.14709846828412088
P 4.593485192857052 1.0188304371293788 8.170847408816755 0.1658567227282305 -1.1519097520843646 -0.7754735097992321
P 8.467248545139565 1.494282222398147 12.30420857870355 0.318375076476342 0.40238690071262306 0.5851226585843794
P 6.399619668848567 7.662756442157848 1.441857266300645 -1.4281187367156178 -0.3682125688237594 -0.9211717553017168
P 2.062404430416128 3.0211355995474367 6.008320464104898 -1.2952875769837886 1.097157081823517 -0.049469310374721256
P 6.656660591848465 3.7245219765444735 5.697270017829825 2.059934428481162 0.6823612659235797 1.5734994509776836
P 2.3490777573625534 8.585533265025294 10.30422267116432 0.47794622330617687 -0.9392867197348727 0.6431606844647181
