# total energy = -381174.53656037204 ev
CRYSTAL
PRIMVEC
9.17904986623067 0.00000000000000 0.00000000000000
0.00000000000000 9.17904986623067 0.00000000000000
0.00000000000000 0.00000000000000 13.43446731180590
PRIMCOORD
 96 1
Ni 6.405508005388654 1.2371798485187133 6.412996274090357 0.45622631513058204 -0.18543747307363548 -0.4619724735857399
Ni 3.9855984308549033 6.607603141458013 2.901414981845846 -1.0343656004185928 -0.42173110956718984 -1.1160996843642907
Ni 4.265320789785624 4.516165858528117 6.842684110337423 -0.3085940858301782 1.7757411400928516 0.03901391936935216
Ni 2.7189538329705796 6.882919556558363 5.007120179546431 0.3379334582242438 1.292127176977936 0.6727042024497899
Ni 5.365007653647802 7.356815531713421 10.691887370873525 0.3436801309000339 0.1639988435838853 0.11263720128245762
Ni 2.8267525920203393 2.3136804329735603 5.320827969793715 0.7882765751011714 -0.15545686755114516 0.6070199728781029
Ni 2.057759349776494 6.475131096958172 1.2146608860206909 0.7937216573761428 -0.8951318795945293 0.6481504243698256
Ni 0.7264465113218901 4.093415548003957 1.0046726851602135 -1.7069710725069893 0.32881092709768533 -0.3794562600583788
Ni 2.5695647999720412 2.678409970681514 0.7402674063747872 0.5688511751178654 -0.5240278481555879 0.48023347667845684
Ni 1.5647709513564925 8.384382602502201 13.721024239027093 -0.2781295986927339 0.6225388944493085 -1.5384108348046666
Ni 7.059074698326409 2.053500270740468 4.271327559874364 1.6161887623160938 -0.2551261958190252 -0.14703933291141127
Ni 1.028760347242841 1.4064415240021577 13.009172416643308 1.0246548008887322 -0.3986366896415715 0.8689058560184649
Ni 2.320454571612757 0.3113460207732128 11.272981795231454 -0.7362623868174094 -0.22432617971903301 -1.6729841740385836
Ni 6.703037720633793 5.22087821609677 10.814302848580542 -0.14316699444019862 0.46460811143637404 -1.0727570557125978
Ni 4.950738784997108 8.195725595115476 4.1328588422403945 0.204655440762983 2.8037692283291906 -0.43198544030534636
Ni 5.94131428571006 7.970600223482777 6.2680388862612 0.9155479813570362 0.4377904770228976 0.2478594869542828
Ni 2.759084638025548 6.991920771111828 11.111486513654006 0.14163153163227865 -0.2830794864988415 0.10194115502119216
Ni 5.022518953233579 0.6640812943079439 10.855936264062661 0.1655286499648504 -0.8582566038347348 1.100672551175943
Ni 4.497146867660345 5.110160519259388 11.732642900194552 -1.2001305347639655 1.1179668194800165 -0.9613156745104542
Ni 7.994548364010776 -0.3229446679066662 7.690385867490999 -1.337436699548013 2.188652594485882 -2.9552444855247684
Ni 0.21524687840301912 5.029779581504045 5.385273159457582 0.26790406430998376 0.5521914550739974 -0.24390950116759927
Ni 1.0576835326793015 3.486193876731923 3.882117496758908 -0.7545478153901586 -1.8437072237201797 -0.45662046524520716
Ni 7.31758427352382 8.529053603982385 3.3887233843445266 -0.5675229432247452 0.08977598041356798 -0.7729414874059979
Ni 4.977780265256013 4.188299384200939 3.209856751310872 0.5986839422085818 1.1495389378593428 -0.12460388672603058
P 4.64411263155218 3.183165910748466 1.3565992844210784 0.9527240761867011 -1.1286536097699014 -1.7241876934955918
Ni 1.7540337760198947 6.643915461859994 8.54520781345545 0.24993308165385986 -0.36823210920778515 -0.27018463281404437
P 1.6771041609316764 0.7307065082628806 1.7120074972129018 -0.09633177925421474 1.2037930712172171 0.2674968015692361
Ni 3.3402194502019227 8.472529016258575 9.272200478231312 0.10681956615941604 0.8102070566256755 -0.00031393169599300773
P 2.561735070623485 4.781954420095286 10.521108398483497 0.4293521164475574 -0.2972382944977268 1.1738219787764235
P 1.3630980515708766 6.027450487593827 3.57489837670681 -0.09256922688798896 0.884210090475703 -0.19074397288821343
P 6.547792453960718 8.521343202279235 12.54381571137449 -0.8288442121108888 0.6806805357870471 -0.26382783735808113
Ni 4.1136737105740195 5.326345496536291 9.029546793393452 0.58192883423743 0.7794070405256834 1.199711959169308
Ni 2.3659918369095774 3.610065151712893 8.716792706404451 -1.2305538842508292 0.5784169644294296 -0.9911960070096542
Ni 2.6258415533553925 4.764991536348356 13.138653008863319 -0.2170831250033745 -0.17532429589903356 -0.9361335188178715
Ni 1.993753836590699 8.561694304525721 6.695564138411525 -0.03598644539693802 0.34158751003706334 0.27080246890370135
Ni 0.20291757891769577 1.4592394175694448 10.45697254279272 0.4059715327400879 0.4903116868500653 1.6356304159804735
Ni 5.115080489869969 6.127318547748918 4.906979501616835 0.4674985456102916 -1.8358347629506384 1.4725692537195092
Ni 6.085884317644131 3.7057292071298376 12.4669035364806 0.6573380044063647 0.17128740682549856 1.3886106513186665
Ni 4.6504369967586925 2.5253860340229184 7.786550181113684 0.47118293644041437 -0.3475311292150079 -0.3916306906373836
Ni 6.369149789738442 6.134276267381045 2.8227431831347016 0.25083502464283897 1.2865062312467326 -0.2499909314749888
Ni 6.896027239453718 2.0292584006237773 11.00765126824165 0.9942754172659264 -1.7741959070929185 0.9272832675160934
Ni 7.735157600047293 6.621316641630045 4.873810087813854 -0.7322748629245711 0.12463808239807568 -0.6370039208347029
Ni 0.5901082511108979 7.899122963884644 2.3765440723833176 0.11314062328143741 0.45396040191454073 1.2826022682066363
Ni 5.321104259188078 3.3515463974658366 10.19520165125587 -0.18716499728770347 0.620810341793976 -1.3521146132751616
Ni 6.802556976902313 4.357230613897106 1.3720356922117782 0.5122989897544338 0.012837518084300472 -1.5200079068174468
Ni 7.953297714898922 6.9578022435753875 11.614875693228578 -0.3390488027756096 0.8966930534340621 -0.8686567161221364
Ni 6.212279831277917 6.397696634139391 13.155366222459865 1.028887865133473 0.3219054582271037 -0.6919908185935437
Ni 3.5998488694562187 2.638361777073365 11.968981398875547 0.6723812718927323 0.2744871168441402 -0.2048385033080666
Ni 8.657927461020757 5.240466308042629 2.898821900320679 -0.32723175553602357 -1.0172258554145126 1.0659451749970867
Ni 0.8689852195691657 6.4834656740372925 12.52648474773673 0.11074589779701571 -1.051869670740627 -0.49941390626164955
Ni 7.712815793207449 8.64056987813902 1.0563599137202608 -0.3853145186113687 0.38277709690149564 0.19522874813244442
Ni -0.1934686652114779 4.729441077067045 8.063058036858163 -0.02102391054983476 0.19464973570052282 -0.07397706570809841
Ni 2.7541922045639065 0.25310954029031085 4.353290965788782 -0.5541010133918844 -0.8734561943933087 0.3883574192027505
Ni 2.5142793839505235 4.605019059107279 2.4789143414720733 0.9538095959413959 -0.1285685278007334 -1.3854980738316138
Ni 3.375981027625106 2.5005934209274314 2.998788176306989 -0.7927006723107961 -1.657242080712978 0.4016129986610761
Ni 5.31446780629358 3.2324115121025163 5.267224155667456 -0.1375984992134856 0.14206990472127792 1.1659263780784308
P 7.063131838270209 4.47873369406925 4.417024779105037 0.1492473963063236 0.12156612834097127 -0.21299789919040737
Ni 1.1157043054955083 3.2245726037043134 6.55071322755827 1.174958663484028 1.1307552294939363 0.6728042183627639
P 3.770184493748316 6.7834829117366615 13.200358252207675 -0.4752689335843299 1.3078965239970508 -0.3927655755727752
Ni 5.470217920697218 9.421927300256845 8.41853417461737 -0.12316612583823949 -2.043232028124817 0.961413376430583
P 6.470725153127802 4.137759536846718 7.953822756538709 -0.658770365977517 -1.3340202176672962 0.8677755990687636
P 4.936997747676135 1.4217888950112856 4.115071679835198 -0.8686127502580783 -1.474376482131577 0.975265708932643
P 2.444279951345494 1.5113672405125294 7.468838489410549 -0.5112147555513196 0.10674757527090002 0.4541018125884115
Ni 5.913584376727659 1.443414735978693 2.203910931964674 0.12492167507676549 -0.2547495292058968 -0.6287324248545302
Ni 0.6517299651034689 8.152730926570765 4.766468445436495 -0.045599800116985986 -0.13053902126354291 -0.47178097503572936
Ni 3.5768737081907602 1.9433608540308231 9.704709954339746 -1.6134518230009052 -1.5370070124786048 -0.29636283387130896
Ni 3.4301098833911507 0.5889617878100367 13.170869637312983 1.3923834880975374 -0.09698201124370394 1.0728622138318944
Ni 7.91631532387274 3.371015161766291 6.440711496593324 -1.3866267881194183 -0.5554120188938241 -0.8829471646028794
Ni 3.660054256088318 9.266434199243314 2.2121059874891653 -0.6328287064110907 0.4243001558459467 0.6274466161635711
Ni 8.100263478790756 2.849388128448874 2.334023960705337 0.9645997445783645 -0.5913174745411817 0.09836140808973381
Ni 1.2702060691472077 3.1933638349058477 11.684318875425024 0.09593711491895736 1.5758581810178474 -0.6643080079662946
Ni 8.657229853247612 -0.10004705162319963 12.383756951066735 0.01921051149017982 0.40331352629195055 -0.8969419362200746
Ni 7.797795434835742 9.09779669913584 9.982333064616286 -1.5959942896460901 1.079716517749566 1.3519109819047876
Ni 8.125386537673522 7.184634918442354 9.008388166053058 0.49853767430428336 -3.892001753969568 0.709834531643184
Ni 8.714993612673714 6.459600144956113 1.0299169074983137 -1.4394434176998177 -0.6902218996185789 -1.6407453686095355
Ni 0.11714486739993563 2.044770994526544 8.273616256701693 -0.07408479493055628 0.5352108613556008 -0.6526696523964179
Ni 0.4697268508055685 5.313999674761603 10.243041940109023 1.1333289037583836 1.9943152478194557 1.0613773531207462
Ni 6.90828127073194 1.9000173815995423 8.617350554152962 1.3633328505884845 1.8303675691884802 0.5716824739190735
Ni 0.24238198496832053 1.4980484394753015 5.465732119134921 -0.5856481920705462 -1.429386804794764 -0.2193616366249061
Ni 5.185474621609804 8.230312254183893 1.0632588874346511 1.154404236371444 -1.0842033498763262 -1.011628306722077
Ni 8.292335092646022 3.638859830454301 10.26801721629248 -0.1515621604824293 -1.5156138915148092 -0.6485054937163993
Ni 8.257115079151989 2.469678381717657 13.05218911490717 -0.7935753616062655 1.2497919065448346 0.22917605161216656
Ni 9.285618413004723 0.9462223328205454 3.1561326916342423 -0.054731330104608955 0.4170061932876947 0.08175131033687856
Ni 4.143826888663126 0.40030202670841647 6.556529991319325 -0.645197769499405 0.2229537248515386 -1.1753242743535628
Ni 6.99732723135368 6.025054755636061 7.074401875426314 -0.23163325490340755 -0.884520165516954 0.2561682639302943
Ni 0.7940777491180949 9.037380194361868 8.703734590377186 1.7425422847433796 -0.8116818413989891 1.246773174323169
Ni 3.9980727593246432 7.176750114795918 7.40561594915961 -0.5659491709797221 -0.5970528343630621 -0.9941286072754169
Ni 4.7346180610677315 5.284277912005888 0.9097429537149975 -1.4609908048532902 -0.5614808507957233 1.5665181345638441
P 0.6116184360527582 7.9161501009791015 10.731116793253197 0.4476100342164807 0.2649850908909759 -0.33665536284276865
Ni 5.869524938423942 1.5286789281460311 -0.2632817631086814 -0.5328624157280824 -1.2843267070969107 0.3722623134131008
P 7.904198978339219 8.914564510090258 5.335982580760263 -0.29077916913594437 0.7563149345929103 1.6241157304726546
Ni 9.206219633561568 6.919314488407162 6.751142366116769 0.7964488264993187 0.736927274094918 0.9153623477087912
P 8.199305424477654 4.961056036799894 12.490762640227027 0.05093843872108001 -0.9497595942417384 0.6678242486496692
P 2.1283187044099665 5.234086868538237 6.782847721501117 -0.16548674098332145 0.6661944263557301 0.6947652960148873
P 5.808236423933543 7.083169703648754 8.578982126630141 0.12116812157160424 0.4673141975136275 0.3555763681169876
Ni 2.964144607130762 4.624533718655966 4.764157160735479 0.536257043231928 -0.5121056427967051 0.5630391964217787
