# total energy = -340858.36381247354 ev
CRYSTAL
PRIMVEC
9.38898414225608 0.00000000000000 0.00000000000000

0.00000000000000 9.38898414225608 0.00000000000000

0.00000000000000 0.00000000000000 13.74172734525633

PRIMCOORD
 96 1
Ni 8.099069302553408 5.04489843280691 4.990885483928583 1.2100117984334195 1.8643138442269378 -0.4674535513049692
Ni 3.74937821220508 2.457106580170887 11.589291831224473 -0.2917286775334072 -0.612434716135771 -3.151240707950856
Ni 5.387596359739697 7.994025346210283 3.2796144662546247 -2.7196913267416645 0.3081564840721273 0.6924790710838719
Ni 2.5434664577579493 5.169452698524454 5.771965415689081 0.20011667235236505 -1.6273825741493844 -0.03261238671838254
Ni 6.812346560240235 2.5308101069221847 0.9107549495150055 0.5731803986208387 0.35913503200252345 1.0415865436470644
Ni 2.8193711503838914 7.1232064414133225 4.5458729783885445 2.01626295573514 0.44086937305853746 -1.758780858089429
Ni 2.169090097798553 5.441761410163677 10.31712389237243 2.1104038979856234 -3.1018392746995933 -1.0685139641655275
Ni 5.662308651359599 0.7489968335105801 5.156748463868762 -0.9399534067845942 -1.0154463949165866 1.2713616622958104
Ni 4.7444978801434985 6.420525467452316 9.810219202329902 -0.6485522877939347 3.295497335910808 -1.6207704681495056
Ni 6.6168772961083535 1.7354035240190357 3.300845776451148 -0.19274506247864226 2.953284019364288 0.4625090628155002
Ni 4.101915794683773 1.266151477712905 3.2811533207813173 1.726297283639427 0.08792427191680986 -0.5928043434993533
Ni 2.454872001907599 5.68736785045504 1.741434068634623 3.0896381046477113 1.7094650425734366 2.55352272919997
Ni 5.867720849864682 4.969692668567687 8.6853625493406 0.5066001395974437 -0.04046145044915612 0.5533654207774404
Ni 2.3700706957142583 0.6599169671719443 1.4459458325567243 1.7172670551163587 0.3988534336380679 -1.9590096305396265
Ni 8.084863769308221 7.747780454986552 1.7501461071661553 -0.1424691970422256 0.2608489572354153 0.9679905154274684
Ni 0.7193098040539012 4.414606527795267 1.5204126837315741 -0.7761427679521149 1.1371372217608802 -0.8366595943902495
Ni 2.524913824782081 9.002815375288815 6.657812328755868 -0.4865036259578847 -1.1284965153667468 -1.1528872855062855
Ni 5.56214696685223 3.187607114611396 5.352306923351489 0.7367156723047441 -0.6801853413181834 -0.21892069243274556
Ni 8.587409153940479 5.036664293576223 9.593938315599685 -0.992785205873645 -1.1452976460844855 0.3405621540963425
Ni 3.6688301158994254 6.586982770098655 13.206391336374162 -1.121946887173687 1.4173689543982815 0.9428893494844665
Ni 1.0658938315882633 8.982253499672847 2.8013198891696183 -1.425901674459641 -0.4237797645661024 0.7413922518448071
Ni 6.106585999428984 3.438349329314602 10.892173830460939 1.5248222974869545 -0.08129468241543418 1.0087340158934175
Ni 5.5212954961649805 5.464332528419742 5.5787842470309945 -0.580005134852156 -0.6663949724023104 -0.011393843659238442
Ni 4.24413073986873 7.927166389013341 7.898360046283958 1.2408413822197661 0.8871784290754076 0.7839177839118435
P 1.1803455501995146 0.044241832917807866 11.127803536035623 -1.8540065487636588 0.5803607184193618 -0.9354231230144083
P 7.242033426708154 9.132589916276897 3.5511786314388947 1.0830041873619027 -1.0101226687108282 -0.03652123485448549
P 4.197993271020847 8.569269636273791 0.7201144400083708 0.39574059904069914 -0.25352825520428596 -0.27759738033834774
P 3.637564798181996 9.087072120392783 4.707476176152027 0.5141733239590113 1.0564385210582323 0.34121058631361884
P 1.574823725544201 6.098520861915689 13.714010528121886 -1.179241350019782 -1.8484054005267974 -2.271537504206572
P 0.39774084738877263 0.07444243981567097 7.031738017468886 -1.1334659435568801 2.541269879974546 -2.7444232822707058
P 4.367023155365257 5.920468163659432 3.218725025275323 -0.25627445049085545 0.28105397142838046 -0.17335585931875305
P 5.949095176788695 0.6060204416989314 11.005130822771704 0.21342778763897435 0.9364412798662776 0.7716687913411614
Ni 5.969506828655869 0.22224570845570726 1.715050083854518 -1.292437509129503 0.1463682749863157 -1.307009236296091
Ni 7.314197160034329 4.7179082766072336 7.126734821713085 1.9063899474613812 -2.302634225611376 -0.3416492165129341
Ni 6.9953003083008465 6.894115224504828 4.33093941090531 1.5894850277726627 1.504098691786358 0.5051019577853624
Ni 8.932961332100323 0.9354986787379826 8.879230991649413 0.19080773624661332 -0.0871979352737466 -1.4119711804214778
Ni 5.672214029795601 5.910206003820048 12.7148357578645 2.5816873645596443 -0.6899704457294052 -0.9159444454645064
Ni 1.3740778522359842 2.3734976749835863 12.19800972811266 -0.038313807978534016 -0.28141778252570243 -1.157625057301587
Ni 4.9025520418417585 1.067612015715077 9.016730788919146 -0.8899061124192157 0.2238181297343629 0.20091371433236366
Ni 4.813722861383921 8.204901933577693 11.49139570862858 1.4930861427259383 -0.3091579287534482 1.3233601668502886
Ni 5.171875056473732 4.741023955952672 0.7996306869395069 -1.0333201898732138 -1.2218417011888119 1.833956829201635
Ni 2.267364596461717 3.293881027897758 7.700053431096759 0.6073051082186897 0.9987432232292929 1.2017171625247949
Ni 0.9864160794927552 8.00942328046151 0.4459326260013921 -0.3275081491258618 -0.0037550961670580487 0.551204922791012
Ni 2.6056121448365275 7.511994892272494 11.216176411856505 -0.8904002784468149 -0.5758738862926018 1.4950741196902446
Ni 2.7657412720649845 0.13560697803494887 12.424239182606655 0.44054052896420903 -1.1368991376081452 3.1459822877653947
Ni 7.062534824869769 6.937774001497636 7.220783338543031 0.2058803143090196 0.6650929657614352 0.5684169157939243
Ni 3.3268551407577016 0.11945510834447012 10.302104334188474 -0.00885127974304282 0.43727985593506624 -1.6237190092548681
Ni 6.387448075765077 5.143529712873456 3.0055772426058587 -2.2314277806698795 -2.1926604300936945 -0.1333806044773961
Ni 7.65761803875818 8.768644717874277 5.689391176571589 0.6441153350685036 0.02108690257728626 0.6880881411050278
Ni 5.659341732320947 6.881252316014475 1.1747778825098945 -0.3337297045555414 0.827639136059194 0.9097820254075365
Ni 6.954270446911908 6.57334996489574 10.915906366074855 0.9889676318997678 0.2529407581319321 -0.37474831305974815
Ni 4.323129653764962 3.541590600672216 9.618632283205875 -2.7912345861972896 0.2225500616552167 -1.6290509629907428
Ni 9.175065681247963 2.9920157936836196 0.07592871603028632 -1.5972297047150879 -0.9457461022069712 -0.6838779596784221
Ni 6.494876834120281 8.4615779863582 13.476800656489589 0.7047517178036379 0.09760601798094803 -1.5015047058069366
Ni 5.220153213741907 7.610184890076963 5.939999128799311 -0.5711811088026227 2.072926984086088 -1.446180222203019
Ni 0.3621378189249609 4.5872323931263965 11.965856763424089 0.24254244561674357 -0.7310031953009991 0.942010803534255
P 4.426399092075474 4.040305279710267 7.2835552708743885 -1.9880363567892796 2.3980707467448314 -1.5761798260233242
P 7.6107294511663355 4.337814025209425 12.269617633568302 0.023984792950371595 -0.03774507995925758 0.26861780254755674
P 4.884450080112269 2.8708509512982054 1.947793615655528 2.64555793796136 -0.7941805992904322 0.11067030736407392
P 6.25198381029148 0.2289560155345802 7.322540211482891 -1.0725511103493786 -1.0961949750205637 0.07436761627829773
P 8.239763232281842 7.1961212934834595 9.144941125122926 -0.8222336487729066 -1.055204648651131 -0.4264940781734719
P 8.501133777212113 7.981594330997708 12.55577509704933 0.2506288221693038 -0.8234189273302593 2.32682342126307
P 3.070338700710286 1.882331739322356 13.430711071461634 0.2331034116910308 2.015215488307233 2.670566029969923
P 2.6818694753172974 7.487067138957246 9.16677708590834 -0.5175784929858183 -0.14513517391016295 -0.5837445472899302
Ni 0.1967762107463765 3.313776285628459 6.631029312143032 -1.6735351614460465 0.298790212365879 0.23051173970445463
Ni 8.207840685663443 8.775414175554236 10.654565865894343 1.202365080521439 1.2456341756227192 0.15918882378975166
Ni 0.4909978728422686 6.549398665947643 10.964702795276365 -3.202795697210013 3.3528365359519094 0.045303094812173594
Ni 0.44346895652119583 5.571404505371564 7.740000742595962 0.09017038763850922 0.7463938188244564 -1.2460913177647959
Ni 8.24235459194851 0.7182685656950836 1.7606589528863372 2.080982764511029 1.0244054038820873 -0.30439521725748225
Ni 8.645630245581854 2.1153475516680524 10.780137897509956 0.5067250952110821 1.4386389195206513 0.42061345102297887
Ni 0.42616318066030506 6.992380334183694 3.7085351916037013 -0.7704416038022797 -1.223883414209189 0.05228775366012285
Ni 0.6863065853426288 8.117302710063091 8.444937889484144 0.5345225770393246 -1.9698972239864074 1.8044138254371958
Ni 2.1187463639844815 0.9946502187234416 8.467735282261831 -0.5791602703533575 0.8056109526145608 0.2954745177290847
Ni 8.24873910127219 6.010611801919205 0.20515587923370562 0.1691770453507151 -0.7159025922141348 -1.0127143406974044
Ni 6.269672656711792 8.663901209028737 9.37124005810074 0.4009046597401418 -1.998032548770043 -1.3064806174861305
Ni 1.3243537913856818 4.447674530498206 3.8246938275606066 -0.2274456991846212 -0.2777845566484894 0.42166683198815763
Ni 2.014106133966237 1.6428093608570864 3.745279920558336 -1.7828484405615939 0.39507879708698407 0.47911684657551035
Ni 8.87190476720049 1.0985017740605256 4.359659374979137 0.5337959832859452 0.2239364004797821 0.04230364586421747
Ni 7.594345673563659 1.7456281279212222 6.643561728386044 1.4098767597862945 0.3199149101596361 -0.08012148804293943
Ni 5.7271114209949445 2.622944209853457 7.726973526880366 2.2878465257792406 -0.6058454929540277 0.36813877816303053
Ni 7.344382744557313 1.584700937027305 12.57506852088643 -1.4065523233987518 -0.45857398942715216 -0.12014585095467695
Ni 5.130760694226097 2.840881313414111 13.252288447223977 -0.04877588385212245 -0.3815794770489686 0.24492482980599106
Ni 2.817483964539686 5.682100630263005 7.947404344670975 1.2794284984643451 0.2266579131760032 0.6817467722680324
Ni 2.891206269259583 3.3547779800644992 1.9500882834183328 -0.8552039330513401 -0.30500688269955206 -0.1154535876853302
Ni 3.46207529263951 1.8508035300445396 6.314667486170423 2.0254587633017955 -1.0144238671893433 -0.4335299019743308
Ni 8.30448150105849 3.4566672376829817 2.5672431215980747 0.03304407493916244 -0.7145303944569565 1.415058818207866
Ni 0.0820174723485305 0.5318390156467873 13.307832739441556 -0.21715177345778083 0.4118372474922456 -0.7424253210950117
Ni 2.9556053125700483 4.23555859720326 13.225327039909452 -0.44685541543864327 0.06353324466695509 -0.3993879659852993
P 7.863696855148529 2.9831244255519667 8.838555094968564 -0.3257561994317616 0.13718043783946052 -0.553782196599885
P 0.9556953228646983 2.2533750098554193 1.8922220953834792 -1.7216638986324735 -0.4865218807903299 0.23937201830856197
P 1.9868874684819045 3.0603675993841866 9.949972355831521 0.217697875769238 -0.13507676123289641 0.4185457698606727
P 1.2112165305763642 6.937989948136525 5.760971853972763 -1.6716549137041985 -0.8737976368931274 1.7412976137030012
P 8.285515752773444 5.68656039780528 2.60815280398798 2.437923617075711 0.8052725954385357 -0.6137665475733172
P 1.8644457242317545 2.863114428235394 5.496677579331618 -0.34719817135562137 1.2194942840025578 -1.2172617951276132
P 4.298906074272178 5.212435468647695 11.248635069478404 -1.2926213430055353 -2.9527780262621466 2.6365804170530978
P 8.140502890267227 3.100477340311772 4.893855025685106 -1.100244719609905 -2.935508697658738 -0.4178487437936481
