# total energy = -340863.009194074 ev
CRYSTAL
PRIMVEC
9.31578480149698 0.00000000000000 0.00000000000000
0.00000000000000 9.31578480149698 0.00000000000000
0.00000000000000 0.00000000000000 13.63459271095020
PRIMCOORD
 96 1
Ni 0.5560489475772389 7.9139734539027975 8.198930268953186 -0.6070901639944061 -0.05698053115010186 -0.837752570344112
Ni 9.096267650711082 4.921994901102787 12.508675024335716 -0.7177856681694605 -0.29130136018800157 0.0392849136425517
Ni 0.33404075360328034 5.372208149102211 8.159104357338338 -1.2316939113925434 -0.8061007477667859 -0.7177098206262027
Ni 5.52783765003497 8.987915757657754 3.1628980513312928 -0.11504478228268575 -0.13714932749120895 -0.38018388225302263
Ni 1.9768840616508379 4.707601429627478 11.261955654559593 0.0606086148209924 0.581096825254438 -0.07094599219125847
Ni 4.852992883060829 6.270156646343239 7.212494858174511 0.2998767605618384 -0.7067741475503053 -0.487279842002277
Ni 4.110236044866779 3.313540812658562 1.1246509151776365 -0.07453088132903939 0.34728121798773093 -1.059597121291872
Ni 6.519223468858398 4.307181051404518 8.303303390316799 0.07261078148819107 0.9782062796182055 0.011238806138612901
Ni 4.932549685285525 3.902820096209538 6.870825408395376 0.836187282739521 -1.2427727949145242 -0.9325154624493103
Ni 8.572841649938372 5.4266123323565685 4.6557227556334375 -1.2044939539389836 -1.5261772688529522 0.14401108760804876
Ni 7.105046596247153 4.5229439432459895 10.434730732392271 1.1850867530569655 1.3149197493924192 -0.2803695437668462
Ni 6.125557034618213 5.529384070312405 5.004536480778628 -0.4876025154490183 -0.24941911813191886 -0.3489372655339152
Ni 8.089864786783883 3.548512852765528 0.5619365235732584 -0.5747441435635328 -1.2284633202703876 -0.3702625093742526
Ni 7.9641948497802355 8.703113584635108 10.516361228314297 -0.059973295229838644 0.16001183391167928 0.7248068366823001
Ni 8.241320816124526 7.7547387442509566 5.297530023379281 -1.9168875045585956 1.7878435797833403 -1.3557568380134393
Ni 1.5061201923741687 3.430919701186801 0.7183811556763523 0.7860191465255624 1.12325635001373 -0.150331887619754
Ni 5.805979036922877 7.8933203589927095 8.460796979788803 1.5105020242095406 0.293981478123326 0.49135452629228277
Ni 3.3940850880724636 1.5593785340976563 6.999155001960515 2.110215436123901 -0.4158057452216903 -1.884142963137723
Ni 2.9619165152380558 1.624337501534752 13.314616172961733 -0.6064157636352008 -1.0256500749224657 0.21729524101418057
Ni 2.7807338165883952 8.938094940526879 11.516377190179993 0.841051809920674 0.4383520059533225 -1.1641209494385758
Ni 3.841717863681226 6.910784535732918 10.571486453312474 -3.0664788929224285 0.29862720442545343 -1.4409423708428475
Ni 5.8284952887937305 2.1469157658903155 13.394350906676182 0.7586186430254225 0.4724180943990961 -0.20766311724105527
Ni 2.3468511393500826 4.7092316919681485 8.82842579550229 1.6106827448962002 -2.6018160169887192 2.0740153320542603
Ni 1.9716020116670672 1.1934172438640573 8.549339788035272 -0.12978723069918294 -0.8028670713208367 1.9146817551565285
P 2.4111766334205185 8.22972266404376 9.140262376025644 1.6351822726994614 0.3562381700707026 0.34200274319761104
P 3.9217963498549366 2.7887733388740994 8.771024724276538 0.07734932461444098 -0.34633170959026804 0.11722122110871426
P 6.933636155856709 7.041252101910535 3.2541545476911167 -0.773393744452068 -0.9573541187595448 1.7708848404418147
P 7.659848160239159 8.977267815626979 7.912209044260952 0.2526157706923456 0.24267717142239495 -0.2261740315610492
P 0.652460799247501 4.762806770374965 2.1685004392807863 -1.4471320445933271 0.24907998962494526 0.57232756370224
P 6.63960204009347 3.4419589061793383 5.1636379747077745 0.4082464448171937 1.182774817094337 1.1175654702765399
P 5.360470260249387 5.780453786560386 9.463211756241487 0.27096599106475916 0.1327601972845778 -0.5392279529347939
P 6.757977717595718 1.2846467244479498 1.8837420504467193 0.9531210545148036 -0.011628328267547715 -0.38555414542600047
Ni 5.202241655356359 2.733763629607492 10.745981350051464 -0.6135552028934593 0.366348261921511 -0.13829475394956184
Ni 6.102835835481676 0.6730496152424424 10.32506810841704 -0.8481187440697845 -0.8431775980144253 0.4415620282501879
Ni 7.349651157841278 8.300326997071977 1.6530850818608864 -0.13494177831692888 0.04421911771937546 -2.952940777092256
Ni 0.5467685627556649 0.6208663150853168 6.608905597586374 -0.41387844629199044 0.906126173822504 0.7829857590158773
Ni 4.302029422408 0.2010569939501482 8.772278628911135 -1.484986139326623 0.4168964071827078 0.8786217977546481
Ni 0.8105692305165587 9.352116364563429 1.0962126189069894 0.7649494703394567 -1.362470245477873 -0.25883604057044457
Ni 4.927752056111553 5.241582214582928 11.803726298768003 0.06953857032077057 -1.8416963639377377 0.21487557582909445
Ni 9.125593741273535 6.7048591126442885 2.736421423012024 0.5304728324499831 0.41513160197280113 -0.06668644558395612
Ni 2.828179108594294 1.9361181873492843 10.877814610281323 0.0600321734922321 1.042525767631882 -0.6371700140989219
Ni 6.079415952484851 1.3291482284558385 7.237719208687837 -0.35305308747450165 -0.2565433878815259 0.9778926050325287
Ni 3.4167131293609625 8.650358295291028 4.501528817138948 -0.07110951435231626 0.5530237211673056 -0.9265972971926623
Ni 7.575568255118922 5.786723309733364 1.167219393838731 -0.6843484715569375 0.8361032076661471 -0.2337562147836813
Ni 4.343242454380138 6.760632716264809 3.4821928491685927 0.5247603554462382 -1.4602315580897625 -0.05861600987099582
Ni 5.873332161054557 7.862662111203309 5.155948725930695 -0.2864530309567647 0.31357199866074387 1.3121748396574304
Ni 8.011137089406727 3.520472340506005 3.0244114575945393 -0.4531525613012648 0.5972479810930037 0.6780700947473935
Ni 9.094208862269438 0.8596531690694508 9.118883581479338 -0.655989203687954 0.08410592661198418 -1.203356755010747
Ni 5.985335841750987 7.312145808221064 10.835015100157094 2.436077050785275 0.8202952940996131 0.8285392792759602
Ni 4.72213405392145 7.450298896861841 12.789111820599286 -0.4324682934790358 1.3621758541659057 0.8324206166082373
Ni 2.7816747108535815 5.121688064157654 2.2145846951268453 -1.4072853449100344 1.2137229287364195 -0.9617159952726664
Ni 2.8437830481407063 5.557443214141537 13.475040508333024 1.086902493975044 -0.7762762082061857 -0.05871782555618275
Ni 7.8674597403772815 3.0133675947096004 7.011302785344707 0.8882037850161284 -0.22508234115876719 -0.8150672129314542
Ni 3.9897549999988655 2.5143955290469386 4.812929418933484 1.2227310457723006 -1.1304567244169113 -0.34483429910913516
Ni 7.385945455436994 2.375152493584114 9.286848113070846 -0.16569448611875334 -0.10752147732244709 0.4724674595797927
Ni 1.597945883185506 3.2852767215637466 3.4936466065849 0.4037290165628144 -0.20010767349130054 0.03934173502241612
P 3.4327828581475672 3.5466496958047626 12.472147832119905 0.30528739005444844 0.6970255528039737 -0.2244177109915748
P 0.14633607401245957 6.496977374746856 6.248856104389286 1.5487608105804231 -2.5500882495971244 2.0191765298375093
P 4.036054450473893 8.122022875926698 1.6433361130636799 1.6272871862221006 -0.7526909646870779 -0.9081522031135972
P 0.6174679167888801 1.7773306353680278 13.448944200362059 -1.2938814406648813 -0.9631799814127024 -1.541998809266241
P 4.771451818672919 0.5768231476897764 12.260948743253827 -0.4434967833790555 -0.2891004958819408 -0.7916053823640883
P 0.8669865548670245 8.58566016982844 3.140510357290732 -2.959358250582826 2.9522617487473606 2.851418197665722
P 3.690429518467052 5.380881144754575 5.410765250826776 0.978984552545127 0.8132913519779541 -0.8078946064424151
P 6.813443900317713 7.632543594979138 13.147087620099045 0.9919444551399044 -0.6305602220918883 0.17299590487617306
Ni 1.5944804112384818 5.745715225026911 4.397455664046017 1.0690878343911263 0.18443165751694043 0.12585087175925425
Ni 7.741985434854516 0.8921158843753518 5.554501289300487 0.9220402739495991 -0.7321823032107648 1.9417932666613398
Ni 6.448814767311062 1.6998326215849782 4.044047393835578 -2.260010734513895 0.7666952493859699 -1.5132281648914518
Ni 4.797116805807466 0.7377933880505702 1.1175485608431976 -1.3280604005394352 -0.8738711704435401 0.5239358026624138
Ni 2.5217270516875514 8.12499461127912 13.564524210844677 -0.37831700424761294 -0.6252300681282263 1.3102053746358855
Ni 2.4569637157313355 6.098625100750345 7.199187259582242 -0.8415760578552604 1.6884264767355825 -1.8869686055119759
Ni 2.3091315266793813 7.550629899199074 2.5189770320134612 0.8339311397154928 -3.0231437204699034 -0.9763746257261056
Ni 0.7212746384364214 3.5641167923119412 5.867374716672509 -2.0583241465712483 0.0016030828210617553 0.06713176065149083
Ni 7.466480415066091 6.290893583316561 7.366061844351702 -0.5523210386733262 0.3723134783660104 -2.360626228745128
Ni 0.265509182693916 2.8271077933418534 10.672572965797297 0.23630572067841238 1.5270699558705507 -1.1261951209270797
Ni 2.8037438050538515 3.760307220280569 6.395700820252034 -1.2704440355775475 -0.0911188675947076 0.7243517514227525
Ni 7.688279935460444 1.8908714205570893 11.915993616174383 0.8458787989956722 0.054146147025100295 -1.0245249601790871
Ni 4.9550473055867705 5.917023191784512 1.0223719822379231 -0.19959602396220463 0.3364843844825431 0.3474321417432984
Ni 0.47134890056234974 0.628935647882393 11.245853320526177 1.3834563608112367 0.14078255336842208 1.923944668515693
Ni 9.08798591802048 7.493831559250132 0.039580906474506516 0.8183561680953714 -4.05876221945899 0.8039060541083123
Ni 8.35787991559003 -0.01944390604255084 13.046696065160587 -1.6420445470369334 2.6246430421855638 -0.6245924345442275
Ni 4.330051303097917 4.103211943124693 3.270638828901491 2.0799435246132374 0.395366503530732 1.2812292991185095
Ni 1.2917919313924864 8.058302907868512 5.556628082971201 1.3470608529013381 0.5812276944053474 -1.112358986374936
Ni 8.169151431249267 0.15110668741050015 3.3299496360120258 1.1972308446186672 0.7651767558589145 0.9053160192163828
Ni 8.035591024516778 6.71410968695449 9.455849491511021 0.06814220419387619 -0.4183948461051053 1.1209176745782243
Ni 0.13572818985634005 1.9489926019481754 2.02859598309689 -0.7036502572093429 0.4902006151934977 0.8106587994511135
Ni 0.9407265810602093 7.580645357837009 10.744740487515594 -0.417980384275506 -0.5796297537906082 -0.7168693270027782
Ni 2.043231081023704 1.2696669424833935 4.894654935860511 -0.08093704196569933 -0.4448155021904791 -0.3346401321849527
Ni 3.478625835167207 8.163263855253248 6.6938487865846446 0.3917988407841317 1.198150528219459 1.490982209009058
P 9.35966215025453 1.9513867586427591 4.541396649785413 -0.3452690726537086 -0.1343195713518977 -0.31333725694211845
P 1.2369871693915633 6.475225017229915 12.533544443448017 0.5425778432436333 0.8532771483422724 0.21127088919697162
P 4.975830821484111 0.5595088300533807 5.481228915504455 -0.40938184397321753 0.11834479319019618 -0.18766996194858002
P -0.04522627206562659 5.168052725126309 10.350960400700803 0.08654796039457352 -0.19306079394684814 -0.4327655130044805
P 1.028257695076982 3.0581206249071924 8.170325220134549 -1.1960463373922625 0.5647402382732853 -0.7768004561407719
P 6.119548353419743 4.295964846500707 1.845115080336125 -0.03492226579848179 -0.7978997000132323 -0.0023664433496475377
P 3.1862871922382645 1.7553360674461886 2.475973506202028 0.16723354847109909 0.9780846664386769 0.6066147670198843
P 6.589529696772892 3.687150362216104 12.153848891678134 0.33551353592884153 0.7334416295391627 2.9246707265029697
