# total energy = -340894.4356648386 ev
CRYSTAL
PRIMVEC
9.03372530511353 0.00000000000000 0.00000000000000

0.00000000000000 9.03372530511353 0.00000000000000

0.00000000000000 0.00000000000000 13.22177012698629

PRIMCOORD
 96 1
Ni 6.356084032746307 1.892935856999686 11.378986226210294 0.022670187904006118 0.19793200599622038 1.1812259845499786
Ni 4.587036686075835 0.3122615594094833 6.051300591234631 -0.7323653657558484 0.20965726485294858 -0.21735026262183213
Ni 2.4293404046391807 1.670886886320667 4.889781215761544 0.9239511178190668 -0.5291484572116049 -0.8340103296928605
Ni 3.360103201506579 4.62456278144608 4.878013885037115 0.3390387754732806 -1.4977627222660013 -0.26324933914679177
Ni 5.007710177435065 4.64132034208927 2.647897840445643 0.40775459278243964 -0.020127109767178242 -0.11113567703626666
Ni 7.131006032494757 6.188797505527671 2.574820422080677 -0.29786590077939673 0.36196530236246693 -0.3675649079374315
Ni 5.070521670239427 4.6069921855156215 11.518793064091726 0.2811236483240513 -0.8318868555919545 -0.9344872414637002
Ni 5.823148435665834 7.872954934481678 12.355730685435553 -0.8714756736281702 0.891178551373736 -0.03187987942773219
Ni 1.8341443720046062 6.17251873233143 0.2854557859881712 0.5792685137964475 0.9695264924560206 0.1385698619878194
Ni 2.7295943362282182 1.5533671524084067 0.4057362263869858 -0.227925209924201 -0.26438293853060274 -0.45327186048794843
Ni 0.5187101896708618 -0.0011517999903000366 4.801842415717814 0.029761033312516484 0.07552435559056025 0.1330031665333193
Ni 8.781467665654105 2.232052875320259 1.3169211335369082 -0.6336727995789408 0.7650983372124953 0.531484304433633
Ni 6.93342039023717 0.6112191514015951 4.864421741779033 -0.3164632041656098 -0.09622790668649879 -0.023903031869842703
Ni 0.8990336430953925 7.281435628090649 2.132248276945084 0.6443750164877934 0.0869505951496309 0.3322245807649246
Ni 7.641294079962037 3.9503035839871465 3.618256359175662 -1.353305034038837 -0.35553265936324574 -0.12036259495117335
Ni 7.6674557487613235 3.6973050700393593 12.626367548254406 -0.241545628921113 0.6331413525555032 0.23075830849762194
Ni 7.88147373754719 8.852680523093596 6.990547863010969 0.12569891956242224 0.0828586844684444 0.6281451848924925
Ni 6.874827647201201 0.823159383342216 0.4418124088282658 0.0028454398685950994 0.13926637383421175 -0.29850327725307946
Ni 1.8082717824185728 6.463242083608574 9.218985441420498 0.7675218590523233 -0.1581971493004437 -0.7745700241483563
Ni -0.0029413809948367993 4.731097505254774 1.5155718520208203 -0.20120861986496313 0.24649037452089806 -0.5220028473057591
Ni 6.1048109603526175 1.9853599017115264 6.728188602789074 0.6594851326563546 0.3323387377452857 1.696900832755181
Ni 3.491200624716259 4.372774786703785 0.38207599615486953 0.15389543660129626 -0.11705127118975324 -0.5282177178672193
Ni 5.911082718846858 5.613846051546135 4.738311838370488 -0.05940996652720091 0.7895636693437111 0.4810148349291716
Ni 5.4630460732082655 2.8657867805714603 9.442842963927424 -1.1279067043015478 0.5833290570190663 -0.8479349101937527
P 0.1634860389369165 5.636972388606277 12.434678218574613 -0.3909879148470621 -1.3039758487864057 -0.8057662472455025
P 4.281570294922851 6.264735001358746 12.528619025783483 -1.551300032062509 -0.007513791878541899 -0.6046252473936813
P 2.58358223235983 8.518486885123718 1.279106862325952 -1.446088433820161 -0.2397186030147033 1.308857088138107
P 6.342262432862707 7.767450055370195 5.873758075553347 -1.526026602207701 -0.8351531850480519 0.2449610823605652
P 4.7176191869369095 0.894215053959502 12.504700431004522 0.26512007380694336 0.4029291463693383 -0.29245244307330925
P 3.887925710002662 5.942619454267544 8.37350552932508 0.7932331477754984 1.2461849059198666 -1.1968356660627775
P 4.498560379369964 1.296854519274528 4.056901543873738 -0.12781185214036697 -2.2850108561026583 -0.6046854112076554
P 0.10403147849644072 5.773417777261114 3.472288520561803 0.4952834290330438 -1.127932929553793 -0.16465293222811644
Ni 1.4053856963997409 1.2543056725740327 2.640347452744523 0.6130620653071248 -1.138310159023059 -0.15997403869520838
Ni 1.7220990756933017 6.626273726157161 4.741353493717422 0.6035034750844122 0.3210269122768923 -0.23016129834357138
Ni 6.077989829598101 5.661471851929366 9.095850343790822 -0.05971155692801974 -0.21969793691840228 0.970107047549839
Ni 8.465937704389793 2.3771796740980635 10.240142404899187 1.0527384464988256 -0.2256119884099921 0.7328086239408541
Ni 2.396385374328478 5.1511928381875 6.895484163733124 -0.7408458924230338 1.4037513636148469 1.5668696043659918
Ni 0.6849316406631731 9.054231970807981 9.283956897971377 -0.5826551708804933 -0.21318456127991672 -0.5571783667656275
Ni 1.5578117453121527 1.0301879787751809 11.447474512064888 -0.5888682416697407 1.6273519780217651 -0.5015844315504071
Ni 3.9983359020140115 6.539595130808699 1.4225967500587187 0.39293758237426524 2.1543826175594187 0.9492793121712103
Ni 5.519271980185735 7.85532110247332 8.051118970471453 0.5619302796283161 0.022913414263063762 -0.19147236641380572
Ni 5.316519046991272 3.0577534456214663 4.763989299487577 -0.3514852287667495 1.4139532438485132 -0.3155275797252179
Ni 0.6121956971188613 7.267785668989918 6.933073495181268 0.8707699058103971 0.5071542123287007 -0.16722969181635716
Ni 5.190471476288085 4.629630701403401 7.048036684801333 -0.39969855524718256 -0.01985020195670775 -0.12230763449268613
Ni 8.349782063015065 7.003413694745756 9.11293311854892 -0.07371044231027306 0.741712097078071 0.2835381713028149
Ni 4.7018914709909305 0.3942164197389026 10.215668236007255 -0.3217972147840135 -0.8122616251618592 0.9262784804006629
Ni 8.060314399570483 7.071175669077055 4.793539518689698 0.1504326748636764 0.6130327547310861 0.282718503614997
Ni 7.483520065604467 5.985358009201735 7.0420202236755305 -1.382037111866207 -0.06684662531090423 -0.6443583043172451
Ni 2.3709464035623222 5.0864119932428595 2.500779105214025 -0.2843616956453748 0.6464190435010158 0.8574045402470846
Ni 2.4613017251543297 5.329093992767723 11.36975737232723 0.24633559411058864 -0.5067101828127467 -0.31410833078018807
Ni 0.8990968791732913 3.4250827884103296 3.6506368445500263 0.7205704300034493 -0.22764958766531115 0.4760268947962769
Ni 3.7479571684363187 2.667848823022722 2.583534353615135 -0.6295577489693028 -0.23565086070323285 0.8545686134601862
Ni 1.2328686421663309 3.303380439631333 8.514079330494168 -1.629107013039659 1.0252327848793892 -1.4250128440967846
Ni 3.5550329284924165 2.8324794349696076 7.01049974896059 1.258030235294227 -0.1949245866284643 0.35792044286913194
Ni 4.056133677213538 7.032737167439983 5.984477220973859 -0.07131777370838041 -0.8169166074353673 -0.05154161952271769
Ni 0.8896999979975259 7.370815307337932 11.229183571158142 -0.5803830870168649 0.13478494102409044 0.5910482800401949
P 0.3375361163731025 5.352563611393602 7.8776895099712165 -0.06447015465892768 -0.3343670810292242 1.0145938171083042
P 8.675222021058664 1.6082018656721029 8.124910053144134 -0.4130189265051725 -0.06793317350686365 0.5349074711825691
P 1.7363181594951234 3.186032346501941 10.572987307664736 0.5473870917068185 0.003957956206483507 0.6042156706600884
P 3.871439161121897 6.28615396431562 3.736260300770119 0.4569655072894518 1.2642240228097648 -0.12005431968213519
P 6.944269894459525 4.044706014564679 10.477472825488725 -0.13626332534182983 0.1609448872489099 0.033727731269748366
P 6.57041820192167 7.690229770530315 10.115857314024293 -0.9435742913666331 0.4432180757963722 -0.08071464154224808
P 2.2703197361744625 8.562210116128048 6.0456147644589855 0.32893254027721414 -0.6321946723715177 -0.9562122918456177
P 6.6951920173414665 3.7541452703449893 1.5231213363493987 0.6598551144012637 0.0010875766372239334 0.16356278448773123
Ni 4.96740169463727 2.6100781489994382 0.5929963204962365 1.7123153675380383 0.39637514730090445 -0.4380583859723036
Ni 1.630433863916247 1.3009106619854671 7.136225719039035 -0.9858218871819344 -0.34234701391090716 0.07331294976153825
Ni 6.850039104664861 0.7395676119677586 9.21923657898701 0.7361708555448677 -0.2825408403865521 -0.8901398256965767
Ni 2.7423318890621244 1.6199005400833855 9.229152899374089 0.5021513597974707 -0.4318028919808951 0.654021538438622
Ni 6.283940701589162 1.8060043173396292 2.826840583566115 0.39242104774916287 0.29188602904687794 -1.2636141571399078
Ni 4.201513420302938 6.948362172072121 10.332813070314831 0.2023882419953611 0.07705339064057697 0.21415515272330213
Ni 8.075915643360666 7.111782264813514 0.24788181187323047 0.4754676798586972 1.1916831753275605 1.0897564184840716
Ni 7.550387701119768 3.652226780222911 8.311628123728537 0.5840931888786005 0.14177834162278807 -1.093044345206724
Ni 3.0096127228896314 8.301894284594825 12.371570419576667 1.629797354238464 -0.816312398192465 -0.06588580405953169
Ni -0.06613771050184021 4.892710852913344 10.205554077033609 0.9641557150624106 -0.18896451239028747 0.4254090726394093
Ni 8.435873466211609 2.116357953941651 6.03415187028101 1.0676719278802065 1.2511389074910322 -0.6907836856593199
Ni 3.7755371321256206 2.6068892439282547 11.416734551225726 -0.6409785892117348 -0.22191217096090168 0.10100861590459378
Ni 1.1991457451954286 3.583760175309311 12.683948514043992 -0.3734113394158795 -0.2614446818378852 -0.18115684342041058
Ni 3.167693883911282 8.392692258732124 8.089833000733655 -0.19989889991460413 -0.223700373209576 -0.10119810620758057
Ni 5.5522631453980935 8.153099793298889 3.5132627889226176 0.08165823640244002 -0.6241399203878413 0.2855030083386696
Ni 3.112524922807263 8.504674318965531 3.482085595773414 -0.28328646030332505 -0.10690724077721589 0.44914755390692973
Ni 3.332812317030529 4.13210730794627 9.303697394746306 0.7175293291842804 -0.10788117465471098 0.24739128906861263
Ni 7.174476319187494 6.068685092421559 11.585087058043229 0.29511404906587235 -0.7694314173702104 -1.8799050137969753
Ni 0.7067625414989306 -0.07817876310631801 0.1155738694580592 -0.3108173187337421 -0.19785513001169797 1.1489128742395698
Ni 4.61058760823044 0.2701174236075403 1.452808237961153 0.1914317429838574 -0.48001827534385716 0.302177383670557
Ni 6.017183823835673 5.54979693836004 0.3953212443570492 0.5278857884490973 -0.12550428705311287 0.7409150550980723
Ni 7.941403471944449 8.932096003209107 11.405733280416415 0.5292186483279079 -0.29231437483354816 -0.11936140738016862
Ni -0.022348533301986353 4.833467681647559 5.53062646965874 0.5995612026072127 -0.5898822847565518 0.6806136871048537
Ni 8.17657844565018 8.567639385101932 2.740635355429353 -1.166032821749308 1.2353803591051948 -0.4140270560547128
P 8.389051667390236 1.6569207468304408 3.592249167080958 0.890570228365776 -0.1094793723797663 0.16074536964359412
P 1.9482222565340874 3.231851401802347 1.5355896841659642 -1.4420098928754133 -0.3600842832896702 0.40062852326061976
P 4.671348445365798 1.2577475219568115 8.212702506836157 0.3418747022601789 -0.7553114330290605 -0.9848433253187491
P 8.581569389690502 1.7264262301666642 12.474938822627712 0.14903476607488528 -1.176692101235367 -0.8538078240347619
P 6.429826333301752 7.992073637792236 1.3821247568309287 -0.19658577638097113 -1.0957008089929645 1.374690955913781
P 1.7481342723367894 3.346561647110817 6.057620585534348 -1.4686161826090318 -0.7277350660726886 -1.4659229520475852
P 6.945895965034068 3.906318374945806 5.938280555951143 0.6050607922692032 0.6585178836470788 0.11060140179935146
P 2.58941801897735 8.534133297540968 10.217215713170695 -0.724366663821088 -0.07320239232560297 -0.28906321488610215
