# total energy = -381180.95594868716 ev
CRYSTAL
PRIMVEC
9.06509657987862 0.00000000000000 0.00000000000000

0.00000000000000 9.06509657987862 0.00000000000000

0.00000000000000 0.00000000000000 13.26768515866505

PRIMCOORD
 96 1
Ni 4.437337603411612 4.373066068329295 6.205919825060361 -0.6490546813516499 0.5321216809073158 0.6225944302775923
Ni 9.02570878171835 0.7576825322798518 0.46296536283440975 0.2368446239010179 0.16320283004515118 -0.21064816801130817
Ni 6.983487553300238 2.743759991251024 9.801594934534 -0.26112560793556966 -0.1800751803204576 1.0017550134724234
Ni 0.2258623215087372 8.218117453451306 11.711770339450979 0.19921498647370206 -0.34499165062260584 1.1170489356514373
Ni 0.1597279090696632 8.67407368357406 7.238012803832497 -0.8741077119343785 -0.921308280879581 0.752307098985098
Ni 0.5359584273811396 5.068395239973012 8.717519065666515 3.345575226403806 0.08399871161015857 0.644478117724561
Ni 6.069336014187971 0.0065504388223528035 10.073343868656725 0.817213826960812 -0.4138486214953195 0.891889975618464
Ni 0.06858289503790807 3.9276434804866063 10.912525245648007 0.5812665180630827 -1.0683442713568827 -1.0031017573083048
Ni 8.356813431837686 3.9943535265614667 3.3173059352845353 -1.2431851998615944 0.9345666885513839 -0.12614500596090533
Ni 2.663216607724032 2.1477026927647747 3.928495599569503 -1.3186892437371804 -2.1979527888408854 1.3081194386411341
Ni 4.002294551206334 2.033935730101437 6.639999257494235 -1.383790604222204 -0.6187593728022183 -0.03094296943575961
Ni 0.8349978348981258 1.8854766426482517 11.818734853605745 0.5083675159105115 -0.8602314681729184 -0.04884658918905781
Ni 7.118829445934789 0.6702587404132999 8.103411346777456 -0.0644873810501083 -0.14397946303916495 0.15266670640051772
Ni 0.8203812730974592 6.552560054963418 5.393632776740758 0.9773161637037684 1.8253433765010112 0.48272744674490414
Ni 2.4065565269362175 7.227012309076166 11.141352760263294 1.2375992211333848 1.7074377277307626 0.40298313953572534
Ni 3.144944907556097 1.045504789231132 11.627441371572734 -1.1950713750735031 -1.5286195597458576 0.6088693673820159
Ni 5.30701577847397 1.7671590014783807 11.569620559249879 0.49973195172270063 0.623127677073243 -0.27440304177076613
Ni 4.690045302070246 6.1719166476141325 10.509386801019911 0.04666140861228093 0.7901388251208908 0.6966807678700454
Ni 5.23052449313905 7.076105645533808 6.075312632393863 0.3655013405401834 -0.3165614203063709 0.4629407510362801
Ni 4.381986123409831 1.258072240027355 0.5176396801181856 0.7764356166021854 -1.3603555131277152 0.08732391932864962
Ni 4.855873114659921 8.97412838191322 7.649975213516888 0.3640898049046375 0.5150277015395066 -1.4248310671032816
Ni 0.258836610487852 5.607632512803979 1.42242878743454 -0.7360248168853066 -1.613214253068802 0.7194607418790383
Ni 6.78410981809566 7.028015307929905 11.297460069740307 -1.2427609678399822 1.4347866356540966 -0.6187740280902376
Ni 7.525643787244956 2.3963129677482033 12.399779445568747 0.02554982344464632 0.43259376331330657 -0.6980650498120817
P 6.4829401128714315 4.838495324426804 6.8471738823073185 0.8305012880983375 1.5494948605329701 -0.5184069024243847
Ni 6.699323969347438 6.359237804305384 2.2074643422753764 0.5875088994283688 -0.7073642157258204 1.4296603701711248
P 2.382815038871254 1.4018899980077415 8.127227168634757 -0.059241302159820555 -0.14519970859951123 0.1402613907576294
Ni 8.783416879083635 8.586559240741241 4.727342735630566 -1.8812306745869343 0.2283980357955615 -0.032999080633839946
P 8.711956722376456 6.810443923795819 3.2349404673356044 -1.1678683322961498 0.007626406197006219 0.832967747360959
P 4.586086773956846 2.793889975595905 4.545495990792096 0.5455973467962475 0.34325846998158305 -0.025515627772601218
P 2.5729735708066195 5.605864818961799 7.106569809257029 -0.6775841562499105 0.213632961671245 0.7317441872320818
Ni 9.036559702380345 2.008490003870681 8.798836608445415 1.115798351073788 -1.3208811091821768 0.1583305895545144
Ni 7.726680435132194 1.6410181819197875 3.909456177124737 -0.430051199397111 0.20949477113315534 -0.5192715644175251
Ni 2.5916295396640816 4.989528899321933 10.638374967428907 -0.5959452031211802 -0.5709584512688555 -0.3272078442766236
Ni 5.373100332881599 5.252534547748341 4.239874416614564 0.014245197065104501 1.4676607606742984 -0.9327944271423098
Ni 3.6981968197717268 3.081770249165595 2.112627114387623 1.3427033472635908 0.6637297668653214 0.09702649132839418
Ni 1.6521954460603372 0.8329400579638966 6.120343499886303 0.18867680594653957 2.1451006780368607 -1.3266990014155344
Ni 3.0480027642316565 3.343869387929346 12.418831559148789 -0.3107260445715165 -0.16906700213541206 -1.2745495731054888
Ni 1.3773326512463884 3.63601025691352 2.637443631505057 0.22325171570793165 0.5935000840147973 -0.9666190890012385
Ni 2.091544419163231 2.609533105501539 9.975255897118688 -0.03346625007824559 -0.38794732824852546 0.5466116469933747
Ni 8.268356218955706 6.370324417479668 7.291813245801472 0.03608723264086043 -0.20677274421630196 0.24335619976729056
Ni 6.7316319737245 3.5169402127236444 5.1584098364554345 0.18106556925818496 0.14496265288804067 0.6322661490394015
Ni 0.8259055429816855 8.003827634296037 1.841010530675646 0.4615698388306825 0.9611446961502286 0.06799076621767645
Ni 3.138272996438948 6.4385030092080315 5.2131122555387535 0.49833738536801914 0.46099751126698024 -0.9627729757822708
Ni 7.272709461170658 4.165919545315756 0.8310690220201745 -0.3797187696911461 0.7550535513819835 0.6808170613649114
Ni 7.60863474686112 9.04060273547579 2.2697025761843546 -0.6143270480624775 0.09026860377927035 -0.6005029976951917
Ni 1.4628165124348564 0.1251509110069725 9.869791656455616 -0.22840574910504535 1.440080022842552 -0.7124400875868311
Ni 5.261019478190801 8.262110367380005 1.6244426527381215 -0.3944337073038175 -0.924391290680279 -0.3702673944702591
Ni 6.091173831961356 4.562635368983933 11.388993976417343 -1.0218425282509176 -1.79177788184074 0.12959876883746066
Ni 4.596185291598836 5.2228282261031005 1.8618013297886629 -0.13995054438542998 0.7835141207155216 1.6878688044598997
Ni 6.307303865731818 7.213006734788129 8.338076783620247 -0.30666781534174287 -0.16776268150169174 0.21870369132593304
Ni 4.220708989326689 5.448231853722534 12.965620057469682 -0.77694469502812 0.7572729276308056 -2.7029804417448866
Ni 1.893191039877455 8.362850786190975 4.150887802089593 1.0266888005996253 0.5492750527581508 0.0017174969117389775
Ni 4.001578408572835 6.908709571227737 8.503458593455896 -0.8597874386569644 -2.518423571503992 -2.0430312249679203
Ni 5.9931620072349805 3.3610114856501725 2.8622244869862454 0.5625020929713862 -0.2126070915098919 -0.7819868854377178
Ni 2.7625972620410173 8.076284951632136 6.874956590448401 -0.2061615929948643 0.059101434147846604 -0.12540787068456466
P 6.9505540572559426 8.465576461163161 6.302720552877428 0.7141457574240281 -0.5585726760099928 0.14217917660563256
Ni 3.0225389078076472 7.151626965529687 0.9198552979096984 0.03734758741052277 -0.6817652842107935 0.2233154790663315
P 2.2481983539668273 4.593311655968216 0.7301101343805046 0.5278896451038393 -0.3939904491188118 1.4755111099566525
Ni 2.165270850027049 2.115684771479762 0.9264755379760758 -1.853341404375834 -1.8637350889053321 -1.463873525717724
P 2.021806630815099 8.782746061933269 13.247743994681505 -0.11074538357638347 1.2239366360446278 -0.8019389030796125
P 0.43416101830351295 6.222889685945284 10.539145700225586 0.2937531641626038 0.25096897911754196 0.4580021760840822
P 0.47355158267490743 2.558052421759301 4.7513969695291465 1.093300427081588 -0.16034016378537547 -0.7263494985790716
Ni 5.935163519018245 1.1841735723276317 5.4768340465986585 0.8096951499862636 0.3638085262187928 0.5929041023020111
Ni 3.1281926089902132 3.9316593182921724 8.466720476357434 1.1216370692427522 0.5936494651084678 -0.7907116669052253
Ni 1.565333690184632 7.141437796921432 8.822294358985966 0.4353921519940502 -0.3678287031217794 -0.9680247110995134
Ni 1.7361654361121694 6.234783092719332 3.0674356118700143 1.5314259188464012 -1.3813262018421115 0.7363153515425319
Ni 5.220888295425017 4.777904218574872 8.567992109830719 1.0472190593424933 1.1296098030355837 1.3957991986473057
Ni 0.3164598037042481 3.438409280647748 0.24486004450902057 0.5074514318541454 0.6576817608990285 0.05101454337465408
Ni 7.097870942534182 0.02186229353427658 12.473853069633362 -0.8862178649343512 0.5874027128678077 0.04559157258686987
Ni 4.549137440106985 1.6349264369867387 9.225804472575753 -0.4385885474441608 1.6635330559280126 -0.4590797254189771
Ni 8.280349341792647 7.789148015985824 9.43612377940859 0.6300969093022245 0.8281009061869609 0.3665112698619365
Ni 7.4984213020753945 5.461911084532014 9.540062364309408 -0.8783592881218807 -0.09968655465906058 0.7094794622966104
Ni 3.7951570932894203 8.627324980270885 9.697138732615802 -0.9793627618201519 0.39213822640142143 1.9579444224999056
Ni 6.110110818814241 8.17327242043971 4.006920470014868 0.2612107114502082 -0.4916160074837856 0.1592253334546419
Ni 3.0477670717193655 4.4377455327598065 4.066001330768815 0.30599907140949234 0.02434474739295162 0.32624548036335427
Ni 1.2698840609317636 5.885985369819154 12.653855973817992 0.22350831180342798 0.3354482299085449 -0.5266840548315123
Ni 2.898047935835088 0.2590859006450824 2.187416881085737 0.7757455325136963 -0.6621377397878533 -0.06113903340316567
Ni 8.055779703062855 5.4690815759636235 12.05004348516772 1.141733325771995 -0.3618650293391768 2.6667060327938845
Ni 0.7361248259922276 1.1980250399730166 2.6727621544718003 -0.10387848125322109 0.545040702961829 1.2443545375793472
Ni 4.044302208973816 0.14716912420322595 4.79707780444971 -1.834964701640859 -1.3790829143338892 0.9468503910147434
Ni 7.521727665502282 6.230377455758823 5.114918222370184 -1.046886872814055 0.3076263226002702 -1.27399627170518
Ni 5.951816101521238 2.79203163078746 7.629900557037369 0.5192864768158605 -1.020723841265442 -1.0494065539121151
Ni 8.099292166870347 3.8527476521579613 7.9266455885981735 -1.8290156831462756 -0.8272717254174463 -1.9392710144601184
Ni 8.226085673386052 1.7415319733150934 6.289692196005735 0.5991444267847681 0.2908321338610669 0.014736534879226233
Ni 4.779381829325001 8.10250121107615 12.365190662880442 -0.26803519057120934 -0.0591651975062465 -0.1394751474109082
Ni 0.14926044199497351 4.562580978404175 5.531058735089757 -0.9957219199044658 -2.349475097224315 0.6081186052589205
Ni 8.122281251915306 7.316058753238872 0.5894325258715589 -1.1213737882790364 0.5472150849053287 -2.032240047889687
P 6.15334226462631 6.305654018145783 0.09084405282375332 -0.047562323159995507 0.32193245481029714 -0.3083534305742819
Ni 5.04149003318538 1.0945922874639582 2.995432455874905 1.0126410642573076 1.1244691393749084 -0.6010221034234553
P 3.792609801137357 7.211683230680651 3.130098998810779 0.9023335395492911 0.4597425558139566 0.019408486433598833
Ni 1.3751207676695074 3.4880044242916624 7.236420972864873 -0.7755683835058836 -1.4678386810130593 -1.2381910890811128
P 4.274628184061473 3.5007680803418597 10.329741968152033 0.5065006379051019 0.5730983804299936 1.1134676460580823
P 6.7088151255154465 1.8319472470684104 1.0975719847251089 -0.43729065456834365 -0.42543966876702866 0.5103503506684953
P 8.362624158775311 0.881102916340814 10.661221730456829 -1.2024468416019678 0.22500160851950285 -0.4982808210984709
Ni 5.138586283152471 3.3534874554501273 0.18671742125592253 1.2686501769019185 0.33176075375462866 0.22245055996287497
