# total energy = -381168.9679905323 ev
CRYSTAL
PRIMVEC
9.24939845772994 0.00000000000000 0.00000000000000
0.00000000000000 9.24939845772994 0.00000000000000
0.00000000000000 0.00000000000000 13.53742958640982
PRIMCOORD
 96 1
Ni 6.884928488166089 5.196136318889837 10.849695164271802 0.5246012041605546 1.146149966782452 3.2061376170990528
Ni 3.468515174858833 3.7306523767465025 4.936897878481001 -1.1771057917340177 2.817044605281858 -0.7420823359332962
Ni 1.6258870103179215 8.642036714502513 8.557997604992222 -0.8118628470615437 -1.6805239340590543 -1.7049180466327023
Ni 5.945929556031153 1.9064212657518516 7.936142047414443 -3.0126549051234375 -0.8576544514743616 1.2132683576975043
Ni 5.575528145114332 8.923440413392123 4.14333371298525 0.13109180844321938 0.4541372938120372 -0.058691600303937635
Ni -0.010120691800059561 5.197347990088711 6.166462038684818 0.17624526505140617 -0.4726250682035795 0.5748819546929776
Ni 6.217612137134378 8.251656602901969 2.021057385383325 -0.09835189500803707 0.2933248183759335 -0.4765120619628116
Ni 1.1615117109998898 -0.0015871967765401394 4.864892236373265 -1.1779709679477905 -0.019237508073373318 0.4784591583868534
Ni 7.430337767433237 6.326412811274482 1.1797136022385455 0.16000026394745348 0.39890022771560335 -0.2646138235944862
Ni 0.10321311252758601 5.0684853706787045 11.243390260282089 -0.2523149516224751 -0.0451565419319803 -0.7118412776605676
Ni 2.248066296841963 6.882782627722282 6.690684645828755 -0.5267092516424929 -1.1377897677432145 -0.7676699545944135
Ni 5.417455925352847 3.684137151867596 3.627949831014167 0.5501911368145169 0.281422924732025 -0.03499837045205585
Ni 8.754444654043843 1.6413797527462708 3.8585734073928046 -0.4470688170010301 1.7602078203439429 0.06912025183642935
Ni 5.326275355287971 6.6446846124443315 9.390468440189826 1.0904639860740575 -0.9094531813132078 0.99620245908531
Ni 1.886488812060453 0.5445851578639433 10.443504130935725 -0.5158226866369762 1.0443787616802207 1.106339005433101
Ni 5.695973811921475 7.192101011178315 11.75629622840448 -0.9133951966800915 -0.29793017835842883 0.5912297999233818
Ni 2.624859042097882 4.977258553621504 2.498779566685899 0.009034599398442505 -0.9954786935454083 -0.0941532835456572
Ni 4.547901476890774 6.77660878274615 5.054713941304633 -3.0363792453235705 -0.05414460436320353 -0.7188210514125104
Ni 6.704879697652508 9.246531151162074 12.617263535331938 -1.0337691044851745 0.030181665789702855 0.15943205014880932
Ni 8.68012573738009 0.7455625622835688 11.925175445332107 1.6929763008897938 -0.1106818773282997 1.446388224448767
Ni 7.781111954807993 2.985641078611429 11.408140545735078 -1.0683234454212762 0.9087152747059187 0.988528230369504
Ni 8.177818654958381 1.6764719705212898 1.3247635939015998 1.5015720687097622 0.20291300415057956 -1.096681170628363
Ni 0.814748062799421 6.374546680884709 0.37908752101500737 -0.22570146280000486 -0.532575737725599 0.17820830231504792
Ni 1.1235891772946767 1.759189340990978 0.15064310291465002 -0.5008334123169955 0.42368951884514133 0.5614939634218459
P 8.008610159445412 6.2475524399645685 9.442194776163738 0.6768020266682473 1.27348822172051 0.16757601941218236
Ni 5.1649195990715215 1.0606470207424876 0.6395098844273241 -0.21170026342490633 3.9363787374230466 1.7104829423149897
P 0.6252426872955458 8.180168002168411 12.464493995710257 -1.1928658827817522 1.1768995892604828 0.4113317686107367
Ni 8.363324590566124 3.9622850624976373 8.17231618781174 -0.6235884187597454 -0.05573868832320078 -0.05988767749456784
P 8.791127768354789 1.725706518548814 10.00931794326658 1.5015604987455367 -0.03286486904882082 -0.2953667885066268
P 0.6518957539113852 1.1377685051410404 6.9423866763685655 -1.0691798798843006 -2.0241927521051784 0.7104971049278473
P 6.624456178002062 2.382053083001406 -0.02537479974801992 1.1101750913497397 0.8385619536192848 -0.2901551623987003
Ni 1.4587688788579725 7.098191868566357 2.9169504209134374 -0.4347678881464899 0.9819950572366767 0.12438097208194708
Ni 7.125042872309341 6.364353843776624 3.4453297077274043 -0.11633933272439319 0.8893114162580105 0.5956150734752711
Ni 2.9014808019812497 5.997883427207295 8.990044406796482 0.3482829197793679 -0.877351672792973 0.12720532890461964
Ni 2.307715667540724 4.983344657811268 12.202883084595229 -1.07394567670406 0.3971598479857289 0.6595208709902964
Ni 0.09808617095861051 5.255193728086858 2.553051337117291 0.48979618066622743 -0.07964531973746929 0.14411418884481633
Ni 8.098033343801998 8.7445292988897 10.016033006551943 0.9251389674795809 -1.6211620471609696 -0.6790196031448564
Ni 6.5946083691565205 1.2951932670099984 10.056590693879746 -0.5743127124530689 -0.06069937476258578 1.1802957594262253
Ni 8.312443649611886 8.749884700600752 3.466814210481177 -1.0987552795485722 -1.3184722426303679 -0.7468854137488943
Ni 7.938703205849315 1.5100660427431216 8.060577904719253 4.004999423915238 -1.0870390195529085 -0.16987355719710745
Ni 4.799207633176296 6.012922949110875 2.752497966091011 0.5929172149281338 0.1526250545293049 -0.060079996011032005
Ni 2.5103792373004614 7.497867625623909 12.476487690699415 2.159754423394294 -0.9333356443577603 -0.5228572248862543
Ni 4.453936837888029 5.151748455657808 11.378791279466782 0.5165688207743814 -0.5007861040188278 -0.08972327279876162
Ni 6.347908413306413 8.761964414995633 8.266631379016296 0.8323108305032505 -0.957770380361357 0.650028872339461
Ni 6.935633690549499 5.685133516920863 7.613301043403039 -0.553710205711369 1.1325040938642432 -0.7439808385075897
Ni 6.073867235594691 3.9967298223801286 9.363881044303087 -1.4998707697479394 -1.9033280207066061 -1.8580897176940967
Ni 2.5246418097330077 1.5039059433656408 8.192960845184919 -2.6584329941518154 3.304833268599753 -0.6048787581653842
Ni 9.10845613088124 7.058077227425014 4.8443150996088775 0.3373750146176125 0.014177577051962677 0.23746425976288782
Ni 6.5963010090755585 7.488017016259018 5.624558281435788 1.363068284073188 -0.5752673630568544 1.3362370228129568
Ni 1.9248738156889005 8.464180031425062 1.1460568911052458 -0.5810333190063542 -0.08521870006018872 -1.7044102537583483
Ni 4.5979499719831916 7.175054369807898 7.3983810957377445 -0.49713462330916963 1.2139011061854963 -0.7957661986099973
Ni 5.34002921080496 2.638538902427153 11.754225288088238 0.8900549792922543 0.44700145409820435 0.8508006617773218
Ni 4.306926898690307 1.966181629232189 9.811970002804498 0.9080706991433846 0.16560012663273416 1.2196467504200221
Ni 0.8344742549050571 2.7159841157719695 11.569926398980135 -0.05392657481512648 0.43011213454203345 0.05571451995348469
Ni 2.0313713896112966 2.145342477493159 5.865483837824392 0.5110108670706296 0.08490811079830538 -0.7834801821537927
Ni 3.1559317537447655 0.7376413774384115 2.2380750966204093 0.4748506150999886 1.1359722549185016 -0.9490448275629011
P 5.108350278061501 -0.10668441177138273 10.990077909469576 -0.11221194081958094 0.47456445131813757 -0.021888572542975205
Ni 3.0630492943623873 -0.20465404030933818 6.541705509697902 -0.5779814195539078 0.431160887521522 -1.4506284877823599
P 3.9993751503410286 7.790749828008195 1.8642662073091982 -0.7785374934365367 -0.2881098498338974 2.0754628631340646
Ni 3.941880889484539 6.054295508443416 0.3774170796522851 0.0965598361046208 -0.34869146807169626 -0.4652030647078956
P 5.980929279821526 5.3455973486807 5.405454830844916 0.8750168540122092 -1.389940940094316 -0.0743277641792978
P 3.447010323428438 2.821473505261715 2.5568824379613644 2.787182270504787 1.635437840353693 0.4144384325605185
P 1.156295050265807 4.09879693443794 0.7438412492292907 0.6825443284686632 0.22144577284744443 -0.47757392756842276
Ni 6.555224430493888 3.424367795986886 6.574222694940352 -0.11059934491682243 4.074289368560312 -0.24811248350535334
Ni 2.301463074178596 4.330568361166045 7.093532021619848 -0.9356650638218853 -0.22842220416527756 0.16233302584568818
Ni 3.3434263100224175 3.2666655521639876 0.14672968242424134 -0.9733456090917948 -0.2136872119479481 1.4201516593497412
Ni 6.257708279478793 1.7737016471820704 5.204911223213285 0.7574631892647407 -1.3787283592079482 -1.0136787614932026
Ni 7.898995538240418 0.07825546065032345 5.914637916085274 1.0317124790664618 1.5192774564093257 -0.953105885006152
Ni 3.1657361161173325 8.648492794630863 3.9930541114302622 0.6780549252387419 -1.7233266310468773 0.6651009361812352
Ni 6.458022502028501 1.640186580344326 2.5905493234329753 -1.743678712340668 -0.16334964003566063 1.53002003963781
Ni 0.8436478083023329 3.650950310176302 4.49883989261454 0.7616600009549076 1.4544581459410952 -0.2781583950481403
Ni 4.564920370065797 4.836824936732175 7.4587583940956765 0.5883694476564512 -0.6091686437899896 -0.0026070986055438967
Ni 8.448030581705721 8.434831690096614 0.8032963825602931 0.9239225785739765 0.6969887860287672 -0.11363067554397849
Ni 3.055057814088898 2.8583046099480955 11.513691906194536 -0.16759093181051782 0.1966045454340485 -1.3202452753703906
Ni 4.090805454164451 9.473788871439412 8.612594029309724 2.067680648085484 -4.053139216845258 0.43171958823846934
Ni 7.53894420420558 4.036881461115331 2.1345142067105507 -1.5426714098532335 -1.5670102437089142 -0.2997212088205806
Ni 0.9609015076993124 3.318018212439925 9.191968949618891 1.442816962157741 -0.27910918899718384 0.5861981510367452
Ni 1.4092106018841841 2.603788912395327 2.401486069175712 -1.6472687715503502 0.6230831969885527 0.3046998929820946
Ni 8.410663011908388 4.536996436100909 13.55272734737367 -0.06212839389962849 -0.7412379856551298 -1.54000517587498
Ni 4.124538010365161 1.644700286795093 4.295034022144414 -0.4191394375806136 -1.0209303008492934 -0.7869663409301801
Ni 4.352637425902786 2.3586521048857505 6.525623580587353 -1.5970263304550303 -0.03195341297814496 0.130939084915439
Ni 1.1048591454036873 7.209961599613624 10.50241909939639 -0.3468929814103768 -0.07913418442900566 -0.06720837952569715
Ni 0.6156251627719651 5.9991875923908164 8.412619259683671 -0.07526056040621233 -0.30685062077651026 -0.20561626201435554
Ni 2.8216029968402205 0.6900957695705391 12.665240165168266 1.0250558929818927 -0.007148952339955429 -0.4463483938952378
Ni 4.549122397488113 8.506903002933448 13.593745654745014 -0.9221541738196442 -3.4856522690647713 -2.7152685150836207
Ni 7.765665459371967 4.377444312585074 4.343971664481221 0.023976308309939354 -0.9171734327756011 1.5481231769964243
Ni 8.45847315257235 7.965776195155451 7.574205685972503 0.9553136912907483 -1.3180071300684915 0.8929554407685009
Ni 8.556322538930266 2.6447267500000278 5.971875043664444 1.2023069735899938 -0.35327883033206253 0.40169141730749525
P 2.1356028609098447 5.998003669387336 4.550227700604643 0.1673250797436409 -0.8195139358488984 1.2895226494755534
Ni 8.04095530587642 7.123840450508931 12.184174326320708 0.08710563267025644 -0.6881547326769052 0.022533405215825707
P 0.657356598764936 0.557635134157769 2.3335418379338204 0.1406794521316545 -0.9840455120078021 -0.25557511043098563
Ni 5.293809966676923 4.035632792322598 1.1448979414776206 0.4999780062952357 -0.5414650697954289 0.24853003065874615
P 3.284045171879133 3.492859591617887 9.014127990518832 -1.25660481570161 2.727542704465283 -1.0333554139865235
P 5.153237608810623 0.10831415578086041 6.702597871051271 0.6342494980180173 0.44281595526194706 -2.2679194478380107
P 6.184203309879933 5.402767880590925 13.275060405463794 -0.71085423115695 0.7386092897830312 -1.654934001405092
Ni 3.478032805878995 7.883280810248915 10.254589791993743 0.10955213459923067 0.19057942228589114 0.8415395481903699
