# total energy = -340871.7594674895 ev
CRYSTAL
PRIMVEC
9.18569641147846 0.00000000000000 0.00000000000000
0.00000000000000 9.18569641147846 0.00000000000000
0.00000000000000 0.00000000000000 13.44419520261856
PRIMCOORD
 96 1
Ni 1.8233239355159399 1.3227769829620617 0.252553366052023 1.5598090979747847 -0.49332759085825356 -0.5897416454136295
Ni 8.59208887247649 5.854797359478382 4.454316735962775 -1.5702639747595213 1.096799698484098 -1.5433126429816582
Ni 6.297235598425568 5.1841405006199945 3.341796662733834 -0.7079789664916839 0.6706442345969675 0.6224103392912442
Ni 3.871054427056457 6.2486800087757155 7.36471636647646 -0.832161963630212 -0.35776694801040326 0.3648210266437072
Ni 2.448098242293166 1.5212982473420518 6.531525963467027 -0.1144876242276351 0.988885870819239 -1.2825873558083007
Ni 3.0673978741874337 0.8380588219489757 10.314977325269666 -0.27923645860366747 -0.37625909327731977 0.10291123224394536
Ni 3.0503032937223606 7.033248685123286 5.050419729464539 0.37245746014304243 -1.0627981447276729 -0.3679320614688631
Ni 7.117665232395732 4.3841674118920215 5.476559787799593 0.2757461860622219 -0.1401883714278489 0.6670608881210833
Ni 8.811801537787659 3.950317798809878 7.278901756255716 0.3729413417579964 -0.23766429158883584 1.0690515818365522
Ni 1.3917615607657692 8.217000157425012 1.0844044945682763 -2.2944606886616485 0.3480713179891941 -0.6246492559240919
Ni 7.079278208342243 2.260985612484707 6.668092463278088 0.05533888178162082 0.11930098645587839 -0.9064866424857162
Ni 2.181051684915085 7.759809690521402 9.608041559615573 0.5077149699281772 -0.8961418089162825 0.8418030862644019
Ni 0.2693264471531641 2.529676409466897 1.3807993510252972 -0.8804843048846835 0.1860573660458215 1.2910982214927893
Ni 2.0127697321369333 4.8730026019026615 11.059880328664912 -1.589931628391778 -0.1437244096055654 0.9621098882769752
Ni 4.743677186336962 1.400772728651979 6.369053044910323 1.7497197763284253 0.7323465967027709 0.06857234975275932
Ni 5.187346308563203 5.888968149016303 5.389656672589536 -0.001511294438203849 -0.46603584502183604 0.637901750058624
Ni 3.7047565846385715 0.7909830479428213 4.266326872175588 -0.5896868809162942 -0.17358700149295267 0.6364380210289039
Ni 1.431379468098311 7.401383828217718 6.897221385674021 0.7472615661413904 0.5025226270939603 -0.44048936401129946
Ni 3.12905226649349 7.8691929598272 12.846909741701754 -0.9724981734898349 0.2918605751255812 -0.4114045308302011
Ni 4.196926182337991 3.4294245293671564 3.2763366365284337 -0.41490740177713703 0.993559107925192 1.0936066454680973
Ni 2.072081771934342 3.025263086120109 4.546194824187278 0.10269191714428764 0.10118010848545156 0.278347628240811
Ni 6.1434394884165835 0.46007201977405443 4.699848555906522 1.1258469935590416 0.7416658172211679 0.1717211519288075
Ni 5.314467157061939 7.66401206576576 3.8867169574976153 -0.7266264063895422 0.5104148853578436 2.289380445925264
Ni 4.359301732515906 2.227641535596897 0.36599763160908916 0.7819064099087695 0.038213534955243864 1.47655394939887
P -0.08505954600031033 3.406533774655194 4.312131345839794 0.8548018125169149 0.38843120986347945 0.8007996472688467
P 0.3644525975229928 1.7558549975707691 7.099906526101736 1.3757368806797918 0.9659269480302204 -0.9766371353588729
P 6.5374966659400515 0.8316472060625592 8.143081942239366 -1.7982871437141674 -0.3388973647994099 -0.982935823883391
P 4.4355246388561405 4.356647066339438 12.663248177922704 -0.3287960146993499 0.60953322621826 -0.756870035765432
P 7.339031323007123 7.054504385927251 11.540093824304503 -0.8107914683742358 -0.48632262029533024 1.3743058046602201
P 0.33674118949127185 4.038022825290543 9.781780734454069 0.7831248556969029 -0.07336720003824138 -1.2579196778582917
P 3.283610789279799 4.681407352391378 5.649923267667094 -0.3055473285840544 0.34262443594200986 -1.9880661815859506
P 0.8950634148829634 3.38990766469185 13.002646789299277 0.23368550944674593 0.22982988314608158 -1.339678187284022
Ni 8.359635646657498 8.666832881742637 3.93231934584735 0.31431067659898126 -1.816667703103884 1.963207213560742
Ni 3.125782158677495 8.234195780547322 2.687642825510886 1.4746076243057764 -0.1945695172818907 -0.4373842427234144
Ni 3.5879512728739984 8.543239340551041 6.651139342533145 -0.9308799837284161 0.9588078204869359 0.9776084981332067
Ni 1.5957575000287163 0.3503121369276497 8.252933682046892 -1.2712037965617076 -0.20586334502815512 1.1321821917484503
Ni 4.617410607576674 3.907677797456374 7.295384569359706 2.2790070731107397 0.13200866383053395 -0.5683536666561567
Ni 1.16009830481244 4.750208216272839 2.869206376297877 -0.20518251691104664 -0.1306845457024717 -0.04611196386671413
Ni 7.35551046183267 4.180208215413524 9.717423910351762 0.47517380276736226 -2.1071411680739516 -0.8232718602294339
Ni 8.334815895761944 6.384398668835606 7.167355255515459 -1.7824494053509625 -1.1301350794114344 -0.8428587812224257
Ni 5.007600607036845 8.613886529351083 0.49505849912675226 0.14936155328668468 2.136353270861534 1.6963956109839882
Ni 8.907764505073322 4.919592452584473 11.676390264649859 -1.4259227575055637 -0.8357275694942833 0.470224429181887
Ni 8.595138523585788 8.608724168135947 6.595035866387778 -0.9162398652177381 1.7889769220568352 -0.8547557897703278
Ni 5.506576805555513 1.7252850009088867 2.456563779830302 -0.8182543524101843 -0.7709694512812916 0.9907722892086742
Ni 1.045424074545931 5.798195100034114 8.501652019972013 0.4726286677480054 -1.0320498078012226 1.2861123382424238
Ni 7.724160003909392 7.8522269791077 0.11264327285606975 0.1011500265784645 0.23804712884955134 -0.45776280637976646
Ni 8.323251104356501 1.8280361976215724 8.660656419676696 -0.7607518873183414 0.5147127414022491 2.900286898341966
Ni 4.9238178727961515 3.708164477896251 9.861128614611724 0.15598754324363456 -1.842594450271975 0.07199731627390826
Ni 7.787247364808974 2.893145218936258 12.87726663021383 -0.41218486063965143 1.7531534846003225 0.01640723771342981
Ni 0.7084128255889562 6.962757653157154 12.093685416198337 0.11854585345740874 0.8505065275756708 -0.23409662884223556
Ni 7.744708406112706 1.7162646473265644 3.069914754922216 0.6223437477193668 0.43986947103911345 1.333198750207265
Ni 2.5067580976665975 3.9243865786847287 0.9310548093903517 0.5561249858004487 -0.16061655737521371 0.4306415246829422
Ni 2.3684858140874754 4.1108562097653225 7.464297579460777 -1.9118653687536555 -0.6597052190869606 0.0788927578421609
Ni 4.204945295044068 6.026487205514213 3.062574465158842 -3.6978207303753474 -0.5378097324310286 -0.25835524427928414
Ni 6.473950020234852 8.625919791258255 2.400729444581027 1.1233617652433425 -0.10463669957548431 -0.6863721868551858
Ni 7.933244818818578 4.024501480613172 2.6924827687924804 2.3700961159087766 0.5243003850906841 -1.4644867338216907
P 1.4673873968587017 8.909904772267497 11.636098127222672 -0.11106882835407324 0.9627336379039031 -0.11467891430283476
P 3.225694975291467 5.341445546543895 9.307886997739772 -0.09189816896289335 0.07438947065516865 -0.7059686209298744
P 7.114459424452523 7.307156957497288 5.265055460534415 0.25501281016961247 -0.38691143078484336 -0.23208139818441967
P 2.3430873643368426 6.399435653371514 1.5715320636716303 0.6620390094264599 -1.359263565615117 0.6089357018435771
P 7.472784244098972 1.9898789774249708 10.945201505550346 -0.04659687392293266 -0.8354835718042772 -0.19030251447542065
P 3.299942956967548 1.639306885297342 2.310452423188905 -0.29392362830219704 0.4215233644317579 -0.9038517759660305
P 6.003826093205059 6.633689275628524 1.7939930892596125 0.1533598758128004 0.2256472125233017 -1.3805001063963902
P 4.197073153475788 0.7101434107365219 12.290239104471063 0.3420238262435335 -0.3105360400478974 -0.967503805599037
Ni 5.524837969426854 1.0853175527618433 10.17121934397225 0.045634252899347215 0.8522775034331646 -1.252051649113289
Ni 0.6768774122656662 5.445574597673433 0.45314967918379156 -0.21671108637593647 -0.2081140887355448 0.29387194912865516
Ni 5.50190128623433 5.81436192519184 9.427257874428522 0.04742271225833768 2.0660078883687514 -1.6902540168626243
Ni 8.489025362095983 8.715728342148648 10.714916104013867 0.757094235961096 0.994682680006674 -0.15822131767015976
Ni 6.806637562031746 8.106202290917913 8.974121055219287 -1.0120011166804634 0.28430076050045233 0.37678514098411886
Ni 4.778178660934928 4.756197290138088 1.2953843185854392 1.3494571210476565 -0.7447305721894206 -1.0078009625561868
Ni 8.747841535757404 0.9288024767036048 12.885508036765826 2.361348451623133 -1.969533927109718 -1.3314887094946941
Ni 3.1381736627330485 2.7913952630998176 11.945583519209395 -0.9279720660530018 0.18766687662478648 -0.4720681672588451
Ni 5.4201026623539015 6.680912939342087 13.028487071032915 0.21420528923494722 -1.378106409353233 -0.29115763552128565
Ni 3.818787816177216 6.183966779664247 11.22607712842556 -0.3328902393733815 -1.7172858241694362 0.761407004403837
Ni 8.366166676593375 6.535310470265314 1.9080941320887115 -0.27660133497366557 0.02629132959636117 1.8022697825109992
Ni 4.9158171314822985 7.9954687242836 11.035451888423742 0.8512783727446888 1.7603872833446004 -1.3019793871816674
Ni 5.843122339719591 8.20782364700878 6.747076589869693 0.5680181376936089 0.46632406568621626 0.0817993899659946
Ni 7.032614872091534 0.9530619001363068 0.8809165243003415 -0.19428643882383312 1.897889623299854 -0.6612820766557773
Ni 8.11178719415422 6.403670259279304 9.673985672006095 0.7433714870583649 -1.595748235073555 0.7897166499818077
Ni 6.442727839148993 0.270160508360165 12.17623267431192 0.4644458748268969 -0.0020118882237062127 -0.49310801864827986
Ni 1.0067706653051853 5.253841562720465 5.7403481787666255 2.1901628604828214 -0.7917192822341333 0.4556416462717056
Ni 1.4628496629792036 0.7180054480390776 2.914540542321131 -1.2032312851764762 0.3780735207782392 0.5600312628333903
Ni 2.735206359980606 3.213211614274791 9.595834688051879 -1.1915134825189158 -1.7602124483296329 -0.6396737543573822
Ni 9.181874862761795 1.3080890548784228 5.095793393981077 0.8172223116012443 0.9173323269509687 -0.5405854954039528
Ni 6.14675552471314 4.945358330179599 11.448754017872181 0.10034578550961429 0.3533225390858044 1.3920394744945574
Ni 0.6861016883016826 1.907997682279532 10.410082348538435 0.41669174737106945 -0.3832159842111271 1.0721536178006437
Ni 1.2674056067968489 7.035361395229125 3.5883095150223796 -0.904604852081971 0.42563712948981536 -0.7591624313440345
Ni 7.17376227855382 5.155279043435008 0.08110234811511233 0.9754282026524362 0.1035699488738668 1.7211697326048743
P 6.579319140339557 3.2530040498334674 1.314958118431234 -0.5662301925552506 -0.6173619782340594 -1.1807120210280375
P 6.086010516322205 2.7110663505973647 4.660618284949921 -1.2499238041370087 -1.2022568370783486 -0.47509075613525276
P 4.568689675396799 7.748134670762611 8.714137379581988 -0.29420722098088686 1.4689774226031926 0.537674492404745
P 1.4416123335674629 8.71530580012748 5.074982280868949 0.37471128917422564 0.08156207714420792 -0.03543083000378414
P 6.641781873903499 4.886615803541156 7.74873633385797 0.6806301421650859 -0.34108768758250935 -0.5808870232364771
P 8.666309297064233 9.20921149439213 2.0199364122437844 1.1275745177731096 -0.3883491916726344 -3.271029175566115
P 4.287028675503978 2.0326016500434854 8.337699285771608 -1.0748874717920391 -0.5378287585944221 1.6872764222915393
P -0.09742808581558225 7.954123906081937 8.588958387241403 1.729998386640098 0.1618080065801536 0.5417987989857637
