# total energy = -340878.21583634743 ev
CRYSTAL
PRIMVEC
9.17939656263568 0.00000000000000 0.00000000000000

0.00000000000000 9.17939656263568 0.00000000000000

0.00000000000000 0.00000000000000 13.43497473704016

PRIMCOORD
 96 1
Ni 2.4278401574010244 4.070731782015396 9.18691601909337 0.27200857339666057 1.760945984061548 4.082985353672413
Ni 7.2565697647905285 1.4448920473362332 -0.27461999784098506 3.025379037558325 -0.02927355215313668 -0.6098736402768142
Ni 5.569396732629113 0.651090904798674 6.969097694249167 0.5255447990207465 0.1355076781227279 0.9109112539159732
Ni 3.8700518210300157 1.0082740643397279 2.1061739178601826 1.679581367640127 0.45674644930011016 -2.1413054726604863
Ni 2.928007100689442 1.9226979813409448 11.169569227091348 0.7111159694587689 0.11424465497889358 0.9752207146273205
Ni 4.471889757268487 3.096687686320553 8.544482202905314 0.12365206433572254 -0.49919459116199194 -0.778648307982788
Ni 8.033752528343186 0.49689724234143245 3.406451002734063 -0.24623377842540176 0.26934465341125224 0.4026692078397323
Ni 0.6623283216973249 6.077962823493308 12.029339936713969 0.5385101009321629 -0.2381846828686801 0.193076477676132
Ni 0.761983519229192 1.9392025358122518 3.1032638057995543 1.5282225814177552 0.4091075072659083 0.6812032410597365
Ni 3.9459103517034757 7.897511929086712 1.5414886700350419 0.11664992198627651 0.9763514857976541 0.2412368394314426
Ni 6.089106610550129 7.742848281541077 8.548432097114993 0.7036674836005236 0.916645328186273 -0.16688850642685452
Ni 2.0663004563960765 1.514609561913306 9.114716395768221 -0.22953626316506273 -0.009572731290099641 0.27078729939504975
Ni 7.806011707190168 2.8859195688479837 11.256238332737476 0.815642368708634 0.2661467152992449 0.6939397147897984
Ni 5.1377356236117535 4.1032819211451255 4.926819717859436 1.2607458344531772 -0.5245613520615546 -0.9946664820567578
Ni 8.498578796039538 6.110301836509111 1.378495638325189 -0.6495588746815781 0.4268064672075682 0.1964281677571843
Ni 2.178784778137676 3.9313518292387966 12.112261094868087 -1.5967854180888177 1.6552772436771235 -1.0189574933936387
Ni -0.00028547922361381935 0.776901874027172 1.062731750578035 -0.14981021078832907 0.7619839599532297 0.679602729341836
Ni 8.306261265044904 7.847383246123527 10.407684845341738 0.5415560868473382 0.4256594980873185 2.4304951858221235
Ni 1.340586567660226 9.076430969856695 10.876081898182328 0.6237349716399387 -0.7135500328215582 0.4664137971865452
Ni 6.850913885371174 8.28475393961316 5.252363334379522 -1.0219775111668852 -0.15000484329763844 -0.7119256098442578
Ni 3.0007170984465183 4.311874521704625 5.359950448217649 -2.143285222094677 -0.18164021081473233 -0.569709923573735
Ni 1.9642163906144274 0.7182161578725781 5.0914788099900585 -0.3224441043393931 0.9168715852644661 -0.6043341985158237
Ni 0.5949267687960647 4.573551570822283 3.1636945251827333 -0.8546323768185862 -1.0156281719100897 0.963882921016998
Ni 9.537576299653718 3.0215084309701616 8.470065755383937 -0.7540770464013271 -0.06417319224379917 -1.2075389114128945
P 8.26976398552437 4.615336182587238 7.6301381466515386 -0.950586461018408 -0.6209813201542015 0.34634687909891965
P 2.3618861952896006 7.833972148191058 4.294637451411956 0.16954368466151445 -0.9377746539657204 0.6497895026351455
P 3.561587389186968 9.024053334810377 11.114928870867512 0.32246852981942525 0.534331286964125 0.23227885890720643
P 1.9222573703205763 2.080592776369283 1.0936351060191372 0.8240547611420452 -0.2573039201966343 1.3510172664459248
P 9.064571189891772 8.171223166698187 2.215803447365644 -0.40190481886988205 -1.2988318426916212 0.44403260127786753
P 5.773142611964558 0.06623944133503801 3.396818144301254 -0.7104919627215247 -0.5220059326295526 -0.2371359298891916
P 1.1342337397876003 1.2437439371417116 7.040182020929008 -2.150146467990884 1.0161421354320306 -0.2714334176194809
P 6.02546585629564 6.604621504381386 0.9422365697223588 0.9850567268811357 0.423938915851786 0.4336222045778209
Ni 0.3490199224490998 8.004956762282845 -0.06651390528314262 -0.5880056365591292 -1.3680397691458503 -0.12556110843297733
Ni 8.318726885162832 6.778745471993301 8.522100081010215 0.8707783904508293 -0.6128008412259381 -0.4049811438023606
Ni 6.459027100338339 4.100895278118129 9.15015804471912 1.0988524672480688 0.739204757275185 1.103701567810254
Ni 4.189944601213874 9.082728035689462 5.060256011559189 0.411132251005421 -0.7013411494601922 -0.33546622763067385
Ni 2.1485478468648807 7.632365068183652 6.557947028229966 0.42687640121355513 -1.8535470926287367 -0.8809165073260957
Ni 7.026570812158122 4.836541273604788 2.882769200052348 -0.1819420583258673 -0.8970720340400357 0.37088600189086446
Ni 2.967818142258997 0.3293530659670223 7.399701336817641 2.7782944810968537 1.1559044750660545 0.21404099574294105
Ni 7.203136499174579 7.802808097896237 12.704555212817448 -0.6906967823724685 -0.36742503992545755 -0.3278647611343321
Ni 5.155598728729197 5.727585268337696 12.557884983533002 -0.7029282914416538 0.04805006142969144 -0.4453544054130847
Ni -0.44094331451312385 4.747124774658737 9.946879153206249 0.9956067344828401 1.1671599933752157 -0.020480122231222794
Ni 6.353023432354661 3.861193703641355 0.3020186597909056 1.023556682728547 0.5090732837282845 0.6433519745399178
Ni 6.929627208280772 8.824502439564691 1.3688894001415277 -0.8783052949554938 -0.664936642689229 1.0166769248895782
Ni 6.0816712995814095 1.7252216296494949 4.898445286087324 -0.10263535287473935 0.3826531697291216 0.286679545145274
Ni 1.107494158488981 5.61869009053285 7.661656521641906 -1.0987917892134627 -0.022161623698703767 0.027055718566211466
Ni 0.6242723806922389 2.9577024475830345 5.5263829997052545 0.09818837284697927 0.37510261107537335 -0.25098851950156775
Ni 8.254709775661778 1.0662052341219406 5.816820015237846 0.6516779779071099 0.2606417263206156 0.9479212554814191
Ni 7.296949928928059 2.3947208957033186 7.620867874370909 -0.2017272113725945 -0.23243183954530294 0.09377481716031591
Ni 3.096595892357976 7.714263641594665 9.273115139651107 0.9224130839079855 0.4278953293963728 -0.5783927960597135
Ni 1.7140411250076417 4.463407995126391 0.9693506703882914 -0.3692736630984221 -0.27066877153931446 -0.8400331388481727
Ni 2.314492972411203 9.136115404324123 13.303889009756825 1.2603506558972875 1.098457031581863 -0.16940304531859213
Ni 5.42136978857778 2.846099347882172 11.631785792431641 0.1435799136079011 -0.8858414554315389 -0.4148405530949436
Ni 0.7602449415779876 2.0582868434631227 12.741218639410244 -0.45155307802462885 0.7630381122493568 -1.4781724588388996
Ni 1.1045200341014931 5.917617129664169 5.102549161876818 0.7689115403109983 0.35504646375544663 -0.022217159526987544
Ni 4.8348889822784065 3.757062632494244 2.434524593755867 -0.9262396567429274 0.4722422309428641 -0.04867303972567101
P 4.510700244645954 7.934559972382705 7.277081125728312 -1.804686362372292 0.05810307479031929 -1.5272774438956664
P 3.9904854999307653 4.320650024526966 11.136814387425071 -0.03507987442226862 0.6629946884715098 -0.7422772255529217
P 8.741841976264292 4.571082313228967 13.339035082148227 -0.24571081604239617 -0.9711072066795793 -0.4057406476762045
P 6.720465485153297 6.244440354022575 9.926874494941886 -0.091461595646107 -1.185707674470416 0.6980979599325461
P 4.242900538224425 2.3804652933151424 6.109997998492981 -0.1471969415351981 -0.15202675882367364 0.23224414901452906
P 2.4318974505469186 6.931894519156419 13.549171657158267 -0.1669371002766028 -0.47243634923154126 0.6790746247525079
P 7.81861501825196 8.472830589536748 7.20842842111713 0.1751890558727499 0.8404635415173719 0.28948950379024335
P 6.437528954302854 5.953095496200099 5.117583177067646 -0.8128082416939486 -0.5938996334460611 -1.185707674470416
Ni 3.0891789401817715 6.7431202351172495 11.4874810935628 -1.2431407197769042 -0.8957877680109734 0.18782962745489587
Ni 5.596870665628346 5.017871067278981 7.191230822228369 -0.14420494878640971 0.6614247728812287 -1.1262578558442151
Ni 4.730271403129638 0.9349674058259028 9.376644960343341 -0.706315462746332 -1.0419495834134378 0.4089900078514376
Ni 1.0498383705944987 8.502755421336783 8.530348686487367 -1.8654291887783034 0.33646870075325924 -0.709872326859655
Ni 1.9363385641798558 8.992265085570034 2.531753676856829 -0.5325333145234377 0.2026867470723864 0.027493320324262327
Ni 5.778916452210638 7.003273504456131 3.2123563406239417 -0.08325052059022436 0.15306702716272994 -0.40778390335847836
Ni 8.564716346076116 3.1028654200019714 1.5798723154865268 -0.6803730318489574 0.6060455247799756 -0.8647103298798786
Ni 4.517603150631729 5.680944755952429 9.259223041354735 0.0630575905821172 -0.37868929998536716 1.0423375628804756
Ni 6.235554698445141 2.0152630132033806 2.577875553353538 1.160646103516098 0.27580532143493147 -1.6906060008854047
Ni 3.2757318103265836 2.408948959902721 3.6700180895411765 -0.787631999538637 1.188880672881759 1.9648023259620033
Ni 8.107105083838299 6.436969011131136 6.344236914256811 0.41333800040748814 -0.8101453501498047 -1.3911012789510042
Ni 7.383107742202633 5.5356899895709155 11.85116510153354 0.47533166850146524 -0.5280719363179744 0.36768395001379905
Ni 2.360279800944507 3.167350678712167 7.281433995433703 1.0150057078347423 -1.475418036022214 -2.7312286379573028
Ni 3.8653611495423417 3.2077492016422124 13.581818179948705 -0.35140321057590446 0.05564587149907836 0.5645517764115632
Ni 4.209643585582853 6.35413413930184 5.324347241892616 -0.044084391913724076 1.5767063879507555 0.8915410769194775
Ni 8.654701967590144 1.000462398124443 9.611179452666667 -0.01846643423530368 0.17327564090012093 0.2099251738023546
Ni 8.324601698767747 6.583150896534675 3.956828325612359 -0.48626091381945924 -0.2239878225430078 -1.5881930484341165
Ni 4.797620633472229 -0.15541911185764182 -0.4492093608431639 0.7780515549390535 0.18913343386798395 -0.26189411067047796
Ni 6.511368017799625 0.346531388123643 10.993852634228725 0.6946169433624811 0.41120218501140793 0.6112134421341602
Ni 1.6399083208306255 6.537676167474133 2.4097640902904027 0.580535296324013 1.0462520674435338 -0.06006354095079977
Ni 7.362573432774206 3.812056395473999 5.74134242950908 0.6347616617677455 0.8951624757221486 -0.5065443466588438
Ni 4.060652804924464 5.705481282149206 1.3228464664526354 -1.0740446641757695 -1.5132993844490195 -0.20927545603349768
Ni 0.18674563746622322 8.301442082009624 5.011500566276151 0.8002980250420798 -0.3158019164325271 0.42153621994756435
Ni 5.162529172903746 7.630005963345428 10.803264501489037 0.6561894926242182 -0.32275417938064416 0.48149768810286103
P 2.7495688168364185 4.616125610665398 2.8599161751292304 1.111265753310757 -0.7162412065004761 1.6092478122218865
P 6.701675261013827 1.982107033920644 9.63759224745851 -1.546237787048253 -0.07973479412748204 -0.6329027541821357
P 8.130769567390596 2.913228272714579 3.905654109415424 -0.4934798001654017 -0.2618704565213942 -0.5133125186206127
P 3.159364603967986 5.579420633342499 7.559067589066085 1.5700019793473863 -0.5282460000019935 -1.421279345196281
P 5.4805493562510375 1.8089010059344972 0.3256675383695642 -3.914688139823491 0.2750195923088425 1.9304341328947785
P 8.708520767848917 9.570622126181364 11.930996474907323 -0.817725733600224 -1.168898059112245 -0.1467210303400441
P 0.74822819393706 2.939609857559149 10.60654912174735 1.004971720637508 0.01701710338328682 -0.11011572041218455
P 1.1967454283023946 6.7333808956878505 9.949310775274906 -0.8838925592352841 -0.27085569073913995 -0.07939052341418584
