# total energy = -340888.2545759999 ev
CRYSTAL
PRIMVEC
9.10835681848858 0.00000000000000 0.00000000000000

0.00000000000000 9.10835681848858 0.00000000000000

0.00000000000000 0.00000000000000 13.33100089067495

PRIMCOORD
 96 1
Ni 6.6059724404929385 1.8700731810405398 11.521344585252033 -1.302618306317247 -0.8013493491247295 0.6734822182663949
Ni 4.607644486459657 0.44772765746746185 6.102438791359456 -0.329308178449078 -1.3277546963735585 -0.5366272820871533
Ni 2.7995627822310336 1.7953300046199419 4.79480118161627 0.4343523978756262 -0.061557351887506884 1.3008861541174885
Ni 3.603748718052508 4.325130581629327 4.896623502991588 -0.9846458645959623 0.9766134812097891 0.381342164227182
Ni 5.130263786564589 4.675246711099393 2.4573964266312927 0.2103920861364441 1.1112904359011055 0.5759134812812856
Ni 7.43087988817852 6.318357855819135 2.567977343966403 -1.0067113290364342 -0.6822435093987927 -0.08739102512115916
Ni 5.32558339114213 4.475391144803907 11.905410293258841 0.49884569246300536 0.2338801419560553 -1.6553793164726267
Ni 5.64824693302608 8.058227075498179 12.386992802351665 -1.0046811859802824 -0.8683672099061756 -0.5478321496640373
Ni 1.9861500809069914 6.694523885918365 0.5581409810362864 0.9439419591186969 0.47946240284038716 -1.0348602806668241
Ni 2.6099632257636722 1.779718280956171 0.2801439103744882 1.0783990844897233 -1.9271402926348553 -0.10523962326680586
Ni 0.6278071593412566 0.3344169655804078 4.709202665485939 -0.10679334090717092 -0.5981550662883053 0.15466959576315942
Ni 8.696030656496955 2.2394899187040322 1.3843973763733293 0.07555315194596665 -1.3048713640174818 -1.0151718010989614
Ni 6.911566921614982 0.6912158964811099 4.807612085544562 -0.49412077618351036 -0.6098569281062658 -0.1464523500596897
Ni 0.8643439003968008 7.459926438215723 2.4962699828883577 -0.6803293230952154 1.143880711132301 0.8201726524788198
Ni 7.75471840809784 4.076162755126691 3.735866345190995 -0.20249751387971576 -0.20209513623497452 0.10474597145983895
Ni 7.985560604442422 4.403963410281565 12.740744077045893 -1.4607522064799228 -0.6386969922664096 -0.138834942723748
Ni 8.078019534962223 8.388860429637553 7.212738384644185 -1.4386389195206513 1.3189643517754381 -0.7341941914344711
Ni 7.017579087147438 0.4710231909811496 0.04293224007537033 0.4325780795840228 0.5878765671804327 1.7245126809351785
Ni 1.716907052026553 6.453881097588826 9.561633331812269 0.8077897054334346 0.19423424542965906 -1.5256391369612952
Ni 9.16009233032745 4.396221306947723 1.63772719497782 0.8278882759555227 2.780054144100438 -0.15833367487830796
Ni 6.181204218170906 2.0655294109710316 6.986604297962265 0.47483236026754355 0.18201919142070588 0.1203217144109089
Ni 3.520926429094125 4.239393618474673 -0.0031715298598162618 0.13199143743935332 -0.339159617321861 2.6279939609356675
Ni 6.241055231119938 5.720813212156338 4.811185293942052 -0.7411312848739365 0.7267181947724001 0.2231912947836414
Ni 5.041311573437175 2.934402897235973 9.626289003006713 2.025005220704145 -1.4198616389131482 -1.3010913281497594
P 0.5495290296219949 5.71915549120721 12.664997159698954 -1.359049906942414 -0.036562886725698324 -0.5454919315666348
P 3.9497387618634807 6.3125558324971855 12.80987923814573 0.2533385077909831 0.15589549775046055 -0.40204468688185596
P 2.3005341264021615 8.731116047134554 1.5620731828708878 0.9092279526762792 0.4927328946970482 -1.0253909077238081
P 6.340427404499017 7.7469854131208615 5.88235720781323 0.6623423995994915 0.09177141357704194 -0.6987019120651321
P 4.764208032583671 1.194460810702024 12.905982422246554 0.3049109805516362 -0.28759022988500144 -1.0262817949691938
P 4.015364473063872 6.01117852060287 8.532174049032461 -0.5383234388426534 0.7010385306181088 -2.6154940286964434
P 4.89539569648641 1.1673087988923965 3.844034458793005 -0.3636336912038254 -0.3100058785760403 0.21445108669716617
P 0.2961472933833831 5.766792197602498 3.53103579437675 -0.0315201820954683 -2.024717514260397 0.7670258932525112
Ni 1.6787612534828698 1.3259308336675264 2.8195865939594085 -0.31929553140808237 -0.2715637725497581 -2.0527332827470324
Ni 1.915924649490612 6.471268950840949 4.935976158819665 0.46834006767498054 0.24538325749964837 -0.5906721276476988
Ni 5.927900813801319 5.290625517500617 9.380571949068607 0.4766398457899275 0.46739338749099507 0.5723509607410078
Ni 8.556062536577953 2.1536618719807445 9.905773468344297 1.3513275985974922 0.41385016415721626 1.587864461450104
Ni 2.170931316593644 5.330793371267963 7.284325515411634 0.4793469603084454 -0.3721802952222558 -0.24481272970815898
Ni 0.5404725903927723 8.808136312770989 9.077384806665545 0.40336674812738915 1.1766098259342057 1.0895939247642783
Ni 1.4955375468198486 1.1803155324932515 11.395659279730442 -0.28651062366757757 -0.36991181090305325 0.6088727098161255
Ni 4.211849947319921 6.967191656979422 1.7387762168554413 -0.16565849067449534 0.7301447039554457 -0.6895971215503865
Ni 5.657118472610976 7.609895533970676 7.946289923826115 -0.4503924820576243 0.5838648749178783 1.186673895038427
Ni 5.522460524743304 3.2078630953441394 4.52162243173518 1.2206767343464333 -0.9504656191698276 0.9302176675540688
Ni 1.0389902674016112 7.594083426455912 7.204313154545592 1.1332350584929967 -1.5216521272890893 -1.0797427430018114
Ni 5.084958819526318 4.5272085869994685 7.28784498450363 0.3124224584373329 -0.7874782475695922 -0.8055117080325352
Ni 8.094177760037796 6.9953911298283336 9.336006580607638 0.2788587635492746 0.7878564568446174 -0.47713992535479766
Ni 4.370890966510765 0.4700886735669706 10.442132724777581 1.1705749325940356 0.10209619254181773 0.6385519820481131
Ni 8.325621107935358 7.383762358124444 4.549284511529154 -0.3297334389119547 0.6352257458883576 1.0445916490219753
Ni 7.307261268829221 6.03359418684356 7.224509114218684 -0.25299269441579014 -1.0403979226556017 -0.9756331195743908
Ni 2.557781449293576 5.347498097755335 2.512427297128243 -0.7250850300443512 -0.7598329750484978 0.5410786329902875
Ni 2.3460212605776998 5.146658828918607 11.645802084268446 -0.7797325421859023 1.441413139831679 -0.9270001890580358
Ni 1.0547112913477423 3.389283347348219 3.686341476417936 0.568412287808234 1.1946188609171169 1.0676637003500904
Ni 3.827231362051508 2.8533840629365312 2.812587732545615 -0.716588819647882 -0.908329866342042 -0.6370337456313738
Ni 0.8474041783023544 3.419295383212936 8.225093994906008 0.9555887993290059 -0.7069896059952212 -0.8282862827248897
Ni 3.695870639368366 2.4842405759789394 7.288871496322129 -0.80206591557578 1.251611990472709 -0.6386959638251452
Ni 4.0612705916551235 6.453999506228049 6.238988544947646 0.48189852308570547 1.1649285329415358 -0.3075910984869606
Ni 0.7185746679915352 7.56896257822681 11.308888518071798 0.19743783996862127 -0.8563982104697574 1.5673532288706298
P 0.1222979076041153 5.57191890251126 8.109287613238395 0.5476945956449083 0.19256431392640386 -0.5355147657492648
P 8.299671399231691 1.385982230467551 7.921640888482536 1.0120265706017604 -0.15388078131327693 -0.9159981815205772
P 1.6386480498567042 3.1905936507312402 10.35364230534314 -1.2744449292068245 0.0024572032912409296 0.5966800244046756
P 4.181491793894397 6.304440286531946 3.802721684567937 -0.20410008248014525 -0.7211769532391966 1.0137450959547638
P 6.917022827376124 3.6738101990453482 10.679771577013591 1.1238513032852515 2.67986468166303 -1.7054271250586368
P 6.271222109051332 7.8189505406981405 10.30661039384358 -0.25178376170935346 0.39446481765206903 -0.7470049700458942
P 2.6647499922966844 8.35076928123505 5.890009138414124 -0.8285433930410182 0.6176491704571749 0.606110059469324
P 6.930758229526047 4.097622043896728 1.4819005149240505 2.6690007423653324 0.8863803586541444 1.0825136208787292
Ni 5.561580917471364 2.9793708550703006 0.5415892749442183 -1.764317728747258 -0.9344376191726875 -1.5804835956050007
Ni 1.4789330122579731 0.8969053653475682 7.008346856630753 -0.2785797988562751 0.8421170179603948 -0.3410246955550578
Ni 6.758664934950032 0.736057248155037 9.322795819813043 -1.5739995305425536 -1.0225092153006388 -0.8315595541595227
Ni 2.3618242597356005 1.4824124045797704 9.235610627917119 0.7493135635744127 -0.006364765875763233 -0.5886137024567734
Ni 6.500169767168338 1.9223369327224058 2.4206560475516237 -0.23260873144279937 0.14665495298879905 1.0298494577157942
Ni 4.009562449741922 6.688740079310143 10.479272960723552 1.2027528028781607 1.3713948016610122 1.670838331340174
Ni 8.410000925917373 7.0614813672287555 0.6178954454025661 0.07369244458814404 0.02350116844573372 -1.4767161860083469
Ni 7.572733437968234 3.639298634890139 8.281324436001858 -0.8317870967892964 0.5839042127962459 -0.22376413656797592
Ni 3.2834715656667552 8.648229999678126 12.45259483182421 -0.6809214481532596 -0.282224594697714 1.8455550755621957
Ni 9.098738438495968 4.804394103064743 10.151250972496898 -0.5522323356142619 -0.6391281662665573 1.476054641164948
Ni 8.396283740481179 2.130663270900802 5.783067920481606 1.0875977202698561 1.5585168615259224 1.2119195569790935
Ni 3.579192587948934 2.9648794593007213 11.318179952908093 -0.6560303413385347 -2.440437127526184 2.1021997649082764
Ni 1.083329748612368 3.418575823020732 12.715602279596004 -0.568328469845176 -0.5058203240086256 -0.19188348580929535
Ni 3.264107198975287 8.446151994307986 8.235572248641597 -0.20454771154052515 -0.7553502566867959 0.0024188938541377693
Ni 5.68981747375038 8.125401207365337 3.621726792829376 -0.19553830895306326 -0.7814744645776736 -0.22964064995341094
Ni 3.08737775075583 8.528400456783977 3.7113776169282087 0.28897656870956684 -0.2394632924707876 0.2501536823050982
Ni 3.2777606259134386 4.3186181064720355 9.590562384045935 -0.2582212898045811 1.1576417694721353 -2.075688091770993
Ni 7.2098747172463495 6.186896941210497 11.276533812821828 0.23384568917369403 -0.5121832901121759 1.8911685025259366
Ni 0.5518780748570513 0.006415015738852939 0.21420760420505713 0.27642032931111105 0.1757621547674005 0.11173165874905275
Ni 4.466947697991587 0.35515942666530026 1.749680741692236 0.12176256062249351 0.5006835170026925 -0.7638199847207039
Ni 5.9569291471247965 5.788224161301945 0.34903770001744705 0.5549921577475861 0.539340310142942 0.4606275295220712
Ni 8.065950962118293 8.94488918271723 11.169819392975208 -0.4698048251459651 0.01121386643794843 0.1854017347396936
Ni 0.05433954621102193 5.056841321889175 5.731250478286044 0.06260173399162121 -0.7598676849411753 0.3792706264101339
Ni 7.96016650550742 9.088163636177626 2.2688561720671383 0.22627173348117807 -0.7781675116916276 0.7735539241790161
P 8.457163997755767 1.9521303680224031 3.5841593749465157 0.5353887816943618 -1.5834082254509632 -0.34608334102488786
P 2.143223695015353 3.380748816967266 1.4801544429133477 -1.3298853695633162 0.7260239969188528 1.607445468905825
P 4.705650406309235 0.9987768718499489 8.364163120002598 0.6101058108922783 -0.13652609208491326 -0.16817482933844585
P 8.678023434978124 1.6766481146905738 12.321563831659523 0.022991575799166854 -0.12495869896228802 1.1424190389851099
P 6.2254526158130306 7.779019504209241 1.2341841766544384 1.4191216754233302 0.7548596902036225 0.959823920456276
P 2.0065528002808812 3.4190949993619424 6.133553849240324 -0.9105497568114964 -0.46289652806190595 -0.48999775515407223
P 7.051917592522244 4.014681346299121 6.076403464101276 -0.46340972025289867 0.20030102044902923 -0.4269347652553164
P 2.5544295739678655 8.436160126828897 10.486978630629942 -1.9854791375850644 0.08873622629514395 -1.7297705869000082
