# total energy = -340875.88713142317 ev
CRYSTAL
PRIMVEC
9.18114579096854 0.00000000000000 0.00000000000000
0.00000000000000 9.18114579096854 0.00000000000000
0.00000000000000 0.00000000000000 13.43753490952136
PRIMCOORD
 96 1
Ni 5.455152169839021 2.179007218869958 10.188190702932026 -0.5013005817614011 0.16090477803959388 0.07676388442461618
Ni 4.046397170941234 5.3212727029860005 7.068909299005247 -1.0873208124593854 1.4908616242707937 0.930427726682346
Ni 6.654549502939974 5.800427516838169 13.698088541983973 0.045844826248256525 0.17600512401614202 -0.6066427920443425
Ni 3.7484047243873664 1.9314927114710698 2.7473036127227672 0.24181662319431255 -0.42626653554369814 1.006969467793827
Ni 9.497803433327503 1.1036379832671164 1.692940838521634 -0.38197696959770344 0.4316949056481211 0.07372561181892465
Ni 3.003786263258539 5.357602496590266 2.305222265277985 -0.008439131906288692 -0.9849166017588458 -1.188852647857301
Ni 7.12438545388885 2.08745283377475 2.0243645909767434 -0.817707992988411 -1.108720361181084 1.6757118573823913
Ni 7.496139225137353 8.969052070309239 5.477663421023833 0.8178990259532947 -0.28828674173139385 0.4890716437953771
Ni -0.1639725081713687 6.7053855067779375 13.181025695578695 0.7946236003651218 -0.1197236758155938 1.4675370906122405
Ni 7.933529007120477 6.717881046099496 4.364538559886793 0.41763199979715165 -0.2577448643887948 -0.2479610455291536
Ni 0.9527917591281001 3.678297495688308 1.2596063686019425 0.1183062266427769 0.23893878742588523 -0.3348620183877717
Ni 7.25648377847267 7.561766054726257 9.207559873759232 -0.042195659531443455 0.35268259150896036 0.7202089328989725
Ni 7.622930847496441 3.437494405808934 0.35074914607593816 0.6561522116283796 2.875868617398602 -0.5826338307242547
Ni 1.3446338772065587 2.5798835843344663 5.470985055628902 0.7845939840432616 -0.34955381607199154 1.5447290637132105
Ni 2.392138335556697 1.9911793397807316 9.996343318247664 0.8889995414445464 -0.16860651755922576 0.5026290707648375
Ni 3.7244235717731784 -0.34048462516373973 6.437129873088578 0.3136676436983437 0.9725778776878347 0.925796912778554
Ni 1.2523817250368183 5.951549175348711 3.8000808030584836 -0.7999599249763707 -0.3270234961799594 0.9140719110321418
Ni 2.102941426600223 0.40235452992503024 12.011624083651485 0.7654588058757076 -0.4179549303542093 -1.5712605343448358
Ni 5.075346533796245 1.7389824480659029 0.638884714587466 -0.002571360271602023 -0.41583685556994193 -0.9269873335422294
Ni 3.0361589830585496 6.979148909783245 5.203201332829423 0.17750536271075237 -1.1257742313395775 -0.02292884088203148
Ni 8.582424842998337 1.5668910527365225 3.9834365460687016 0.7490687945534583 -0.35032283302753214 -0.5760268669306984
Ni 1.19688169917435 0.1832878025319081 5.406901576635115 0.5070233431777913 1.2029836879420444 -0.3067619177174459
Ni 7.005911949549844 2.9517750727687324 8.512006373459455 1.087567638362869 0.7635009108183883 -0.28549966590455994
Ni 8.33482770528799 6.850410884532041 7.251632461075527 0.588448894744135 0.5563003350360484 -1.3856471978149683
P 0.8427483827869303 7.285863444768767 5.517693216352264 -1.3464512443417973 -0.4575925993504894 0.3803854567408675
P 3.8475702792824067 8.788128412799596 13.962942561184988 0.8280762235966126 0.23614194140703848 -0.7549895309132675
P 4.084416295357525 0.6590079497711481 10.745634064432142 -0.8051047024021039 -1.2116418778376745 0.0423650952297722
P 7.111779740818682 -0.09539302211970738 7.625841270688897 0.2933201903902432 1.045057275804484 0.6264500565782566
P 8.647638521029952 3.5176366267772523 2.8579217287858545 -0.22469693279489045 -0.2895784639596239 0.3990609216631837
P 5.875263035581755 3.0140691464621727 12.450037563382113 0.2392010399483364 -0.3086827888892426 -0.3614497961786291
P 3.264806236007914 4.6769582588211875 10.88675470091258 0.17405519937862282 0.018016748292394778 1.10284179091312
P 0.16579771994001366 2.090996756021717 9.994972573192037 0.5202287861244718 -0.0870315848992114 -0.0893877438362138
Ni 3.7337883404050585 9.070696534548013 4.102519678483351 -2.4636878705240086 0.6502877824278027 -0.5315552668808845
Ni 1.2907497329903757 5.722396959384882 7.192655535329831 -0.9470054285353691 -0.6487219806025796 -2.7637983443632077
Ni 2.2458918654221636 8.705277753844605 2.0200512887186477 -0.09787855491604434 -1.2735612410502906 0.6652598303566026
Ni 7.517035512790451 1.0051334708637383 9.63093647303369 0.768123240081748 -0.912594298045351 -0.7416665885521162
Ni 3.6324284916835285 2.3700209555231675 12.15197901257908 0.4270450655809355 1.1835263505483808 -0.48288325559647804
Ni 1.4445339237590016 5.986446710221042 11.430934979309153 0.4122190563116965 2.263358053719573 -0.34470831505423216
Ni 5.229139905710587 9.234396362691571 2.2896078907561823 -0.6003505312777274 -1.5141877005912436 -1.8872298295931629
Ni 5.665290233021846 3.8523444750555225 6.521571624596415 1.5661612654450576 -0.33461982046997857 -1.3470541680331187
Ni 5.436358364555239 7.732810799443839 4.619233641351362 1.4320823493490562 -1.4549746805661974 0.02030220189246181
Ni 1.4262726249268347 8.346258231706317 7.470436607701128 0.4341791055225555 -1.162005959978102 0.8648239726396074
Ni 2.8735976169839654 4.960545487744251 13.232612717136352 -0.7109334211343176 -1.0945096168983408 -0.736105806634887
Ni 6.0159640937029 4.497999366495095 10.617036510710417 -1.3446936382207424 0.6423991237083453 0.4200933168534507
Ni 5.306004457657749 3.9663743048672435 1.6839378070310242 -0.5052233138545751 0.2693616226921167 -0.13974922700790127
Ni 4.353175973946778 6.5064392602247825 0.663223013770066 1.1045384618892524 1.1422467750733039 0.5470453920966837
Ni 5.1470971875787415 6.433219623127481 9.409418379733987 -0.7604083879359936 -0.007984560867373345 0.4335586983297372
Ni 8.892031438884882 4.157617570163391 5.02636328516408 -0.16047308981881395 1.7715319871075104 -0.5128021546430975
Ni 6.769708613674953 5.3121007384141885 8.261504321244082 0.6826728836267275 0.5399985125522313 -1.467120571900112
Ni 4.8523456854631615 4.942063841414863 4.548310208798015 -2.329608440207375 1.6622480185680018 0.8901591089702864
Ni 6.764089752495824 4.7224967415801355 3.4604876671439158 1.919861756695571 -0.5425377340343173 -0.20892012957660794
Ni -0.37688327736088706 5.132030927456275 9.385325217142045 0.43384151967747864 0.6518363578618451 -1.2982345754272546
Ni 8.477723057235627 5.5250482321865775 1.925827026448782 -0.549315419077783 0.27787248837660533 0.14019505629606824
Ni 6.217655502825598 8.33873887336366 0.056917594761254846 -0.9721855273454224 -0.40529276150550847 -0.00025171099948988906
Ni 3.594629714764458 2.8219720346142942 7.9820972679662106 0.016199235467681778 -1.0697115840180544 -0.7863279360152328
Ni 1.0262133814311867 3.9413189582041044 10.904290689233061 0.21259500732503386 -3.540053212413155 -1.3596060365562004
P 9.415081310412559 -0.15141729140264656 12.945962658001921 -1.0186355912778455 -0.05432561002575805 0.6048129379244551
P 3.8830186828977893 7.02558714482251 3.091721440711897 1.5823162779383653 1.632896819099394 0.7544855946936555
P 6.232831936696674 6.861575157724556 11.654266348888068 1.9549994809389686 0.1274624392207482 0.09516346997772643
P 6.647397390426019 5.949501779853701 5.748509974034681 -1.1500708991034128 -1.1119864335268654 1.1885590278762819
P 2.326291158470573 1.2184573916105452 7.157919588622128 -0.5997908021195154 0.1564472564888725 -0.2622059854839419
P 3.7484965358445415 7.393512378306804 8.142703050002961 -0.9892519959094059 -0.18157361924285503 -1.9972478480852183
P 7.181097390986032 9.06609678054353 3.1399894780926667 2.1239885786485933 -1.3040776644715928 -0.5339358512979191
P 0.3842722634343551 4.509677783847793 12.766410663662475 -0.4304078114055813 0.03681588327676885 1.7958980746567008
Ni 4.918863086186666 -0.04267488340965071 8.727423595429858 0.38516410907643345 0.09973334873659598 1.457740930457425
Ni 5.710186035580567 7.568000052668459 6.998052888815638 0.3331499207926714 -1.099328635553539 -0.012695078969165233
Ni 2.4066629080818296 1.4373726300993281 0.6042277257329342 1.0612637103610174 0.01730352427545407 0.6060887193130852
Ni 0.14854726525134673 8.325077328535974 3.5352139302534633 0.8444063282152038 0.5821874872154553 -0.6795536212714555
Ni -0.25124756124763614 1.3735085804881904 7.7930308523196885 1.4611535556833997 -0.28158439001055374 -0.34994668063503603
Ni 1.9200162793241575 3.581234423162582 3.4523045119658815 -0.01654864838730053 -0.7384161999356187 0.44095601923507277
Ni 4.178265966882116 6.689254233752237 11.58251018641814 -0.793190467463021 -0.9847461376192524 1.3312861065655845
Ni 2.30303531636807 7.39315431362382 -0.34921773097025416 -0.32204429779781313 0.4504793853444758 1.4056745487794888
Ni 2.2780166942878006 5.4817315866912715 9.068024821144212 1.9081241565436684 0.6595111007982836 2.3857790738616718
Ni 1.0034257777602775 0.05093883266999937 9.608038695614171 -0.7823944052887816 0.8294965009829068 1.0047644897227084
Ni 5.8522459032679075 1.0517277853802023 4.2138364797355425 0.6333213297767931 1.2852875283482832 1.9205708669474537
Ni 2.821926128885707 7.624629359454184 10.009928659565892 0.06753670939939337 1.9156639165641396 0.39586863997813115
Ni 7.807802397664623 2.327989670428316 5.966507097951711 -2.0219769754007824 -0.6797796212393324 0.130151298906821
Ni 7.7386041023916 3.0628761170965615 11.19088657960776 0.953873616410112 -1.0230262641463737 -0.3954251246828093
Ni 7.985117864907278 5.361440215500194 11.576342292725103 -0.7070430849409759 0.8440373749115594 0.024180968121577707
Ni 5.533458161663834 1.6471434474534514 7.2013225368871785 1.0099838291401186 -1.5494812336862154 -0.24285329198894304
Ni 6.466730804996466 9.103133522368045 11.16007465457973 -1.9160727219667841 -1.0717676952161348 1.1920498146383598
Ni 8.293696172473458 8.160945986543693 1.409288423463976 -0.40764377823618825 0.29586172586517434 -0.17936889828205238
Ni 6.224495456385157 6.905001976968473 2.361539413109314 -0.19907049047603778 0.0016933285420228901 -0.011543996083857538
Ni 7.465290575526453 1.373159696950924 12.980390118213515 -1.0143305361445887 -2.390280304166135 -0.08042642087786793
Ni 8.623565556958589 7.830516552169792 11.2073740810873 -0.20968734675993564 0.5719385557939376 -0.23653249197723777
Ni 1.5053498329919195 3.5038190024723703 8.467420893625986 -2.402040530025857 -0.7144432340597889 -0.9879867560437372
Ni 4.08570165575798 2.066125032272928 5.379986129849605 -1.5782403080967788 0.6568045005003978 0.16706205589024128
Ni 0.49262263650521243 2.085423800571176 12.793984398595933 0.25987939423329437 0.7762170728334762 -0.9380569610928295
P 2.644555574768747 4.688462234405252 5.508422095406702 -0.7925314937227834 -0.6979007563200755 -0.8784461914087324
P 5.335384123953844 3.0287589796102203 3.808506340483461 0.6667173887387357 0.3688890260654937 -0.3790127447630569
P 3.1848568190996636 3.2905593497455854 1.2961280481517046 0.06786786748656698 1.752500681507672 -1.395657530863119
P 1.165243471031742 6.581228873239781 1.7603442198068797 0.1944371054690845 1.444810338438686 -1.2192420587824357
P 5.066091938912974 4.077135646803525 8.64948576754832 0.7994729580376231 0.14232392971361296 0.907817702592314
P 0.735646645533657 7.1237244113971885 9.521232799084068 -1.1370410625026481 -0.858414726679154 -0.9686734004271059
P 1.8204100294346757 1.1817419898861432 3.5025336420719158 -0.9992749273630468 -0.09865425673980428 0.6646252820963973
P 8.829507836548503 3.603406890070417 7.2822837160535006 0.22011085608610476 1.271236963792488 0.26499768929646617
