# total energy = -340873.6170240371 ev
CRYSTAL
PRIMVEC
9.25086146318328 0.00000000000000 0.00000000000000

0.00000000000000 9.25086146318328 0.00000000000000

0.00000000000000 0.00000000000000 13.53957084277394

PRIMCOORD
 96 1
Ni 2.6581703361269 5.820151848011717 11.697674764654156 0.2444640881194887 0.8326299044055661 -0.29411517548771277
Ni 7.546501392898215 6.630508825923286 11.109677972716776 -0.0826141725578061 0.6630306839157678 -1.8917436583031162
Ni 4.456103048381144 7.704533862288651 8.45589532026557 -2.3397285593605126 -1.3220375913841231 -0.46342026177586
Ni 3.178253777508991 7.460477630510951 13.627984531713548 -0.14629962653190934 -0.08722673162915301 0.3122262832661268
Ni 2.905778898774233 5.337802671257828 6.274562497527646 -0.4173797745770295 -1.310498480396272 0.19027268967874972
Ni 7.432762049038508 5.682656291461343 6.1830890525484525 -0.9692526699693434 -1.6855563542766392 -0.0152389284369415
Ni 5.1868933653299365 0.5552653932839099 7.465990218962029 -0.3288111842080015 0.3316337412584611 2.103490201584926
Ni 0.14475748293751275 5.438674066576759 7.335550294584228 0.6728530693228283 0.0038075466715482816 0.7919702219026747
Ni 4.184525503225434 0.6668631626740354 11.511167218050662 1.0183759098585559 -0.08545112778596896 0.609075569855551
Ni 8.492614765371902 9.060552914015991 10.232192117316961 -1.084450690000442 -0.2267990667395578 0.17384616869161026
Ni 0.3001284794342157 2.9957250264967175 8.536821857889379 1.2648608850628151 1.1084159425667877 -1.0314296577187205
Ni 1.648438788157222 6.942457131274504 2.359798595318057 1.418671732370105 -3.3336777036352716 -0.3577080697480098
Ni 7.829522253902195 1.7507348161686622 8.81255489009363 -2.121883873600765 -1.8321511434514641 -0.6838748743546287
Ni 4.429821350462849 7.872446251910251 2.5036698457104896 -0.28133370745232833 1.296884489157263 -0.41463512195235686
Ni 3.46544677711246 1.079196268021939 3.4189584221146405 1.1583282540161988 -0.24688298197362643 0.050001014508475175
Ni 1.663480689183321 9.09090499105574 2.0874902320928124 2.329040740629363 1.3154601952769218 -0.8968432058586813
Ni 5.5654108710402 8.90577674792272 5.49085077639681 1.32410655809801 -1.310588726117233 -1.7903313792022006
Ni 5.862890828786979 1.8287843358225346 4.034818809310699 -0.49246472863732604 0.2710582936682493 -0.037580015136303026
Ni 4.534134066311737 3.0756894745100007 11.474800230772802 -0.9953100291780277 0.16289121234200335 -0.6535911357694227
Ni -0.16740729257607398 2.9654192037651677 0.09551329625723617 1.8150520218773323 0.6225000707915731 0.947329130423375
Ni 6.618519709238277 4.214285525120243 0.553455924747191 0.714403381960789 0.5934448052968296 0.8535193462600656
Ni 1.3954554748972425 5.227042104846092 0.2743130249425604 0.8475083641792952 -1.4795179171232002 -0.41039845816319
Ni 4.883039563913426 3.182370410938643 1.7203651624917986 -1.3616873445652613 -0.5032713323345268 0.7264351163143424
Ni 6.272768755455714 4.6648209886953165 11.744183471547585 -1.5098224816440127 1.4079674585787236 -0.742875778368869
P 5.518434995633969 6.191842217831906 10.222538843195968 -0.9315194170846279 0.028239711571983624 -1.263360903478521
P 1.8641688815942619 3.8348521841076524 11.686775399470301 -0.4522423907821695 -0.31963877368011406 0.34941471939096597
P 1.1423704021592265 0.9794164743764882 0.14576397668390856 -0.3904976054742049 0.20824932876182844 1.5986294132760919
P 7.562708902490913 3.6587897853815057 7.425642585920619 1.00638351338337 0.6524287400302055 0.5427333949848911
P 4.170556702149536 1.0017850578212035 1.078355364698893 -0.16977354128413344 0.06995586036384727 1.2231521924701192
P 3.032256679111763 8.10152533869333 11.467691868688883 -1.052457167812981 -0.4082107064832518 0.025724401349297633
P 2.637180131066495 4.852696737735318 2.0305299017188894 0.2534230970849894 -0.40397275714250425 -0.0895929178684844
P 7.141609680653261 8.921993508377057 11.943797638922158 -1.0941815441349607 -1.951574771528136 0.1967025044644935
Ni 9.067065520610317 2.249550526641159 11.26818593639549 -0.008740979417423656 0.6745088597586963 -1.27863454180814
Ni 7.927636892452505 8.231768219718205 1.4240924421889964 -0.025502515146478662 0.7241512053761722 0.8691357126410838
Ni 6.4130580722212684 1.4148360300323453 1.8432230806697272 1.4232390400258133 -1.8204479960819229 0.10494471773420636
Ni 1.6691977216766352 1.0406201749845267 7.613937398992898 0.4787905735843431 -0.31441892004207145 0.32907857893677517
Ni 7.8117328469691145 5.791612939853343 2.353583866468529 0.6983031339648167 -0.3804613042841254 0.17668080992692797
Ni 7.282232028437842 6.49779596484062 13.457832508488984 0.4213899241776872 -0.2654000669412075 -0.6232528897971975
Ni 9.24326668226106 8.03088575921283 3.4634763435832108 -1.6603865398792308 0.12580124946824142 1.2525833532470427
Ni 9.310899731708668 3.6875044599110325 2.319369554694219 -0.6173861466037754 0.025623099884742966 0.5664921879673857
Ni 1.2045269415161504 7.80907784967853 10.117701603492113 0.7056258928784751 -0.5331917740430431 0.5547121646133221
Ni 3.0141249902980154 9.446424854729791 9.480773303997877 -0.8606927240800532 -1.3981216761328954 -0.11322264147228243
Ni 8.106049010035129 7.906563429637344 5.894398338445522 -0.23450389158298324 0.3345097772546755 -0.3769360647396863
Ni 4.736552169849296 4.940367153494444 7.655855828340722 0.5467785115885422 0.24831662909635943 -0.7089351597573661
Ni 0.8207040666555375 4.919441704465517 9.903072362590192 0.13582443803219835 0.6638174414831213 0.1258488148767252
Ni 5.593551992148067 4.457583186243491 4.868734956560009 0.49512427774736023 0.9570877524720355 -0.22593517607736574
Ni 5.678724675264484 3.2800502589918894 9.364183769666987 0.5787913170497129 0.13226577414666252 -1.0818189088045498
Ni 9.30303649931495 8.541477816552625 7.909844710260934 -0.08555011525767847 -0.20509741339640805 -0.04351874921824118
Ni 1.7235465338096803 0.9612570329778215 11.64610306118534 0.4316149443398051 -1.9069496766195932 -0.8232361218954918
Ni 5.238476169832721 5.632821899808455 2.5743871324287615 -0.1232892816796651 -0.9023420241897233 -1.1274583039102195
Ni 0.6887756786399153 -0.00751077456524582 5.488793384768147 0.8638580091819122 2.3623907768447188 -0.9359003197611431
Ni 5.605208077814049 1.9997865132317834 13.248714005865816 -0.24999941611542104 -0.3038419158571735 -0.7318066650389009
Ni 5.810799226894013 8.736569237671565 0.4392614384948108 -0.026937704931108447 2.0081264426709353 -1.1810244100621339
Ni 1.5058460068433914 4.806840216587488 4.187139796724804 -0.6585579928563949 0.7443559624588213 -0.03270237532902755
Ni 2.1083083711267196 2.504384012229072 5.9822426704034735 -0.0370591096358265 1.856330826021461 -2.042054719987264
Ni 4.0692412654719 4.752657919963957 0.16609829565406106 -0.2592345615604439 0.6407500181406965 -0.1426957112307349
P 6.941633804588574 3.362160906905576 2.660809606952697 0.7337694451922266 1.1844642889816182 0.49437454406552916
P 4.644607856012644 1.458768371959125 9.412831275771504 1.5509063961685159 -0.10586285867310155 1.6016913400308672
P 8.865572503236725 6.109130263911641 4.622842428746834 0.5913845803336911 -0.5779449098890175 -0.7278281400071271
P 5.32745095708304 6.775747353666062 0.5753582647652672 -2.0489126234493615 -2.623744441630694 2.3814030562811634
P 0.07719659021069507 6.695967922885572 0.7645467110719376 -0.9600496633138369 0.9962091439535294 0.6277854875602286
P 2.3858619729016555 8.183913512456208 7.568850549533488 0.5923921956625992 0.132728572715694 0.5396982077029931
P 2.6205840852849316 8.432021621632082 4.123788046044035 -0.01440923344679454 -0.6138791618917815 -0.6290126750991102
P 5.466805936822987 6.5527553338418825 6.2336995914929085 -1.0799471457031338 0.5228849928003962 -0.6191365536359789
Ni 7.784951602522279 3.9684161244611675 9.843390428721879 0.8607953110961885 -0.39985950630507905 1.009744459435803
Ni 6.823583559204781 5.578556345430167 8.600051497196505 0.8115949381121377 -1.0707824484847301 0.006970003559929931
Ni 6.611387294914095 6.90365901755774 4.1378151275482615 -0.31567387549509507 0.8450933269798994 0.06813371955344395
Ni 3.8393943571727283 2.5417297406684085 7.7264778311841065 -0.6563602138741277 1.156765280404453 -0.8193403863855117
Ni 2.2299201982417847 2.519564676179766 2.086163658533684 -1.139989346497695 0.3424272323295393 -1.0171597780632677
Ni 1.683499553771561 7.278300412240983 5.786094800885282 -0.36290015547191046 -1.479975316375593 -0.6176062330343816
Ni 3.9243727721947117 6.518517894913475 4.4843598052595075 -0.01563179299998598 0.4160340591824125 -0.17501653485062763
Ni 3.933124087305837 4.659779269101697 9.809066956780221 -0.7583864724099585 0.7889949413244347 0.6417900293694366
Ni 3.5873546317999954 3.7558035713966955 3.6224579513778763 0.24293531017978803 0.13503768046484485 0.8265019371309571
Ni 2.911606941607223 2.314880111540489 13.057467242844318 0.29589874975069685 0.9928168304425289 1.2407441945202697
Ni 3.2996158313597856 0.3973578105256102 5.894655512399104 -0.1747735656018861 -0.3551179404233304 -0.14913118244343349
Ni 6.282149129158338 2.449008354454024 6.18834261687362 0.6989248267092156 -0.5567981006080733 1.4447177787248795
Ni 8.558425395076494 3.627938161813215 4.708941123113381 -1.199667736194934 1.316920581872532 -0.15465905424019813
Ni 6.5656140315210205 7.64728027960075 7.966020567567813 2.2240638841056404 1.988509696881272 -1.880348014871665
Ni 9.035880866023 1.9304420543808378 6.362095075448341 -1.7886203100483649 0.06757399039523201 0.614481828472787
Ni 5.8878311517675215 8.50270745542078 10.107357290006636 0.21441843368701782 0.5528440010563317 0.3476195751637562
Ni 9.090553458313433 1.052174501172471 2.130140404596334 -1.137972830288298 1.4354407242983278 0.543140914835955
Ni 5.046733560627338 7.244914052583424 12.013634243612335 -0.18756917470465762 -0.06605369709596366 0.3934538598890514
Ni 8.241851658905443 0.9010061711186688 13.229203938667757 -0.7759033982477992 -0.8433020394074315 0.6182801191729544
Ni 6.550821903759192 1.473856527293422 10.872370244505214 -0.1232283465347426 0.9100946715519488 0.46462713759976754
Ni 9.206364995180428 7.802121201725501 12.376535369788677 0.4721612411932836 0.3118876689797854 0.5738216317492634
Ni 2.341337575829937 2.7064413321626835 9.720531585457787 0.7721022793341542 0.0740732249663305 1.0122170893460114
Ni 2.522080910545755 6.307135706447078 8.847026375821521 -0.05504037670459553 -0.072390695057585 -1.1973046352793961
Ni 8.670638346765658 4.667855271313127 11.970104314166882 1.40614068978263 1.059629517191704 0.6209962325525369
P 7.253508103046675 0.40505730266830525 6.998333260664258 1.081527602816376 0.22833658643000676 -0.4059023700650493
P 1.999185207225205 4.244193560801287 7.93724853769612 0.844596589849139 -0.06404900796110904 0.41270756591234087
P 7.017509371757125 9.159731401654865 3.557806454636734 0.00657482500404029 -0.5479781883235982 -0.5255653678460368
P 0.6969515901570532 2.085551251493138 4.1790156900328475 0.19297080533620314 -0.07881253942352878 -0.47848666919067917
P 8.656771305167796 6.778809388868791 9.086663470993953 0.457737866679102 -0.14027193228059068 0.4491187575515233
P 0.9126530059230098 0.9685929662580777 9.576417037404232 -1.373495392943783 0.29130778794590473 0.20659636653943775
P 4.252204806981239 2.9031424032069277 5.504648436532374 -0.29462116858985393 -1.0266016402024576 0.43418090529476844
P 7.313028146836294 3.026456388863692 12.418900615753696 0.6349966605966871 -1.655956529132335 -0.3464258119659711
