# total energy = -340891.5146195171 ev
CRYSTAL
PRIMVEC
9.01975943044219 0.00000000000000 0.00000000000000
0.00000000000000 9.01975943044219 0.00000000000000
0.00000000000000 0.00000000000000 13.20132965771060
PRIMCOORD
 96 1
Ni 6.217509548160486 2.0728489401626495 11.519084179797638 0.0939887329433349 -0.6303326794621145 -0.13484356217616777
Ni 4.573622324079919 0.25255145838670806 6.013482591228389 0.11281229340774118 -0.4544417124263335 -0.2803924265849816
Ni 2.896461207686242 1.6505889052919096 4.864346306093166 -0.1156317651344073 -1.231413661147963 -0.3962954431029046
Ni 3.4812663261499672 4.196010098086892 5.0638579714850245 0.19096174532597435 0.5719557821851182 -0.6140018035125747
Ni 4.821954339033699 4.342518049521377 2.687619503202847 1.2378491323606617 0.6528529720518177 -0.18284965774180123
Ni 7.3893566854115065 6.162083126836537 2.7223654202450143 -1.285621000428302 -0.8146468375645841 -1.432242014855372
Ni 4.974758082507909 4.4726461179413315 11.529262076269882 0.13545137096349574 0.372668547712584 -0.5419569218301828
Ni 5.694480761616652 8.112876683214697 12.41249765915193 -0.6006768042688946 0.017378857598079746 0.15908366567045507
Ni 1.7537929919946973 6.5506543604631835 0.3433227087749421 0.9321061428260334 -0.37345042018393104 -0.4390251207609472
Ni 2.679436777503077 1.7651939678374104 0.3636965412381703 1.1579284474746185 -0.918165107264909 0.9790632283018623
Ni 0.7107696659588403 0.038600060220641476 4.472201443804428 -1.3312046025953719 0.38888038158575605 0.5584238091369543
Ni 8.675339857720827 2.753876851577374 1.1915571154246725 -0.07038909124652394 -1.4725839090075283 1.6396151116598343
Ni 6.8606725097431625 0.635824485359866 4.696715882167806 -0.333427085713458 -1.0276125979654753 -0.12947201345160927
Ni 0.45819836410151993 7.266309128096401 2.362127054749009 1.1040131855134019 1.635573594600609 0.34434116152280053
Ni 7.554977506949401 3.637055609975395 3.8257715253782156 0.5059411658572062 0.6545239319963372 -0.489379404843783
Ni 7.619946833686 4.051865323607147 12.72176446247645 -0.016679517538209985 -1.0536097933601856 -0.8638484961002155
Ni 8.062744860640489 8.799731359181948 6.808717793800431 -0.7402236854580025 -0.9412279026216435 -0.5639054010768159
Ni 6.792870978564622 0.9766685642601424 0.33994751481897434 0.39967670087031165 -0.6463704496512674 0.17715646401176588
Ni 1.7709124952775057 6.790381524978713 9.321142000894941 0.34466872006554833 -0.7197253083943347 -0.4893377529725702
Ni 0.2750359145423372 5.031555507255983 1.4510375529588269 -1.0578215174486878 -0.7679954562546323 -0.6803714891870605
Ni 6.553540683461339 1.6664817213005019 6.934170018963373 -0.36452303578731415 0.6337792432498182 0.24368067298624488
Ni 3.4392071882112236 4.158776531410689 0.38447536089707707 -0.4457827511997548 1.4571426347517937 -0.2664915002331733
Ni 6.09908010764243 5.657869558336928 4.616729558057367 -0.6237429420597387 -0.7772131181981582 1.0561256178035037
Ni 5.561574607310973 2.687274948394942 9.167254082344547 -0.543267156001174 -0.2759639584999828 -0.47796627791083496
P 0.1459288828829803 5.542696250951165 12.331243156874176 0.29231925992955465 1.3495694782558048 0.7220909804130339
P 3.7793693733031857 6.180988542474453 12.577817220726892 0.24014926279421864 -0.5716331087383768 -0.2851960186212121
P 2.1435007153018675 8.579838645519366 1.335102977882301 -0.061983383681331966 -0.20138088377676927 -0.49078142739763214
P 6.260254187811292 7.652490125490201 5.686485646911763 0.7866817198102258 0.058892146350517934 -0.01891869128137387
P 4.5521462770217695 1.1063727039897426 12.65268212546748 0.8406268065681135 0.8920802372523992 -0.8240606746793162
P 4.06869619459014 6.086560681637932 8.191134821429992 -0.8401827770521594 0.4821330076940148 0.13972557285881743
P 4.7931452276083615 0.7494896889790925 3.8099436516370817 0.05630433101868367 0.6477421331878135 -0.257085376427925
P 0.18869516995627147 5.606222416188688 3.642536917744079 0.9612488258282605 -1.67833258283469 1.1220960111570417
Ni 1.6743289119517364 1.2869843655993056 2.5547214666806006 -1.5164546422485494 0.1073741531113054 0.01901690742213499
Ni 1.7871390423827596 6.2102035430714055 5.07168712261752 0.6761978174253451 0.986114992942321 -1.581819797917921
Ni 6.067610167203169 5.553862713050277 9.012824978232 0.23880303317896936 -0.09446155881469538 2.03188986363912
Ni 8.485852752891937 2.505644053976656 9.93638970920577 0.6076956587888889 -1.1309413773628136 1.2846069573414909
Ni 2.2189149233880423 5.093701649310012 7.038064117257909 0.8891692342531912 0.4117428880062264 1.2764200506553245
Ni 0.6709916251645767 9.130792607070353 9.121604178200911 -1.0167903105389908 -0.9887424032628391 1.078510413256607
Ni 1.4718082548343014 1.0156429444946071 11.797539485116852 -0.8589322897455207 0.3512304324434661 -2.317286171196596
Ni 3.862324100222041 6.92013076350516 1.5660602303631233 0.5796235831430211 0.44614090587012195 -0.14414144253832598
Ni 5.825339430545515 7.696100662040453 7.866091556992742 -1.1045045233275235 1.0204579891985652 0.30086997771304314
Ni 5.339886961533915 2.698666904478286 4.862617218222083 -0.04748004785883436 -0.07956150177441136 -0.1170013917884243
Ni 0.9554450704643322 7.520540065677661 7.0409558521116855 -0.5712189040190937 -1.5151374660990227 0.20985755378921275
Ni 5.169963714776895 4.513361311734059 7.0536159863623435 -0.6390564324883574 -0.3010085601734364 -0.5590251901663792
Ni 8.035351851436122 7.356975749275953 9.025366051658985 0.6002685130868822 -0.7490734225391485 0.05798403271395175
Ni 4.529822372582912 0.5064775281012875 10.400350797568295 -0.10467192368879394 -0.8481519113005652 -0.2377841049961518
Ni 8.323118254352197 7.159199485586735 4.862181563844549 -0.6074264642879024 0.25753249126767264 0.31535968668878595
Ni 7.231465797653047 5.9695924421376905 6.856018313908637 0.7173470379701452 0.0039638697437544635 0.3614713934451839
Ni 2.3105105797826244 5.383344162174889 2.5966092291913285 0.09139037608853938 -0.608759581277029 0.7718803931313352
Ni 2.430103569259312 5.147450395391284 11.004509613710589 0.2441046478975409 1.7355758807278756 1.5577725271607301
Ni 1.205039851729805 3.298859732425926 3.8689797806605997 -0.3841860614338803 0.8191478107587311 -0.03659296863268537
Ni 3.7621777119454234 2.3431440691805165 2.7272234626412843 -0.22959359876555943 0.4150231014193949 -0.24955050150346056
Ni 0.9829282772623915 3.4929198552550185 8.285154087167088 0.36874581561941006 -0.5371962672167457 -0.42766341589122475
Ni 3.860691523776209 2.5041377541619934 7.069708139052995 -0.3047996517847525 -0.2470429045902584 0.13027856851330466
Ni 4.11914370874227 6.821842445658605 5.964043486173738 -0.0013637131167460385 -0.6401828327833168 -0.20204962770901974
Ni 0.8188381088894563 7.642757805130795 11.590225727870605 -0.04152228761350268 -0.6156179989597592 -0.7953823329080173
P 0.1662413809824977 5.6750882789727966 8.120678775069086 -0.03530973104488758 -0.5938101590560483 -0.9245890085133819
P 8.645042485999566 1.5046311591789479 7.8445469597633855 -1.2366823657460702 1.6704961175094066 1.111515150317402
P 1.6459798082542307 3.3746708099243468 10.427400153940695 -0.036958322391904094 -2.1884088539061928 -1.8814705585118823
P 4.0390662850622014 6.021807829126193 3.7781408820770963 -0.6410606074025798 0.43127144495745723 0.34547681778914047
P 6.793421183886146 3.8038490002312897 10.516667810442078 0.5474696241182958 2.7408890438652023 -0.8311517771981428
P 6.336344877850158 7.736860954630026 10.290964567793834 -0.20443715410458982 -0.5680888430305442 -0.08486671603740868
P 2.3724402476117925 8.365790735928048 5.660426660118105 1.0848746649117382 -0.057722037301816714 0.3239708253965647
P 6.845284800259247 4.098217867005645 1.5982715950225357 0.7555816559713115 -0.15732168867402582 1.436834262211745
Ni 5.330362095640002 2.8774295154171563 0.6825062499753421 -0.6466072482524219 -0.15293512957055594 -0.9557839460589475
Ni 1.4921478122119265 0.8824490598650497 7.040044856415393 0.6813924742524071 1.7090834908643018 -1.5109349979819011
Ni 7.031353416287197 0.6217987595407055 9.349036508720237 -1.1087332166968904 0.1964227684405456 -1.939788834636801
Ni 2.508449199140488 1.5866297916046639 9.183214546548408 0.8405651000922426 0.3127279054928937 0.4128852291407856
Ni 6.387044945264629 1.8693451292739678 2.5373349785204633 0.3112983721352187 0.6628316805310843 0.9245085329844336
Ni 4.258228398215876 6.942617023612662 10.42470685379304 -0.4316170012223341 -0.1785194057975635 -0.207170750985669
Ni 8.438571174278406 7.384882884764365 0.23691390156826522 -2.4244482082970955 -1.458196529937605 -0.055531714518717266
Ni 7.57962850930552 3.7164294924246635 8.054592802122574 0.10165807656313461 0.5176985635034503 -0.10822570247832329
Ni 3.194582294358199 8.392056275211262 12.584339408726784 -0.033209139762117 -0.44853126047916947 -0.23888479425949824
Ni -0.03677716685211907 4.936009196257675 10.274158952137077 -0.6325445995117687 0.07556832145461824 -0.4055321312098241
Ni 8.692432301725527 2.057055341507119 5.566815989480436 0.3282591683592734 0.9950516333103187 0.8950043528777296
Ni 3.5328683695013607 2.6441424590912606 11.165129880654177 0.209202179593401 -0.3213056198595757 0.950200281323583
Ni 1.275484172403531 3.3420824193233005 12.58222698108251 -1.527778037681169 1.161094503907426 -0.41548410021621346
Ni 3.0807709706371913 8.306657193503343 7.8543821053796 1.4719074517657942 -0.15691236905074915 0.9089060505604862
Ni 5.524638692693957 7.6849792987381855 3.374682535611527 -0.64024505347982 0.9207647496712852 0.7531025983031997
Ni 2.4876045352381855 8.149614163125593 3.4315936093276522 2.431836787451683 -1.1044140204962463 -0.03216630031989944
Ni 3.7089521119075677 4.095529978713613 9.088388914323705 -1.0891149282453307 0.6198973430614033 0.10612279720270755
Ni 6.955632536382469 6.105024129066756 11.79688014070696 1.1134241944146566 0.4940660116861749 -2.440871901070757
Ni 0.21684674092359105 9.408871788423868 0.5535029455487315 1.0178899713610727 0.7212304321849514 0.7030211082657764
Ni 4.626469094224267 0.43361771586848047 1.5368461317421078 -0.017053613048177083 -1.4768959061193208 -0.0010466960969594877
Ni 5.735710081693426 5.517278569048661 0.37517418503552186 -1.1418909343957817 0.14561262776721373 1.2982250623455576
Ni 7.838234030180859 9.019759369235068 11.35719663666267 0.771536122418039 -0.9941260361722557 0.83111012532693
Ni 0.0731691899791718 4.722827183565805 5.788505439209369 -0.5655995009497872 -0.9342175327420814 0.23641165012865736
Ni 7.6079956525217645 8.805513024937627 2.303341675035956 0.22529034340451523 -0.5541658051915488 0.6707028557490449
P 8.504803267326698 1.5546908236782024 3.435976310405164 -0.051666575136356176 0.3888657262977367 -0.8780165600704813
P 1.8733589221932774 3.3784320495813174 1.6472750456996528 -0.13765172104892423 -0.03941064058713858 0.5664783040103147
P 4.862128347264271 0.812025484637873 8.14873203065928 -0.07611313821449474 0.23043974881593865 0.5541892022303165
P 8.41929594850635 1.7932905182725778 12.277658570413424 0.2858642483328303 1.284792848100052 0.5182721766187333
P 6.1115454150907125 7.43671944185936 1.2726943608306265 0.9545521305343753 0.9785672625020502 0.04285154794788749
P 1.8851657872076062 3.0417244323277726 6.0952124348249015 -1.0403539567915436 0.813566974236844 0.6121223271016748
P 6.8693495182563655 3.7980853739943483 5.983423341154476 0.9825383313346562 0.24594324376817642 -0.9438946508205291
P 2.387043238030584 8.555855105356569 10.39662834287661 1.057018047710786 0.6105992055889291 -0.35710257495352693
