# total energy = -340892.9704308669 ev
CRYSTAL
PRIMVEC
9.07925391999735 0.00000000000000 0.00000000000000
0.00000000000000 9.07925391999735 0.00000000000000
0.00000000000000 0.00000000000000 13.28840585696872
PRIMCOORD
 96 1
Ni 6.440768102390369 1.8328561830715386 11.488517204016663 0.051248770872647224 0.5598438294129325 0.4978918131901683
Ni 4.6735458443480535 0.3055813498548944 5.8871360937786115 -0.4573766266849413 0.635830469351892 -0.12324351604339417
Ni 2.5087793836041845 1.5069472920978277 4.836554765357135 1.4963097918695585 -0.7214507757258737 0.34520659484688937
Ni 3.320274000451168 4.177873067609175 4.772504262173964 -0.7561537264246978 0.5673090274417263 0.8457229901440985
Ni 5.232473781645597 4.5606816415484595 2.7654762156637633 -0.3683547508285785 0.25957163318488846 0.039453320899615923
Ni 7.376494147674874 6.210890477848265 2.662226034611776 -0.2476921081384831 -1.5055899316199037 0.6163625904352675
Ni 5.0507252809906005 4.7474963657705205 11.374410051384935 -1.0857506397587882 -0.3647060983323977 0.3926766154033947
Ni 5.8724976130309825 8.070212685468176 12.651386202627503 -2.872655509777943 -0.8595912634857583 0.6422024343165068
Ni 1.831730355612191 6.49640576909103 0.312875622281022 0.2384957863511957 -0.02738893353591412 -1.001558838301217
Ni 3.0109710645028334 1.7431349979645012 0.5363169638720663 -0.9428636384528536 -1.008028762296277 -0.1130650328484956
Ni 0.4818078484068649 -0.04370298770620564 4.703777035407647 0.24839350508088187 0.34737403481185336 0.24723548021703876
Ni 9.011349965960513 1.7705089478833151 1.322767367300789 -0.528689001076683 1.7958736491766685 -1.0252047598549312
Ni 6.764679557549109 0.7285020666602886 4.734087215974468 0.3984168603212816 0.33336692189948397 -0.181607557804584
Ni 0.7964548330856184 7.407454402806933 2.4571592866677285 0.5949566139556656 -0.2810848246663159 0.20662516289484417
Ni 7.679278179463439 3.9792280758102607 3.748605952464394 0.19858558041981927 -0.8304591220064923 -0.06099890828087559
Ni 7.6693273174034 3.7698332476253182 12.656422464657341 0.07893955191969632 -0.1378635799494142 -0.11935138007783962
Ni 7.958510627142748 8.94628803391467 6.7510679403954486 -0.1333294395244865 0.0217733871213496 0.3141044741254461
Ni 7.161088853537609 0.5223794015104175 0.5924194883623926 -0.6623729957271108 0.3460146925704815 0.23177080892253632
Ni 2.0684809752085385 6.530852457645583 9.083914085342315 -0.49727114888703394 -0.06872533039085583 -0.038767093465868714
Ni -0.05844951157291785 4.791458112207302 1.2783661849847137 0.20929756752068468 -0.32282334205568275 0.8441348197213719
Ni 6.553804811010347 2.046654449303123 6.985634999475884 -0.8505152693264192 -0.13128824072474166 0.041796881431128016
Ni 3.3923541956105256 4.2546199991726015 0.6211489708592757 0.19296617735051283 1.2172108872850198 -0.9337683610198048
Ni 6.208230256512871 5.71057820246643 4.806762102251465 -0.898934026949439 0.0076505745667223065 0.4880835688504949
Ni 5.289500574163032 2.8150589280689484 9.318467525542195 0.030137185705012618 0.15611095619537632 0.33452057588795286
P 0.07715640590549624 5.6448444056464595 12.564652091989217 1.0387272198213982 0.16175324208281822 -1.2376025635674943
P 4.047803679039713 6.325043934673886 12.563576200425246 -1.1595089045878613 -0.625285089735878 1.4496244719978777
P 2.301999380486114 8.546292432712924 1.299910346099922 0.8076189841835253 0.38272387506605704 0.5387576981665947
P 6.363403781575042 7.806296938788216 5.735674167630806 0.0191842862379347 -0.35372723072339085 -0.14592835923541964
P 4.783459289693711 0.9717343654762184 12.836134488706437 0.4452556750516913 0.8453620072602538 -1.230377506573965
P 4.107953734831469 6.307747956366973 8.195756973991356 0.8444837184203586 -0.14674931247481823 0.2608934373201055
P 4.62875788582417 1.2625791786434752 3.753509657390149 0.23608023493116762 -0.6193106173199979 0.12422002102405057
P 0.26583419298770267 5.498159982797917 3.528975173653093 -0.0963610898302534 0.26988509929575455 0.9997739784866524
Ni 1.520448142356294 1.1136249423688291 2.724415290785543 0.9893558684771219 -1.0920572987031065 -0.32631541436934125
Ni 1.89834484004149 6.299494914749658 5.013024587908384 -0.5927300386179921 1.0820323103669365 -0.8453738343347958
Ni 6.179267437195785 5.642465641175903 9.245341400356088 -0.7522639044519883 0.6524109994183925 0.3646454202977913
Ni 8.592324248994313 2.3670340747708445 10.20926942349725 0.13332686842132524 1.22376514346377 0.7005443645905097
Ni 2.699607137963597 5.224556672415346 7.036808397130083 -1.6271506606442365 -0.952848003359075 -1.0390974586766235
Ni 0.19354426706777333 9.279632833672297 9.470979013418232 1.1066714490718554 -0.898946368244613 -0.3138108541444273
Ni 1.4313080294863394 1.3527089301672115 11.420945766246918 0.5054673115445811 -0.5774353172424507 -0.21727955728489676
Ni 3.838989923091854 6.833963342567506 1.6988028179765797 1.3749015292626903 0.20187916356942653 -0.7304174980008582
Ni 5.530781741357884 7.972710579936455 7.895943674014878 2.176439597359458 -0.7088639401997986 0.1858151681280284
Ni 5.259675225744027 3.056458125561957 4.908338068920358 1.2845318811291813 -0.7549291099889773 0.15761273755188338
Ni 0.8147186598374213 7.655608565056027 7.180987853881577 0.4654007825409984 -0.6336555731877602 -0.33278328148187203
Ni 5.273675434956235 4.634296230583863 7.212654474951839 -0.006814194708356006 -0.07354563459763462 -0.5078535523885706
Ni 7.909037773707386 7.277394093491176 8.943495255475192 0.8908286242334852 1.3113058067889158 0.6931946090936578
Ni 4.6982232559166555 0.33632097912193504 10.647906328464988 -0.12950980866808018 -0.030753736243088966 -0.7962228265314416
Ni 8.439874500043468 7.0012758298324815 5.018379531743248 -0.38244696725558647 0.5386877641606078 -1.054250769378294
Ni 7.37035657217069 6.2052159442830055 6.981927940188371 -0.7390669461457401 -0.9270642095267518 -0.01794912827925296
Ni 2.1543162397300857 5.327324745095629 2.4267156410714517 -0.09074322942284373 -0.8085371251224204 1.177258258151482
Ni 2.3410764884299198 5.224320611819031 11.244754676784396 0.013565911609892763 -0.006615191323672479 0.5839566633007364
Ni 1.1636970265486826 3.241021194865322 3.8266221636956983 -1.2732298258528008 1.0211503872798995 0.019278645723953894
Ni 3.409050943172946 2.9137776535970623 2.810178829202825 1.0151188363738388 -0.6708003005588576 -0.24323715769092308
Ni 1.1778606623275714 3.4657145655422052 8.133208179370895 -0.7402725364180671 0.3085966569333395 0.26615340016746425
Ni 3.8412506572642533 2.732365085329129 7.200561816942927 -0.7261695213577817 -0.18629236487476303 -0.6540680754058412
Ni 4.013257118694411 6.973820166630328 6.00969512368378 1.2702954258148254 -0.0710704335842647 -0.8344821271229566
Ni 0.7278501762443115 7.330616678706462 10.987889878531284 0.011012291950103614 0.16757344830902107 0.8798317589023493
P 0.17422815481162862 5.678537516143547 8.021359945060826 0.7751266679827747 -0.3173828877664018 0.34058426558352956
P 8.509530534463746 1.6084261107520836 8.009108400112087 0.238740298261834 0.468339039233716 0.1798535512279548
P 1.813935018351536 3.2284010322161842 10.288082793203802 0.1566208059522593 0.3251509617475949 0.800960598326743
P 3.7602092386986374 6.086286800008862 3.929116042914108 1.51107255200103 0.22003295166031783 -1.163623440976867
P 6.83164813287288 4.05616567170148 10.609476571310308 1.2434826764973552 -1.3965684727131624 -0.8730579305136255
P 6.371738536475696 7.761254761160609 10.407558508550952 -0.5623930781973475 0.4298524531227436 -0.8203785978420388
P 2.413637884035611 8.487486106469424 5.700486611973972 -0.7719642110943931 0.31026221756122047 0.6339859599439857
P 6.972122346187602 3.986300814446001 1.5303590557000344 -0.13845313390429706 -0.4166264413507728 0.8165543389999421
Ni 5.378059614795905 3.064947227775586 0.37449924094900366 0.15223707506226683 -1.232185506316981 -0.2152910660999583
Ni 1.5733620329456295 1.0260283026286252 7.173560116425995 -0.99859795590068 0.4682102269653356 -0.6302095236206887
Ni 6.7325843957039995 0.7382332107806815 9.168560875553954 0.07848832331489063 -0.54373895343127 0.3694137882207122
Ni 2.7253831392304337 1.4967694486951775 9.203575925390405 0.4563736393417237 -0.3352502549651258 0.6755388436851075
Ni 6.507291794282625 1.9206434871395355 2.5636126284266334 -0.2016865879426462 1.0465374598944366 -0.30512541055528736
Ni 4.232366748343079 6.878624191539528 10.494132824324037 0.010055327353473005 0.736171626875816 -1.1682920500971299
Ni 8.032415752296693 7.1339872812299285 0.5693654473561399 1.0875252151607078 0.6906281339180621 -0.15051495016483757
Ni 7.698662386122367 3.7774053452148006 8.440370227295729 -0.12980265731815066 0.35482689154547276 -0.8718073459359759
Ni 3.0660367382201157 8.422614838751372 12.19059682654636 0.011388701452915869 -0.02973917893564556 1.2464502437661114
Ni 8.764094649828158 5.251467580395235 10.239859245078167 0.8241411502082644 -1.0847183418395319 -0.41306494925175957
Ni 8.731817902908958 2.249948018998698 5.714479557783218 0.24124635251313936 0.3382959837699851 0.13789057653260767
Ni 3.692913810241507 2.7844527638313625 11.644656761672984 -0.26783875828968706 -0.42601533876484055 -0.47413713397273183
Ni 1.1027116794161214 3.550160704246977 12.58538275197251 -0.020434356594951904 -0.18364104329484504 0.32366434989973936
Ni 3.316851121804603 8.467584382349344 7.8558533213576585 -2.650332476531868 -0.7127532479518758 0.6425716447304676
Ni 5.353908799942158 7.909482657138903 3.7284872341807787 1.1307791407533363 -0.21408573293794741 -0.04717202970011231
Ni 3.1081735546623093 8.273333749343367 3.501122747064057 -1.6054844885247124 0.8186083933154934 0.5599194198458743
Ni 3.3956681232126367 4.436622718931321 9.105294819890844 0.7920157304286295 -1.0481192025592594 1.3780027938958335
Ni 7.2393157034548565 6.229012668242279 11.805552032419676 -0.8357440245545156 -0.7486731017769364 -1.0666242033419824
Ni 0.7587450607496976 8.871302477569898 13.139894540268225 -0.3083426319410045 -0.15706354991663274 0.5755933789377055
Ni 4.814129008707228 0.3439148669203085 1.6479353911722194 -0.5711970496422227 -0.6190997868607725 0.469266693254308
Ni 5.809351403516771 5.55351619263374 0.4413779316611012 -0.14082909033564134 1.1082416217724527 0.3092029230587707
Ni 7.841197590027991 8.658630038797662 11.732944332620095 1.4534235340289936 0.757269842307012 -1.4473145929177784
Ni 0.12627516844638592 4.8995466275583714 5.789199999919819 -0.08525340995286608 -1.786583482123994 0.9349667522032801
Ni 7.9935656256954974 8.52111566219058 2.83987888392071 -1.3586920093823633 1.7866834980369681 0.032011777019906165
P 8.456852704470725 1.6466770066087875 3.484738325829068 0.5036053186351779 -0.29939724982225857 0.8809625300726828
P 1.7043030298707147 3.275404328643945 1.552271834515642 -0.6676645831433533 -0.4003595858699492 -0.48414438169708884
P 4.668879107943984 0.9514785504616667 8.137447282925487 1.61176595065805 1.4995815206422949 0.48176456861100253
P 8.532737106932233 1.5654721614764922 12.45095713747567 0.1020771663784242 0.37313288894351226 -0.6094640635432214
P 6.203472727571758 7.670126291729388 1.6577155632626162 -0.365586444054822 0.24448748515825636 -0.49199138854533336
P 1.8344813694846291 3.1158092070277235 6.089810458371546 0.007789928358064003 0.5593429785171141 -0.1489026113723952
P 7.055996491908996 3.9911400566704542 6.07612348341214 0.13387682738752427 0.362321400150305 -0.6906111646371976
P 2.4471857264734274 8.457206795365197 10.097181496889384 -0.5893233269292882 1.0364546217371375 -0.08216474372521333
