# total energy = -340895.16691023466 ev
CRYSTAL
PRIMVEC
9.04109813078912 0.00000000000000 0.00000000000000
0.00000000000000 9.04109813078912 0.00000000000000
0.00000000000000 0.00000000000000 13.23256100262083
PRIMCOORD
 96 1
Ni 6.336580046284392 1.762109982850921 11.447250503524634 0.18520993044386166 0.7354666303889915 0.5724314362699561
Ni 4.63285747374261 0.4148941749155064 5.875997587185515 -0.09578593405307374 -0.9156752509635199 0.30006085154818646
Ni 2.6676482674193283 1.6657228380219131 4.838367053918039 0.007460055822471023 -0.6410194697519992 0.09267515633823395
Ni 3.5689372359695724 4.336589736297552 4.981225442009509 -0.20368073555453955 -0.4182467505630152 0.1953976696101409
Ni 5.187447460700324 4.527393066610974 2.6353570821204553 -0.38836024741622793 -0.013556655638512138 0.48814167578193995
Ni 7.219904353285509 6.081087660417875 2.585020769501048 0.5956636673250194 -0.23289695210717953 0.68127806016173
Ni 4.990026046716061 4.799927922039696 11.332960176612293 -0.24954767328998315 -0.3888011916083885 -0.16870370525872236
Ni 5.699716068336717 7.68890226631993 12.444800041533133 -0.7070870508050339 0.34289620154615785 -0.11070758835991257
Ni 1.9388001593252953 6.161463020846528 0.41370798286958527 0.12741076004720636 1.4296976511669635 -0.5718722213323765
Ni 2.6388071650832874 1.688108596449511 0.23921660140716242 0.1900978546637823 -0.44184176427413585 1.016954861141313
Ni 0.7343803559057644 8.85281704698846 4.509140898148278 -0.17420046670723546 0.6776638604479103 0.703738188937459
Ni 8.655495085081219 2.417453964928648 1.5270378207261541 -0.17774473241506808 -0.27584517353393134 -0.17699885538797905
Ni 6.8655023562728195 0.6830088375755492 4.840086670740709 -0.23395316128583576 0.12450592769558558 -0.5251971858733407
Ni 0.7940317117028595 7.40995727247232 2.2856076340927585 -0.2585938426526514 -0.5457392716907504 0.6652958258008607
Ni 7.726612685706648 3.7476526183760077 3.566849646461926 -0.26206020393469703 0.3651179890588357 0.6126717718472415
Ni 7.577859501777217 3.9587260902058565 12.640072386543954 0.6183533956130512 -0.1187667112189632 -1.8092909510238386
Ni 7.961111642223858 8.976743376054326 6.96734037903236 -0.374012206224672 -0.2783183176647723 -0.3906145906680434
Ni 7.030457187658737 0.6108012049996787 0.6525376252861576 -1.3704936300029817 0.022788458649425268 -1.064086267411477
Ni 2.027222096894726 6.4514833596350964 9.106542802323169 -0.1927535471190745 0.8356668914596769 0.7039068533048393
Ni 0.09368656888299692 4.829085462802622 1.3790712123149782 0.4203928503717405 0.5497414508716081 0.45084551043464294
Ni 6.244541669550567 2.128762667532995 6.861466410165356 1.0965621285519953 -0.5139532375284052 0.766595233472996
Ni 3.5288038023427117 4.387373583263553 0.44976026489942783 -0.4717007566170973 -0.6686624282802485 0.3301214183789927
Ni 6.106737255191338 5.551857953100473 4.773249450323963 -0.47955136300976764 0.515608256633325 -0.05921173447346577
Ni 5.187239515448371 2.8847792748495373 9.256559931740556 0.8454512245399504 -0.17673454598299884 0.14665983808480546
P 0.2329909013856583 5.688333326066787 12.397281839132578 0.2768203929630071 -0.18700764577423276 0.42720601663883195
P 3.9086655310727343 6.187754533571672 12.473382568468919 -0.24985209190427937 0.875016596901893 1.1101699491434172
P 2.3600249109980735 8.478633127746534 1.2122584353083548 0.026086155564090555 0.044528164319362025 0.6967962104019871
P 6.423076229998783 7.7006466525062995 5.923661351262435 -0.49829907593091594 -0.07193998067341158 -0.5828454325144286
P 4.612505962344984 1.0109574862104889 12.609611119462263 0.9440054653667806 0.8268477505061502 -0.08493870692592467
P 4.127206949777057 6.0235772366061004 8.252009871619583 0.36409700399348904 0.33586346306909254 0.5078836342955576
P 4.691416664912058 1.10204654766366 3.759370785378435 0.18750901089068353 -0.7980426533489998 -0.43309281443691217
P 0.46919139252971626 5.664826471498228 3.5694697566365297 -1.736301188929674 -0.9719109335277971 0.14979812660347105
Ni 1.4760406038494536 1.1846188948846834 2.5273132497548145 0.486628324461207 -0.14621966522359334 -0.25230878097488807
Ni 1.8292220526441607 6.57564475724665 4.944279899506061 1.1713802021041504 -0.10019434753341454 -0.28298024191681587
Ni 6.167005213865963 5.45799327458863 9.153068292173097 -1.029863598783181 1.408422286727955 0.8237531707412266
Ni 8.53991368938719 2.1276415713920334 10.264761691307777 0.33744803394739303 1.2916949745365238 0.18196057026862855
Ni 2.4554265761547844 5.228286099964242 7.1348909096285205 0.078890958069948 -0.23963349950006474 -0.660495833309056
Ni 0.46637599464023555 -0.02626981409015719 9.187102601149208 0.7070083750482984 1.0904583296471024 0.1699090384207332
Ni 1.2916745352486534 0.9432939094446793 11.63700506648038 0.5099374315007927 0.5463663637517882 -1.311039954722039
Ni 3.99180746746215 6.833334129905537 1.7201267405914724 0.612300504550752 0.3286903423594211 -0.1760084664502517
Ni 5.673406473415752 7.816345582473172 8.09276901411341 -0.08491453855620859 -0.17417706966846777 -0.3174620777437694
Ni 5.405871345131803 2.946285863937966 4.658906685043739 0.10631614416043626 -0.060656437339792306 0.2347545741412086
Ni 0.738701096597424 7.439566868130794 6.994387727542862 0.46377121735737553 -0.5790062612739963 -0.059447761743671806
Ni 5.34359626272094 4.5708717064648985 6.978746628156858 -1.1945090748121299 -0.48068084862852056 0.3317250154206868
Ni 8.067380707069573 7.363106303097597 8.889965110085113 -0.7602487224296778 -1.4105784138390094 0.31993316499208124
Ni 4.306537126841438 0.614099397517606 10.276644406292185 1.0214203531118344 -1.0727254311437138 0.9049632638626544
Ni 8.215338274382837 7.118517481311727 4.770430435995317 -0.08691537103632127 -0.34406553926391065 0.1401498048804296
Ni 7.285226285692374 5.916304609892268 6.9775956963927905 1.1460329815886134 0.1894288536212157 -0.08236528977179364
Ni 2.436503558227093 5.129051009293273 2.722361375537443 -0.4037680973308659 -0.03552750348264849 -0.4549477055284745
Ni 2.354310937118331 5.126935392382102 11.239287169376164 0.14509069382547268 0.7255015487564795 1.0870760434384308
Ni 1.0199262553381858 3.3322864981495477 3.803196603392142 0.6973502831332441 0.4584338643048621 0.20938935590354263
Ni 3.596657242164652 2.729760610067793 2.7002097815457398 -0.03454302808219212 0.043248012055357776 -0.34794096305891686
Ni 1.1157799753904456 3.471121597670629 8.333297478827456 -0.6608246774033846 -0.46669404743112525 -0.5532399509431698
Ni 3.7680041297736344 2.692601697653646 7.011642662905977 -0.4251450203447452 -0.11405233646242939 0.27262280994189175
Ni 4.049480631036321 6.804637685136071 6.160510993236502 1.2629780662178054 0.11779894798905517 -1.1952094433132643
Ni 0.7137485704728973 7.389216993864521 11.02387397054904 0.3371682979234451 -0.3665940593837299 0.7959484898241325
P 0.26274425050091793 5.565627545218903 8.187316295517531 -0.7369226461092276 0.15381830350645767 -0.8827281066135378
P 8.591728221515043 1.6722053052240893 7.991448142154376 -0.692987121068542 1.0091554197015522 0.7914858260670885
P 1.6599365353588829 3.1727744077060445 10.552318330915602 0.2723587576472277 -0.7578912779410948 -0.8704102084781332
P 3.9821967803827727 6.065690670675468 3.910499969838873 1.0469876600579777 1.7071471930735376 -0.646143678352442
P 6.738664793679615 3.9092079969473934 10.61197149493228 1.160994230884136 -0.8676637560812476 -1.260009984728417
P 6.328804702080944 7.782233520055026 10.23297771160171 -0.5335468433896166 0.6182040145193805 -0.44368113147571975
P 2.586016194381047 8.543304101103809 5.772043043405013 -1.2010440477171702 0.2506141668812845 0.25687583152028015
P 7.08484843269122 4.0313080242352415 1.4038022315406857 -1.4603477719526528 -0.3804589902912802 2.4622565373941208
Ni 5.33559489106972 2.9486365493948226 0.20229637397786523 0.3093479332770672 -0.46889028375149566 0.3099076624352792
Ni 1.423168263266015 0.8876658422179725 7.183017577918483 0.4451566875799817 0.8395723971616702 -1.4615837012422828
Ni 6.716550268189346 0.7856144495477326 9.254442506609804 0.1797530210943485 -0.3539727710752936 -0.8702063199974432
Ni 2.6242148330549577 1.671717085936896 9.167081089825333 -0.5705259917171271 -0.11305886220090851 -0.06673272544085927
Ni 6.205375633400181 2.1689955532368774 2.446965012619893 0.2146932846149593 -0.751731428987286 -0.0328026483523177
Ni 4.107108589120938 7.078031444866338 10.314450661316759 0.7772516847455776 -0.10864504940392902 0.062461351759015016
Ni 7.967069725747198 7.006932250894353 0.5479764238358281 0.9573772586879963 0.1581081891310632 -1.2426306129097051
Ni 7.575074843620633 3.787496736869717 8.424787965027875 0.9824635122326628 -1.0364949880567698 -0.4506223386802433
Ni 3.2327620923454283 8.419386813135851 12.402720059526036 -0.6207332086991374 -0.6490801352729467 -0.07303912727486131
Ni 0.1384201131269671 4.919749592653977 10.296281670954844 -0.9167450869889309 -0.9010803838684803 -0.09085995750636609
Ni 8.622630694174788 2.2652199583034878 5.694222697246003 0.584519992003374 0.4681464636069356 1.0892265141225306
Ni 3.6230934124563707 2.7842965126668533 11.505128900021385 0.06479822742230776 -0.19805361917574923 -0.6132469276244213
Ni 0.9114059571126362 3.3833596602487 12.65715644515655 0.5068500508247207 0.10751170713043419 -0.28453575932939384
Ni 3.2750473072751034 8.310884597106124 7.890469927806171 -0.40073805225529047 0.728685602911416 1.1009065215636202
Ni 5.700999904240078 7.844002300982873 3.6600995303158226 -1.1616948564955865 0.03094168388417897 0.2263465525831715
Ni 2.9051488684429856 8.409667632881543 3.466097459561495 1.2189751782742944 -0.1888467558655006 0.3077371371465216
Ni 3.3098645753303058 4.186308606821164 9.225793979659267 0.09279548396618212 0.3692245550280415 0.006862274337472053
Ni 7.470767697021603 6.392372661493078 11.354939989743688 -0.36266952751834314 -1.233211119368018 0.2594579904251596
Ni 0.3866561138101278 -0.08959275974890304 0.459732595895244 0.15395225798116066 0.3297270111540515 -0.16698955078109304
Ni 4.393982625836483 0.3716397542897733 1.5998964123516157 0.5560285694319005 -0.16031830940850456 -0.2551850740814186
Ni 5.775408140047482 5.475759031983714 0.576997444020298 -0.15539464685464205 1.5565196285902354 -1.5025064075985737
Ni 7.934178211547035 8.909604182967355 11.259626023236713 0.0764592087000038 -0.1770857586748305 0.6816251590885035
Ni 9.461237730908175 4.807639978557766 6.011459453076008 -2.094148869579342 0.20310995065273407 -0.6858533382372382
Ni 7.847193808545452 8.775958673647178 2.7164855660050944 0.3248930801005179 -0.16742535276693102 -0.03285895551154986
P 8.61484630887343 1.5494724010824716 3.6712815602121283 -0.327748547271442 -0.13668421492933236 -0.7042837770282839
P 1.7909782084806953 3.3006336143631905 1.5543491692956568 0.2494779963943123 -0.4094816027758755 -0.020744431636202983
P 4.800551757795555 0.9983722779183982 8.105101975773783 -0.351596300423317 0.10007993344273733 0.20182414196177498
P 8.495295871196479 1.6209603622646278 12.597953527815841 -0.8128295818501873 0.029928412128316196 -0.29049403379535776
P 6.176796722903559 7.719072410048886 1.4176965908102872 -0.7581064792756943 0.03136977256053307 0.922907764156217
P 1.9390894744584468 3.3591566411409945 6.026253401587753 -0.33770180182941195 -1.2810387803742582 0.10106415173287757
P 7.065129798147362 3.846381407563961 5.826455082962692 0.5932560863247911 1.157379516949684 -0.01186075599332796
P 2.3446640856473104 8.570391230445118 10.177770959537655 0.5629592351134627 -0.13982018945515276 -0.24074318762447575
