# total energy = -340864.18287412234 ev
CRYSTAL
PRIMVEC
9.31317445790072 0.00000000000000 0.00000000000000

0.00000000000000 9.31317445790072 0.00000000000000

0.00000000000000 0.00000000000000 13.63077220924094

PRIMCOORD
 96 1
Ni 6.125461048385731 1.2120817050785408 0.92366293924908 1.8876437772021295 -1.8219970857365977 1.7903090106046973
Ni 4.55162771114997 6.176189909193608 5.280997344001749 -0.7829024552734517 -0.15234146185061503 -0.7515640501714863
Ni 6.199137570847841 4.503841813443853 4.3087820327956825 1.1555640610075002 -0.1284947371400045 1.027889762886262
Ni 2.3441911818190526 9.606073706679837 8.797150007019361 -0.7684559408308186 -2.313749104577615 0.26610506342803203
Ni 3.2449614071426978 6.506416446099376 9.373513498102716 -1.9813774567118654 -0.15142872022835854 -0.6318308612741956
Ni 0.372479477717087 6.138359794891866 9.949168256616309 1.2995424956054005 0.41239620531950916 -0.9218785515607542
Ni 1.4580612666092285 0.845293508220586 3.034959569531032 2.7134587155683914 -1.3066438825368722 0.5879413589800971
Ni 5.613869753746789 5.253142570770561 12.86656296945407 -0.15881987048610713 1.5862526368782939 1.1482739551039902
Ni 5.191675619911008 7.367205213841193 1.0782607025177937 -0.5916422048704519 0.5704946242585595 0.16490412900697407
Ni 0.8942817367382132 3.8909604343278645 12.607673485608002 0.6053945214595381 0.627574657101003 -0.5055503581766907
Ni 4.3373408820094435 8.794430560102546 10.838317502957748 -1.0113431713814904 -0.4530957399214003 2.29785094529012
Ni 1.920218231678093 5.662484523972073 7.109306651748375 0.5251455066997988 -0.5711140030101132 0.75184738573986
Ni 7.288918670064615 6.97683419683679 10.871426769169991 1.1882142429423537 0.07246011484293972 0.3472544785148536
Ni 5.32674458783769 5.389319806447591 8.083061430678242 -0.6990819211123702 0.8192467982304406 0.937248092038289
Ni 1.0917275526606594 3.597688573332811 6.194790181050684 -0.3648577934189136 0.333720962804793 -0.422821257307575
Ni 5.045971006850746 6.492539816284112 10.885371385158175 -0.40776667696729774 -0.8093372524262126 -0.41810174034471864
Ni 2.1857554593913657 0.011248452007298373 13.421103830347407 0.2601339334462617 0.11552789256669137 -1.0288752667279828
Ni 1.5625085171986068 7.513887710210583 11.720542404153116 -0.8909849473056912 -0.4222584428255695 0.112414029528058
Ni 1.0564678744857698 1.006493380802078 6.97154058852337 0.09567331973460944 -0.4991066594338759 -0.9541443535729955
Ni 3.4232062514610315 6.78750667501499 12.7694982721899 0.7810831426765258 -0.22724129648329897 0.9818940128824379
Ni 0.5270064608605683 1.6168508896630762 12.031350972491888 3.0878815269679207 -2.013098184853914 1.3741433109404269
Ni 2.4142821321476893 2.838730054181655 8.20050428478723 -0.117884565724326 -0.9085494385520159 -1.0841028197427198
Ni 9.030342580136388 8.42205259598612 8.745421842601298 -0.4750529609187819 0.049077217142625154 0.5913604119639752
Ni 4.270174268433822 1.933405686589779 11.187088432674356 0.1061662488461333 0.7738187478046287 0.7361960523558483
P 6.374262501751335 3.805754201992401 11.316798600067012 -2.881061731563767 -0.11661495498328303 -0.10986272386111402
P 3.7696563381239723 4.215235852809502 7.4695132282771715 0.21126857520412645 1.7266785782382457 1.196546416957133
P 7.81540173052544 1.4100518527181678 8.585600319826959 0.1117673970829946 0.2940650389760677 -0.5612134560669496
P 1.522769202150468 7.650744807616817 7.918237801948348 -0.6250485482450396 -0.18178702080524178 0.17538831636774957
P 6.981043751653232 5.16422969503478 1.2720808996569635 -1.5247605910110837 -1.9990972425891314 -1.0809344493170674
P 7.204979029443834 5.99603586412888 8.86053360916481 1.4104969098687965 0.7302501191850584 -0.22308819354687387
P 2.4018490443601888 5.474721615444881 11.312982061209095 -0.5947043887355435 -0.7297567244884077 -0.692453102941943
P 4.05425763377808 6.2522040384232564 2.9900737943245614 0.48255364017120117 0.40366216788062087 0.3255862495128006
Ni 1.4234162579429344 2.1833433472288473 0.7799718344881882 0.7814130152121187 0.18844952042708188 -0.3959709698839503
Ni 5.279275338060244 3.0531007018915357 0.12678676195707722 -0.2528841938623838 1.0902822090805546 -0.7666181162911314
Ni 2.5140821087251104 7.399577807960558 1.5420353659751889 -0.14816341921352547 0.33530630501404185 -1.0666609701171887
Ni 6.144394731885349 1.7839199247342183 6.93735378803621 -0.7213649008802867 -0.23387268575688755 -0.6668505718824902
Ni 8.026168179753101 9.357970741392183 6.787102483247216 -0.7544729962881651 -1.0979723786359605 -0.3678608419112955
Ni 3.721181265514278 3.0173381123005223 5.79713998695661 -0.8943646624112016 -0.6040598618085146 -0.29393442693547445
Ni 3.839113992595268 4.080111005836583 12.315334804685088 -2.5784737427183524 0.028731563606737613 -1.334113805822367
Ni 1.4729157797336205 3.340989548099192 3.3115692302559596 0.08445893907602874 0.3497253086528493 0.8530832871639114
Ni 0.06961597843563118 8.61369909822671 0.21482233666695474 2.467935332946453 1.8588229963156955 2.4555922380000674
Ni 8.435668456918949 2.239604233614084 6.283962894351464 -0.354529414909712 0.5303370782030673 1.5711759450508296
Ni 6.332399782946229 7.7484213804372715 7.5869421126246 0.14272399336550903 0.3614192000510098 0.03830763733094693
Ni 3.5250271868773195 7.735075601561251 7.0021138773539375 0.8700332847546887 -0.46885068876281194 1.041510181883174
Ni 7.92065922728524 2.5328574682603926 4.161120721799726 -0.7637245967934202 0.7049280954805021 -1.8543047967303679
Ni 8.030936525031903 2.5984501553670345 11.769176732044581 -0.9520473618346507 1.744574227571744 -0.7906502175396707
Ni 9.082636054238872 1.5121335570168906 2.121343682795177 -4.962167137695589 0.19607232707966232 -0.8816610988016041
Ni 0.510827614340384 1.1518906591080411 9.717527258349767 -1.9325936024399426 1.1942504218341046 -0.330901748188443
Ni 7.244159554029613 8.560697822871905 -0.03888715959304054 -2.734146582935046 -0.5493776397742861 -0.2906045912312931
Ni 1.6204550881452955 7.790023330359943 5.675253817354426 -0.1840778737219475 -0.8042984044507245 -0.13241515524033326
Ni 8.079858630011486 4.5773320724185105 10.331757185114917 0.366380400711027 -0.692195478405182 -1.33223278674957
Ni 3.0059201605196413 8.25887646780275 3.574697139759026 -0.1093695862747794 -2.1571077298000656 1.0339578234572129
Ni 4.197671205942666 3.661744586667964 3.414576664087325 -1.072017606443412 0.8932277205932809 0.3397232031348149
Ni 8.514010879741761 3.473702282909592 0.8441563696296842 0.2572535265746731 -0.0690027524219586 0.12032505684501858
Ni 6.775511306423005 5.745921253176731 6.461776538696343 -0.4336291465563564 0.7740956556150991 -2.7634733569236216
Ni 6.022950938065866 2.978129648191625 8.936920265369364 0.1415492563311175 -0.29461859748669256 1.8299626204405774
P 1.4321240759813711 4.280921671659871 1.4120392841292935 -0.25351797079164085 0.9793262521552618 -0.6340546083983919
P 4.362356068374408 9.427353890468497 2.5646703405999607 1.078174112963111 -2.0709199809583883 0.304666725751314
P 5.316416277458412 7.893846598266354 12.590321179116863 1.9034043824704963 -2.2504498302983373 -0.977129501614259
P 3.188421125526281 2.174691408236646 13.220853817621352 0.6153215507652628 -0.00948017157629335 -0.24141578821146809
P 8.63169215111469 7.086133611274324 12.737997391191815 -0.1551308516702941 -2.173682603439611 -1.4538516227053477
P 6.785234260468061 8.12371436813234 4.634639759603235 0.38080917454184743 -0.1646771005978325 0.5057133661171161
P 0.6594658773280326 1.8678968180524906 4.7997353330248105 0.6980113137560108 -1.2020156676018203 0.07357263118082814
P 5.545548306548957 2.5166897975494553 4.834561948591372 0.9368948224639284 -0.9460901158099512 -0.4624216453080165
Ni 4.051286731153201 4.210458194356328 9.775675925180343 -0.0070468795444523806 -0.4875261536851281 0.653381590861778
Ni 8.833545892467717 6.497997336466492 7.170277210413866 0.8166317292050967 0.48154936727640285 0.7934936005257366
Ni 3.0164161080376286 0.871860269436035 4.692543489947809 -0.40966595087253965 1.8081401252488476 1.3485451507563484
Ni 7.800249195821124 4.914292034395711 12.695278791661863 2.3448530250712714 0.993321023772457 0.43269943565323543
Ni 4.070592941627725 1.9087537140253488 1.8492462550538025 -1.673305561933744 2.049038607504265 -1.1044147918271947
Ni 6.555562067263901 0.8302732205923604 11.90450274358395 -1.315907053006353 -0.2705312175201857 0.33333658288218077
Ni 7.614851833584587 8.696632916015247 2.557160196785848 0.889264622180475 -0.9983279900687452 -0.8628149126293784
Ni 6.198196940236203 0.7321626538461397 3.612563575440823 -1.0322714368937254 1.3087809834845332 0.686128960496128
Ni 3.579928349804149 5.310325461418692 1.1253415929239001 -0.2506761304674715 -1.3285607372146218 -0.1898415156786021
Ni 4.425471451097922 0.823849924227537 9.168670227776065 2.2516963011109286 2.7982488127315936 -2.8491047190411964
Ni 4.4577229739504425 0.27615610913297967 13.265330744472864 -0.35457723742851194 1.4517880553080995 0.7818701573541953
Ni 8.540432355436998 4.828601516992869 3.0552557704413688 -0.4120599050260129 -1.5035284211051847 -0.03782067039219938
Ni 1.107830031150988 6.062317726139098 13.733820668115136 -0.1738050310410297 -0.26362754842181696 -0.1063164012707524
Ni 6.339133208017663 3.263652948108626 2.1986160218825717 0.47294182811305 0.017978953075923874 0.3508383392113699
Ni -0.11542562053986967 8.714234815579573 4.609177540868384 -0.37640101817182275 3.0554702005167504 -0.8068221993138427
Ni 7.726824129067074 4.020059657481673 7.663287790861915 1.0834818983292696 -0.10160151229358631 0.9170577331333432
Ni 1.9558224973047709 3.0002111846292014 10.304863531478988 -0.7507227852171136 0.703914309504007 2.3513100935505244
Ni 6.309088907491462 6.346248473238375 2.9293481721450707 0.3278138532917387 1.071368145784871 1.0436351986459769
Ni 8.88251456331916 8.767934579012328 11.323831909353244 -0.30013438509859924 0.5007632212006923 -0.4100181920056358
Ni 1.2732599475325421 6.046410824310596 3.3652196338645406 0.7029033517409894 0.5821903154289328 -1.0412954947692066
Ni 8.39533309871096 6.623501674312453 1.482578198145255 1.1695007256932506 1.372395475011385 -0.4585685901105135
Ni 8.620469775995636 6.6300674622451785 4.572510642045785 -1.837536061912461 -1.269331519239659 0.676639532948454
Ni 6.722072311872684 9.297639997806094 9.792933237292882 -0.05563481575548483 -0.6897431602099476 -0.9087322439867832
Ni 4.741486083911011 -0.0824234558329128 5.773871952103957 1.799203999101482 0.1807575510994629 -0.12553282629820317
P 4.6505429361619885 8.015001683680282 8.874859133984835 1.0666951657892338 -0.29244730086698667 -0.023190579183850382
P 8.020999367976277 1.3784429388973607 13.502942418829717 1.0522738481575813 -0.6056086943528732 1.2586645264441163
P 2.317099157568985 5.125552081865124 5.0074954895649775 0.43337357890212463 -0.1343329410883364 -0.22322471912473812
P 0.5982811156519703 4.117801422522737 8.514325665035559 -0.19681846121706748 0.7507958045468941 0.4563065335492141
P 0.6476064810818878 8.210736669470473 2.4597956153068776 -0.2992095592914847 -0.3891899424063749 0.2006226654545061
P 8.18954919777267 4.545266813053444 5.399271864582215 0.5880303191494776 -0.3928789612221879 -0.22190934274742427
P 2.0132195909634727 0.10572222416099553 10.986688477840902 -0.20786289195668714 0.9739886419924323 0.758937716927738
P 3.3555367264692864 1.160812680157049 7.15965832899416 1.1410409276906606 -0.5236442395639239 -2.231055999152758
