# total energy = -381171.7833173145 ev
CRYSTAL
PRIMVEC
9.23250790222604 0.00000000000000 0.00000000000000
0.00000000000000 9.23250790222604 0.00000000000000
0.00000000000000 0.00000000000000 13.51270855110294
PRIMCOORD
 96 1
Ni 2.0049036653520815 6.36405985330357 11.673520824180727 -0.850051185205807 -0.5025082289162571 -0.569060205804878
Ni 0.6576933782359612 8.916368130168935 2.3115651001947786 -1.4628646248372357 0.9395697981929302 -1.0066879319976665
Ni 2.8033124625463572 1.481180435979958 7.063308748505365 -0.6784845565769927 -0.47554507006385194 -0.24828063365210143
Ni 6.315699978194252 6.067899472670369 13.181362895773646 -0.7135459190565002 -0.1592433311767709 0.41626211603281854
Ni 7.421274305149317 3.2735979375976076 3.156947049848235 -1.1469444376592894 -0.7892836762094472 -0.6042097571228174
Ni 2.4996552856953693 6.978640190531898 6.11986464201989 -0.8744807790030812 -0.6436887890540463 1.3005593669056892
Ni 9.347267727553833 5.459431055511222 9.290716771650896 0.2548228056459934 0.6939931937355531 0.30079850104515937
Ni 6.748436844602967 3.204058689922276 7.425247053194284 0.20303898820548258 -2.197675881030415 0.8049653486107622
Ni 2.2098653353457554 2.1745048310180177 1.732545612710353 1.0623854826702863 0.37991803018614567 1.554020002096833
Ni 2.195388763338995 4.590790572567312 1.0797149962575299 -0.48261328976454304 0.3428419512694547 1.4653490818219859
Ni 6.550067185076657 8.304068222331978 4.7566350308674625 0.30375989766632844 0.044678316743981115 -0.07561665819405042
Ni 8.163761803462886 7.345456952266972 10.840719089461205 -0.37013652531934965 -0.9277252401495184 1.5548599814996256
Ni 6.679867010231661 7.162099350191551 7.114549166003784 -1.3748444507725095 0.9188937579008174 -0.9145467937860313
Ni 4.791172918762929 1.6612328003140406 8.704035226061617 0.9167322314731244 -0.8759748470501043 -0.7177162483841059
Ni 1.2318196366619794 6.519350632100579 2.711460090364688 -0.09302354081658817 -1.242218722183267 0.2585239086466644
Ni 6.686154347946331 6.064714257528575 9.124551022084267 0.4580286584466435 -1.1142004104590488 1.7230723489442261
Ni 5.95231770930772 8.238517417964632 0.999249999020464 0.3710508096035029 0.27437835918041775 -0.643240388662718
Ni 1.4766749722431605 1.1843922448260558 9.045001889606812 -1.3061404605378923 -0.724774440782468 -0.279611325444583
Ni 1.798307841503053 1.3829096244748833 11.54394719546333 -0.1369500669962093 0.3384746754396945 -0.09127313378438474
Ni 6.973349963644223 5.587892167055905 4.876006738623463 1.1873092146295812 1.19763707891815 0.6882429215153373
Ni 5.822065491277506 1.5318484380036197 4.0418939878165965 0.8018026346120642 0.31887669870310886 0.44332477657756547
Ni 3.4864257041153626 5.0476427489770845 5.648312466918049 0.15039256565436032 0.37124544211281224 -1.589326133597295
Ni 1.3036116162057092 8.861831707436835 7.076442913898744 0.6263870645508051 -0.30869718706694577 -0.19488524875009663
Ni 3.9311186679403756 3.2040217598916465 10.885810656859814 1.499859714004346 -0.670785131050206 3.0340783651045355
P 8.119648881875959 3.804670243064999 9.765363683319489 -0.9436318840774459 1.0051252154962367 0.36733068043943834
Ni 3.278398841579441 2.6718969485513147 -0.2514778133238146 -0.06586626367550592 0.22475221151285807 -0.834871392141575
P 1.0094823872571301 1.9515767011230971 13.56527272218558 0.3404803930158136 0.4555879102156348 -2.5360531116602965
Ni 8.320114320640492 7.702025630502363 0.7464851741292116 -0.4026224137621969 -2.35291626169538 -0.2143832095737082
P 6.737985645934821 1.3746834601521642 12.617991585517702 -1.2133089811274524 -0.9341468274051461 -1.012773476070114
P 6.369387010221875 3.6045279420684744 5.231066825107639 -1.4697860345474172 -1.4758016446138777 0.7053690396726626
P 0.3326527903997325 5.822979509535586 13.175782768145531 -0.13453554401744572 1.0167363173726036 0.0938897454716254
Ni 8.30061526446812 1.754342640038644 9.481124316573487 0.8413117484502801 -2.003244431988285 -1.2028646458656767
Ni 4.245199345936538 3.202969254018706 6.798797404121639 0.6347691179669133 -0.46288135855325446 0.16294263440522905
Ni 5.576840855390031 3.3826246205235213 12.885232059164949 -0.7690892035394432 1.5536173673417761 -2.594685576591525
Ni 1.9205000803483805 3.365590643895669 5.851151583401292 -0.9321308254163817 0.37377437918225304 -0.5195780399143504
Ni 1.977390792533111 7.106390398986964 0.5441335340502771 -0.2746840633462947 -1.3261991789609806 -0.6651058212772416
Ni 6.425612981855274 8.638063419345093 9.670748021595967 -0.9598804847258242 0.7150818960850522 -0.10997816639305576
Ni 3.02068262283154 4.946722207774344 10.0905206007522 -1.035989252064945 2.905790858879331 -0.2496366334593636
Ni 0.9784980915589873 3.3436634382094086 10.243025008738213 -0.1753608055639238 0.2004455164466935 0.35706246574421086
Ni 5.627518089921349 5.09165411297978 6.695371160340686 -0.5673851320953003 1.2781874269683922 0.7983676407885864
Ni 8.376469547381095 2.42434572073418 11.866198642736265 1.0462199286540175 0.8250628906915856 0.2644680420452413
Ni 2.0818473841686256 8.520792107081144 10.261347843435034 1.0551218591293376 0.24303558320307822 1.9520537680470833
Ni 8.169449028179828 5.011479016483156 7.198773640358932 -0.13807235352611058 0.5318283180366132 -0.6861492722111021
Ni 8.989535753353614 2.122405790307464 1.7148709000510787 -0.1906323870110136 1.1103303859806815 1.7256727626815507
Ni 3.602718370567629 6.746941178362473 3.592961456475318 -0.7276666747285985 -0.8563107929622736 1.3102971630187434
Ni 3.5709031491803227 2.1748187362783686 4.4890704962014425 -0.027030264644914734 0.6331686062490128 0.004831102840056195
Ni 1.0958432638841942 1.2448744024895044 5.11179021218051 2.3765074187517587 0.7940139918055809 1.8285587981145153
Ni 8.229164887707714 5.355676134457667 2.975782168341439 1.0964690546175568 1.3430411902189838 -0.3077029414744765
Ni 4.665776999760493 0.6390834125509951 13.138946909094145 1.2624697591228193 0.17357491730809463 1.1994345371382051
Ni 7.320898481898361 0.40925859943601667 2.3632782220852544 -0.6199366809397711 -0.3159153020819398 -0.1339128228317823
Ni 0.6046027662030052 5.418244838851682 5.247511767746952 -0.05168097331405938 0.15822466010426944 0.03878843362210739
Ni 4.169206575408703 6.889638816714825 1.153888962776862 0.649934769963758 -0.5508521674372836 0.5977382904658609
Ni 5.083335623580488 4.1389701128308065 9.015354461017456 0.02030014500993278 0.5025552801041088 -0.08940754133055569
Ni 0.6252300348111074 3.4912266080971963 3.4418890104269626 1.2936713815366043 0.46433994537665196 0.5590470445432502
Ni 3.3496553356790435 8.83988603673526 5.260916445614691 -1.1005419391353497 1.4527432201325174 -1.5079085524507516
Ni 2.803543275237791 8.44469777896908 2.16334365251102 1.827066272729389 0.8249898713618049 1.2598994272924817
P 3.0222152191026637 4.523605614344611 3.200323217324103 -2.004467248651793 0.13067683239298786 0.03951271338264163
Ni 8.3886841550118 7.834539812908632 8.639593245863919 0.8912533704757295 0.6202958640514027 -1.2637463118423977
P 0.22595269940347631 6.730091851887768 7.109562688618037 1.0158896531015926 -0.5548828858632314 -0.9929340727466834
Ni 0.6589296110112834 8.108422152564595 12.516659274473442 -0.7687187075739018 1.1015058457105158 -1.672803168376029
P 6.595084892414007 0.42158769016167214 7.703216623990165 0.7130682080891332 0.35850871127243417 -0.011512885735605978
P 8.22872172734016 7.519388164024217 2.894327446283503 0.047808120622214435 0.7752354256464971 1.3158052373211662
P 6.38149082776069 4.950045910530998 1.7151007894917472 -0.5665289547425921 -0.4411125994175952 -0.28769076001860777
Ni 5.014470348964144 4.554091354629255 3.8817819935209075 0.7738532005869898 -0.45859018737706825 -0.2473943743924062
Ni 4.734882319575927 1.4527904749335372 1.880550096464163 -0.975223799951114 -1.1439002515163268 0.37732147310356307
Ni 6.3614655186518485 8.355244012276795 12.221744359123221 0.19320194751040276 0.649312562998727 -0.5125249897223109
Ni 3.828157742545355 8.653740217347313 7.897529519651823 -0.47928396828099395 0.24767822418141214 0.3663130378082014
Ni 5.889176589438948 6.630786999525067 2.9788362818744982 2.0611680437779474 -1.580314417016988 -0.5669264472913268
Ni 4.463474291972142 6.525610272292277 8.496169009158931 -0.7149086037319816 -0.5668300309227786 0.33962524410436995
Ni 2.489758037486666 0.17375117785792535 0.07296820101927932 -0.8380844997622341 0.4084642172549547 0.09825856396328239
Ni 0.802754538548601 7.899887502107517 4.557336581070822 1.0085072445945922 -0.36790095112061155 0.13047602923609142
Ni 6.613411420113891 2.394810928738245 0.9558119737432912 1.5563679335037195 -0.7756182629072126 2.197589749074512
Ni 8.167934896924018 4.318902454565343 0.7555588826548775 0.9143434195259736 0.05419191266137118 -0.8634977976290161
Ni 0.5703824765709534 3.31055566575007 7.789238667586202 -0.5282884232041547 -0.5560046581725006 0.3079024590797923
Ni 4.417247126131677 0.9922083654301858 11.000709214655819 -0.2473064426642902 -1.5780263923137596 -0.9778393831970902
Ni 1.2493152386727004 4.008145479325836 12.504213854151304 0.031924616622738565 -0.6727232286131835 -0.4079507679536458
Ni 3.747170185374882 5.328394074330131 13.019818939540299 0.625307201223065 -0.9262882505926756 -1.3559309016974583
Ni 8.83015497366439 1.1467513111069472 7.215907328069484 -1.3723399391831008 0.7179579320812667 -0.37208593573623655
Ni 8.396356368875075 8.356416540749283 6.0719082274952 0.27920689091731266 0.023355901117121065 1.091422750442901
Ni 5.069209886864708 8.588429458179057 3.0924505978553607 -1.9268911527385268 2.7403208300665582 -0.04209770050099846
Ni 6.328163863531705 2.440040983751714 10.347072600284507 -0.5497026272138726 0.6684472269456488 1.0366927058898727
Ni 8.208502535570513 2.792695078740379 5.308859011377896 2.5347040538315704 -0.40403857738343313 1.0351688130461782
Ni 2.865068706266523 2.8924984865165775 9.055027469671954 0.20205348436376172 -0.5397799687835221 -2.0270649314466507
Ni 2.516855447461055 4.7364887759083105 7.7797116429345605 -0.24011943799754779 1.3208520557164543 -0.22214048492162392
Ni 3.8448593488975424 7.709623984304381 12.274903291712839 0.17981112802579358 0.1290848053155196 0.3979463484427663
Ni 8.63052046058902 0.5143614666075473 4.221734927725325 -3.101676523869484 0.2524908150787071 -0.8013418929255619
Ni 1.7753650599744817 7.141750903314701 8.62460796268524 0.7410564657719431 -1.7183194076402728 -0.9541160714382212
Ni 4.551238509763127 3.7299700236091966 1.6700489218760657 -0.49727063466640165 0.5930550260575786 -0.9314741656689894
P 5.263554173052403 5.184948602857531 11.235790094380139 -0.06915110507436478 -0.8768760187081349 0.17055515664516435
Ni 4.987696076757764 0.8250482747888588 6.262221600839686 1.4550433290206037 0.5855219509053271 0.3249275328828791
P 4.401579560637116 7.943778843510667 10.252037782713339 -0.2018999895050329 0.5567762462312025 -1.2285345398279552
Ni 7.950601666669465 5.1473261341537375 11.769852809077754 0.6191956890086885 -1.0873668352059724 -0.8257185219977133
P 2.2902527795184993 0.8813342577220313 3.394311128716224 0.034155562835786336 -0.9223886584279533 0.6171688883866467
P -0.08117774682821512 9.072729879854199 10.25537533423148 1.345712823513876 1.1822045464131639 0.7739051368708478
P 4.835258142826883 7.390908587464218 5.713064659373033 -0.20579521079438107 -1.284721371432168 0.5491966341117316
Ni 8.545332112434442 0.6084758031652732 13.711480559949266 -0.9259540071817084 -0.3561805773598898 -1.7748029445492983
