# total energy = -381162.27766826417 ev
CRYSTAL
PRIMVEC
9.29625393739208 0.00000000000000 0.00000000000000

0.00000000000000 9.29625393739208 0.00000000000000

0.00000000000000 0.00000000000000 13.60600731712677

PRIMCOORD
 96 1
Ni 2.2346614087971552 2.854173067041088 8.180135458536665 -1.1038900296719762 -2.3983664236083793 -0.32622748264122525
Ni 1.1340407208403098 0.2933972110788419 0.07494546956973575 -0.0352811917997973 -0.1336055760040086 0.018226550310355707
Ni 7.35225849429922 2.6760475454610995 8.57850596900913 0.20184522500769753 -0.3937104559845478 0.5875299824742914
Ni 5.429133147251898 8.251940653528367 6.480215027633586 0.8957625711999929 -0.14352900576530764 -1.044259205383221
Ni 2.0922427985677614 8.190269304947309 11.54852058591507 0.04805931740107207 -0.21549881123539016 -0.49999600401736466
Ni 8.642383318648115 6.447119434012328 8.237417116011304 0.23639262396526384 -0.26780661950017104 -0.1500747773036254
Ni 7.372691660440487 9.33864484934987 2.3738672336678497 -1.5100803632910895 -0.6493899532038816 1.5925739511106314
Ni 1.4983144311431038 3.7959765528335097 10.20801564301022 1.88640116304428 0.10154880467877996 2.879540409823234
Ni 9.673031103263142 4.006490223110575 8.51783675660188 -3.4164214597924065 1.3115847714819153 -1.5117302401896868
Ni 0.7123951793997413 1.257829638191133 9.507265880910374 -0.958204125464666 5.079069799122621 0.9051902922717959
Ni 7.405786324436351 5.022645147846514 9.68174913020003 0.31064711170446496 -0.7174853633202224 0.17064977324149966
Ni 6.7987874239841135 3.918622030950768 0.8383436165388339 -2.3513052084545185 -0.6317470433111378 1.156097564913467
Ni 6.8560709407095395 2.301864028467409 12.81099463257034 3.5233315287830997 0.7610627336905409 -0.6466206179888606
Ni 5.792272714575058 3.7846816043068316 5.843112997700615 2.2726428214556083 -1.3130628986893387 -2.0325228692374284
Ni 6.987259676189775 6.929213866641972 11.343627430764943 0.47594076284037384 -0.3841950602949448 2.079121285822258
Ni 3.8265612282678902 6.2862756484908555 7.067613706296813 0.7063319178065642 1.400424613234459 -0.11147454843292413
Ni 6.849851746829418 1.6073966747744164 6.478255377304842 -0.4416666721488523 -0.636692303131555 0.33048548658663085
Ni 4.705456963706376 2.40550796354884 12.76213538115757 -3.1740715898024434 0.2532721733294219 -1.2215388252364123
Ni 5.945605126919943 0.3743694420723189 12.286047258193017 0.9123325597435321 -1.855173572488566 0.07935067131518592
Ni 0.6509153336496711 8.515712562578551 9.45719532761034 0.03490915317235923 -4.692820170291492 1.9283790501379625
Ni 5.590646263056434 4.153538367797817 3.690452915207146 1.8200399620102268 1.231789042209511 -0.9419346988806809
Ni 4.331329224236274 3.482209390140135 1.98098058338953 -0.34090051127236776 -1.589729796793617 -1.2726608407232083
Ni 7.862780871451155 8.0514855300051 6.427640993149819 0.29064881420566724 -0.07844744277462619 0.3204288736815772
Ni 6.468575188086051 6.8489593064520005 2.269033378083197 -2.9430433154728863 1.779274864277723 2.9560255866651675
P 3.186895291500633 3.665261926303777 11.614904205613964 1.296094132045484 -0.9839406109988216 0.6657773934229695
Ni 3.8457115113666207 4.885051293407529 5.251551456526898 -2.5357119262707943 -1.5700857973104445 0.3074252623330576
P 5.97440492159949 8.540068747878877 4.274354343141371 1.4537024987219933 -0.8124963668804844 0.7023153404480035
Ni 7.4174531231202865 5.448636688000024 4.466484671269048 1.977762228556781 -0.5745515679367524 0.08672562362301839
P 4.865055051201039 7.790837162275874 10.329721269855012 -0.1960998378834881 -0.8714628181123637 1.551663586049515
P 5.32805497825554 6.006820959058361 0.6415344838074727 0.6185043193686187 0.31584202564184316 -0.10545868125614741
P 3.267679738164696 0.9491289338903831 1.4343859521074969 -0.4683426387781418 0.6257440316501675 0.7177332176649703
Ni 2.7893781771390724 6.950818360778598 9.320944781864444 0.2628384768616183 -0.5578494246907232 1.2337268826621721
Ni 9.332137471597877 3.416986872557274 2.2294127438274742 0.17690449590195986 -0.3462874866158939 1.3462977494830684
Ni 7.590726000148073 2.4645484722673046 4.338084811968239 -0.8724868885015039 0.7412256443599557 0.02105887755282825
Ni 5.041228359455428 0.6783327753696158 3.060385360624083 -0.6696523029973434 0.7970864600833176 0.6315123015925124
Ni 2.330542971845848 2.1472952143496458 5.643037161337753 -1.459870060985286 -0.8283546740689799 -0.13554753022172783
Ni 3.0601687579074808 5.83109387099268 11.551622745851985 -1.2145302551290633 -0.16620099344152667 -0.7635857572227108
Ni 5.569618136663556 1.190534055981565 0.8829535502795514 0.15555328391969342 -0.29138260704789815 0.6702817090512262
Ni 2.036911495167934 2.5863758800385974 0.21813009112307896 0.7043385415256193 -0.20021514560344228 0.655239212895807
Ni 6.630422969032119 7.912348497413499 0.09244938609721133 0.5779474809921789 -0.313988260262556 0.12352068096418081
Ni 8.854161279459852 3.5086200475593063 13.706555762431687 1.3186748455594774 -0.9463479974570284 -1.2302065282137395
Ni 8.16504856803136 3.9344256626341867 6.762783962133107 -0.5574408763983947 0.7599630728684589 -1.1173291858960177
Ni 2.918103405327481 0.42921548101692586 9.582929021283615 -3.853006346542977 -0.5470117106452708 -1.0213619890700731
Ni 0.06577192619020793 3.788678993497343 4.693827350038166 -1.4808422923615787 2.666036774641002 0.9229928676708555
Ni 4.597164901659235 7.183838261823637 12.339260874947266 1.0120463680961023 0.6223571174558056 1.4205998026307536
Ni 1.3942800533965536 7.4328012383610655 7.551034714362471 0.4736632796601068 -0.2709212538697528 -0.8825219041400025
Ni 3.997984150763323 3.5106187421545623 9.532259789230396 0.5965771802782242 -0.00937835589110643 0.2525391518181393
Ni 8.43585774130763 7.358700798273696 3.342628926236004 0.004644183640230712 0.0587569063242343 3.4099240249935208
Ni 0.32100150750280815 6.178067252729096 10.491715001987803 0.4740461169208223 0.006527259595556501 -0.1383852567808391
Ni 2.3003952203462443 1.5989463799507533 11.472476299130639 -0.16057670527621376 0.3909046111046364 0.789947535045691
Ni 5.487838990828831 6.246348237855395 5.213128179777543 0.8823501544488289 2.0407781672676855 -0.3786525332101608
Ni 4.024199586849934 3.0473306312281863 6.91190610107245 0.539478121272387 -0.39383386893628947 0.4776176363221645
Ni 8.195614650957877 0.32778126549499464 4.6231311981404835 0.2313064676916081 -0.9045256621046035 0.1507265519550114
Ni 5.749035837540013 4.522655426398882 7.807426327416499 -0.31666349310187397 1.155265813040791 3.170120575574495
Ni 6.708223318184195 7.479710135699024 9.305107683666874 0.21825246272112736 0.10480973481823884 -2.6157020309421917
Ni 9.32470046845274 1.709767023067242 6.742892767596042 -0.3446525221156322 0.5582029513753999 -0.4520428731768537
P 0.07842412779087407 5.843364926182158 -0.15151964282825672 0.388288256527712 0.746808537764372 2.109460560235748
Ni 8.023857063320913 0.7027837824600435 0.47472901063977774 1.4134356807821464 0.22284702407034526 -2.2858032700969666
P 7.104094995599894 5.865034494096303 6.826745907682867 0.11531731921778204 0.6857741482598706 -0.9111578227091405
Ni 3.9332357421309645 4.511221034063232 13.707236248219468 -1.3668022971943234 1.0524939345881874 -1.3975215806550512
P 6.583662811757064 2.610713472831062 2.490130833461186 -0.6180757164716323 -1.0816828974473176 -0.45077223399454625
P 0.817080294921491 2.1629501059701615 3.941388556828822 1.167050207270229 -3.106034029507231 -1.099608885798119
P 2.811698482828418 4.9307051964647455 8.201007407863495 -0.9102229695996971 -0.4977709713415879 0.7820979570942853
Ni 9.196914161911405 7.698553249498643 12.507404079055695 -0.5787681771212613 1.4706242141779962 -0.3886399834401758
Ni 1.8094600502278178 0.49973686334069767 7.651773570090331 1.074075774524021 -0.3455128132333985 -1.3467664615893709
Ni 7.2624473850677465 0.4665083332882208 9.8778656920135 -0.22633575394989405 0.553988141963104 -0.8000442571600608
Ni 4.5970068653424 0.9702779115843695 5.580544953534551 -0.7440862537372024 0.25853547861089027 -0.42526920462743534
Ni 5.997887259030264 4.4212332960070615 12.3970315153787 -0.7950866560444694 1.5903422335666353 -0.9473944364436715
Ni 3.420612411590529 9.017552238558537 13.332132402086565 0.9590153085120516 1.8941394122288022 -1.4216380140872809
Ni 4.571767535918587 8.035812045876723 1.4432164637169553 0.23743314941463625 -0.28933755159341135 -0.2003491000781453
Ni 4.5068703872233264 8.482775934899522 8.48190301665536 -0.298140494597022 1.1290673002685523 -1.7142094992369576
Ni 2.2283399561237878 7.183252597825957 0.32180377421708994 -0.04052007160123344 -0.5292924389886368 -1.482972451330704
Ni 1.950651554938264 5.1891689445200875 1.4652448670328542 -0.8829330235354922 -0.7835082071782506 -0.6031352931117162
Ni 2.5216553601680336 8.159210520562427 2.505723440180361 -0.6882555199208276 -1.7231456253843227 -0.923139677661365
Ni 0.4015572663201574 0.5086222228483513 2.518145094683528 0.26323416963814017 0.24163870285555158 0.30416613196581166
Ni 6.075427313072259 2.8133346235203485 10.593229165293545 0.06570119885255137 -0.007134554162252228 -0.21772332969053468
Ni 3.8374750303833802 2.8314902074484167 4.023187224796803 -0.3206276199559446 -1.343035533792029 1.1056936585396182
Ni 0.38670557103931674 6.195386173803336 5.874679357550154 -1.0859938661178459 0.5480473509986368 -1.5235051213374278
Ni 8.204752868572465 4.937649498151517 11.981490823894896 -0.2464772618947755 -0.16899706812942508 -0.8786961026360092
Ni 2.6581987379127683 0.5847445981658052 3.7421958645894438 -0.023542563206630424 2.2668850930362248 1.0084020864752956
Ni 1.419035977615932 4.293809543369052 6.376564585174403 1.8321987088599478 -0.10578444002668233 1.4347946060738967
Ni 1.4103067951743262 4.537984949131798 12.543664117515208 -0.3995311764313829 -0.581840645398998 0.013449183526370386
Ni 2.0605239801537474 4.443311899094191 3.706739022469605 -0.0878309408720552 -1.0390779182925975 0.5354623152447746
Ni 8.802371848807898 2.785761934359749 10.975136010053463 -0.8448022781020418 -0.6756509437829396 0.28208678356826905
Ni 3.908907445592432 5.735900230734912 3.0383709016890816 0.2767671711275685 1.0220127352801949 -1.105534764364251
Ni 0.24646600273144814 7.482480419370588 1.5751535476386702 1.057905592522062 0.3340487784578569 -2.3288718191516664
Ni 1.179276292470612 8.88917097176559 5.579565128370179 -1.0977628337283158 0.377683227318356 -1.0909679222936695
Ni 7.9110191331013064 5.659661652243315 1.4680885911104764 3.463990724930938 -1.263512855675353 -0.7136197097172291
P 5.158844564195787 1.7555510736794984 8.344904122467986 0.6757113647072299 0.07914832549639272 0.35458443651736354
Ni 2.807236280941335 7.210695139431517 4.828363666559107 0.13132243639678673 -2.0792061322265805 -1.7930276950874409
P 1.3769890210841076 6.394372489205437 3.3254987191165717 -1.1374876631217634 0.9774182364992714 -0.3123635801749395
Ni 5.124141648269785 5.597702119790384 10.407221350005104 0.31527895404952155 -0.4248778827262876 -0.7306625241321287
P 3.1875553255297646 8.400076459925586 6.3621144880634 0.5768383070884001 2.318153661403214 2.4676152306028727
P 8.725250126192815 0.07129761952704552 8.047899035238359 -1.3985867886947718 0.27053764527808893 -1.277091365690736
P 8.504696501669816 0.4897424607390252 11.559350721745176 0.4422089178055674 0.26915542021858163 1.5691005505790396
Ni 4.647364672888916 0.6338604261870833 10.544342954744373 3.1508666124408897 1.6646208896755523 0.6920610097098469
