# total energy = -381170.8517105534 ev
CRYSTAL
PRIMVEC
9.17151524701215 0.00000000000000 0.00000000000000
0.00000000000000 9.17151524701215 0.00000000000000
0.00000000000000 0.00000000000000 13.42343963496905
PRIMCOORD
 96 1
Ni 2.0267397766808433 2.1642758189426834 5.091765697104399 0.1734180800152562 -0.22412871899624623 0.1404997320206806
Ni 4.669814547762721 1.183941728430159 0.024420076428806028 1.2381890321985838 -1.8901868553389576 0.8815271443269013
Ni 2.8491587181093214 0.20349024252279918 11.904657940678314 0.09955645683909951 0.21049210204941815 0.07609899714710765
Ni 5.4908669334231925 7.731550645676318 7.706933381670249 -1.244672068819766 0.055035748718905216 1.4691419732055149
Ni 5.119686540893257 0.7321134511028741 6.350682728167398 -0.401050955510019 -0.31508406442989606 1.2932746603188177
Ni 0.8816678469109874 6.178758089582488 7.025895181684471 -1.863373077580223 -1.076112602448392 -2.455284991172294
Ni 5.697372770150826 3.7251301369162255 12.907590644696652 1.6282860598002604 1.1769569248609795 0.697457755245386
Ni 4.12244934782748 5.506843712939072 7.296270533263213 -0.21280918021836898 -0.0895335253854587 -0.41577849152818064
Ni 2.9027020239725263 2.7486664258271807 2.9062422288480314 -0.46684162875258306 1.3995375826438154 -1.4246125233345723
Ni 3.8105169436285307 5.0808726884758055 2.267392998881222 0.7907242653107155 -2.0855881244935244 0.7195404460770383
Ni 6.67667965095854 1.2994294480994768 4.596413994293414 0.47490769359016916 0.3230724819520113 -0.17665818421910867
Ni 4.758237126013348 7.211993479892711 2.5051892940900977 0.8351644979019617 0.41829637285402804 -0.6313302674886935
Ni 2.5919252306914884 6.859156117805805 3.1412054430049814 -0.7413387728990523 -0.7767166381777139 1.3098094247490475
Ni 0.599165917906358 2.067956566086332 6.969395896465372 -0.9914389762583958 -0.2222924371184559 0.0868878602324955
Ni 8.08993677447224 0.9495636569443413 2.659975122180563 -0.7250778309554996 0.7879191917617527 -1.8098385959971928
Ni 3.248688264188961 7.400468117694846 9.775043112060782 3.397052311237175 0.3805217252084156 1.231307988808034
Ni 0.8076573876794494 5.929843166470569 0.9464490103751149 -0.24743396938109 0.658328136233776 -0.9009443725112484
Ni 5.6232760986762065 5.991108888150289 0.5415082703147814 -1.7492562064284454 -0.15884275330424258 0.7921422287041647
Ni 1.5969717449158687 4.230232994710725 8.68258908226828 0.8683669527958593 1.2207397263738846 -1.3611386711506428
Ni 1.811631058675429 4.144736129815762 6.3231782711695965 -0.1925637997057716 0.03219689644751875 -0.002114732350157648
Ni 7.214735762943944 4.598450987824113 10.937888521178412 1.7119924369809807 -0.740018511425732 -1.1360779272584305
Ni 6.117831713965963 0.8580796269127727 8.872437613050597 -1.1283512480381341 0.17401226195582933 -2.340969116635833
Ni 5.565523067326326 3.5854021025164435 8.53812671171115 0.3484063327311096 -0.669729436092182 1.0419624389292441
Ni 8.307558487648352 4.48596235363223 8.172296981161447 -0.35478883921868576 -0.8450295636214995 -0.26020052501813895
P 2.843444864126317 8.466931907652619 1.5620722951949595 -0.4723993253460187 0.14839250450519606 -0.8883678213978184
Ni 0.5963163281270333 7.490614940807117 4.772717114245076 2.5925217361709865 -1.1157790678000785 2.9756837272157264
P 4.371584387304716 3.148351887665586 1.0188434486246218 -0.4548127226125071 0.35380770625233904 0.8194617424547243
Ni 2.2333189855302487 2.053768232038648 8.49756109988639 0.09606361319449261 0.7699021863590418 -0.3729873645045834
P 7.973018298428367 2.224220842430506 8.231400976703457 -0.4688362905851087 1.2749033569004817 0.12334636016984564
P 0.5345461731101293 2.4486019623248723 3.2096515439516264 0.008727352570668841 1.644249525108052 0.8670893716350164
P 6.958951374931111 0.8987929001326003 12.318516144988527 -0.32761253591420997 -1.1066771054988103 -0.06826561714561791
Ni 4.797555411767983 8.874101325911779 4.247901001633451 -0.26600453329442575 0.5018322858951552 -0.9816708411280383
Ni 5.091043898856465 3.956261492013627 10.800955964618147 -0.7458783126406185 0.25686683265921567 -1.1423781584448456
Ni 3.558951452617594 4.178542334922266 4.721037460274883 -0.26645036258259275 3.3369085518677433 -0.19822099799154894
Ni 8.414296581796343 0.6301922367492214 9.554321426739799 -0.018570049692703504 -0.6189208380807469 -0.8418964173091564
Ni 7.652217039010213 0.6236428577295374 6.813603953155106 0.11305449132553433 -0.794100123761484 -0.46837323490576116
Ni 6.080696248834048 8.259123715763529 13.355543956842848 -0.4968147780759056 0.35059562707294456 0.7771627245761971
Ni 6.288660356481903 7.943183359412779 5.688424122749194 -1.4014049748698574 0.9210118326850847 -1.3145798495544974
Ni 0.3521430783846376 8.37268541723633 7.733162998052261 -0.6463077147341321 1.4443956194987706 -1.998267547598984
Ni 4.209734658190639 1.8304051503338703 9.957668157454632 -0.025326651690246702 0.7913780968446306 1.0361028948246738
Ni 0.2506850255496714 5.24816112611624 10.194525289504828 -1.2916615501954272 0.8948302891937105 -0.1578387375197604
Ni 6.87195955305504 2.1813531802851442 10.518392586461534 -1.2131133201768785 0.48168177908920917 -0.1580811925478697
Ni 7.024261734823519 2.2088677259496894 0.611231046180261 -1.9441645951069937 -0.9345738876402357 3.6341848986922574
Ni 7.726295367454391 6.934628516563652 8.27226191131835 0.43933365314030143 -0.5266280047825963 -0.03210510806466084
Ni 8.87167087437808 3.7020729476493366 1.3594047375875302 0.7537325185777148 -0.6108015514077223 -1.7701189088100675
Ni 1.5461065214973462 9.140708101886002 9.487364779865128 1.1449921990289247 -0.6297621516706251 -0.13279387873599066
Ni 3.1374469560672043 6.512931418193611 0.6482637903416947 -0.4979663751818456 1.3653583656589452 0.03973048582040254
Ni 8.82440088492639 0.6125737560086909 0.19198090807131993 -1.9372699248696894 -0.18240614244647943 -0.7147425104677626
Ni 7.149342859414542 3.57733116912151 2.8747775115775793 -0.7924985836023191 -1.1776488087216814 1.5999224210559027
Ni 0.9043737671448923 8.33018461569983 2.742368346324566 -0.48595726653611154 1.2133766011405942 -3.145197072859938
Ni 6.445474923739368 2.830210367661671 6.66863072920014 1.042409810879308 -0.9955931076360854 -1.274897957583843
Ni 8.872294537413142 6.384988780853476 2.9328873148695767 -0.7656693792246168 -2.4634754974028863 -0.9917043141046405
Ni 8.661184600044308 3.0490518923622423 5.101806671968913 -0.3158325125601464 -1.7361919170453195 -0.23496720437264693
Ni 0.44325657920125694 0.39075790892178247 11.517069707417088 -0.35053417770738987 -0.2405660386166631 -0.25499764066096087
Ni 6.413108646522641 5.791325772080026 3.7497308921948957 0.5139144138706697 -0.18228272949473767 0.11241582930027091
Ni 7.5683435323094574 5.550830299941459 12.968331755705702 2.0370852917971303 -0.4800218748882829 0.06355767014698731
P 4.059202578859912 7.475371882508959 11.997118737080974 -0.1702096003802875 1.9064418837452393 0.0042533759597152545
Ni 8.067209759753327 2.7709440363002407 12.323872309877892 2.3003814250214574 1.7545354525495138 -0.9340110731582302
P 7.3352219584089875 5.319451313933076 1.6438611164858643 0.4416833843194006 0.5558020552433911 1.2498376721811055
Ni 6.672258980621771 8.170040788416953 9.972326990233181 1.105412894074406 -1.311490411995896 -0.7292677006671312
P 6.1664866022161 8.828353807986863 2.2892331280782154 0.8063324041616178 0.7995464915880358 -0.481599503788048
P 3.7137116004654396 4.873009467495388 9.308766029653523 0.43480336937011577 0.8947215315299881 -1.0589378904413183
P 8.931478325137578 7.573351179620405 10.203747248060061 0.6573894264695904 0.25598622982647523 -1.409759774592456
Ni 1.442422541918118 6.8027054416173796 8.913325145059634 -0.831688109317587 -1.057334036289308 2.6666399554426397
Ni 3.712473445910535 2.7591127816644865 12.329187202948761 -1.1744295304534356 -0.774145277906112 0.2833491952204604
Ni 5.034822510548578 1.7202919385843605 2.4269984582205932 1.114388872320771 -1.0979258416687414 0.7893466682368986
Ni 3.9190526547599402 5.512043962069671 12.247519445658778 -0.5222591862909394 -2.754774800708359 -0.7988538363963854
Ni 2.4829584583446676 4.0751059862540195 0.5341334549251612 -0.9975905976820882 0.07744137010761501 0.11343064371803045
Ni 4.071153063193546 3.045300742636642 6.87078743340973 -1.3251691950345694 -0.38923108005695545 0.6248359180136013
Ni 9.035556679871332 5.167277533377699 4.940725515830399 -0.09894144896291991 1.3519765450354007 0.4767781711400047
Ni 1.1779527289905096 2.302765698787561 12.739850968507318 1.0070296316078013 0.682610148709592 -0.8622767807377215
Ni 6.037168237592738 6.465909059652904 11.368941482225921 -1.60358392906789 0.3038108055089219 1.0900598086571034
Ni 5.181126521362185 9.17188208212393 11.26799795139488 -0.23175075431787828 1.0105718404331046 -0.020415844652190648
Ni 5.81459390619701 5.705159386573893 9.170787003206483 0.23208216951536803 1.3156918516717533 -0.15816192518713404
Ni 4.504195325892602 6.572106034402827 4.964578792618515 -1.2287104032841871 -0.37016943543981407 0.26262019020322513
Ni 4.35520406111909 2.2092070720128856 4.751871177298094 1.0840295433026235 -2.6770351826340346 -1.0279509551415005
Ni 8.22704175551867 7.809325094754766 1.0833476323290596 -0.6815955914021488 -0.8959047532048119 0.9034604540648827
Ni 7.994176984044403 7.668588193680617 12.042650724398186 0.8549247112480244 0.9084051996646679 0.6437551235156075
Ni 2.8397028859159392 7.595161042817168 7.167391484218961 0.4433252907981977 0.9622484707373686 -1.1268044723763044
Ni 2.717611675287131 0.506389621380078 3.296501207341763 0.3437078988141758 -0.1056682261637922 0.5452497336488416
Ni 1.1213644800737617 1.442972832831409 1.4982302948895152 2.1875493341193746 0.06806558531966987 0.6147286543762702
Ni 6.745493529665569 5.267962427479491 6.503132571330944 -0.5261438660573262 0.7951573613814048 -0.7460094389018442
Ni 3.739144212174701 0.4708591714119286 8.22648779599929 0.6301478171448179 -1.954372388877931 -0.7679185802701097
Ni 1.2490228004420298 4.659560793745067 2.8120764477656914 1.1424416646929292 -0.9486033691501082 1.3289641433006274
Ni 0.6130350832243332 4.652993988846462 12.418453560599767 -0.2718162548801964 -1.8015545016115297 0.2706988534463015
Ni 0.03749590568012006 3.0357440237758238 10.031054953651108 0.04428313818809147 -1.7802354284187791 0.5689033685120396
Ni 2.7128333158567215 3.883751492672329 10.817318864924852 -2.8110583057914362 0.7752318261020713 -0.34769439426574955
Ni 0.34811586605087036 0.6276829101846148 4.455736708068205 -0.13719123647273793 0.8795882754329754 1.7244995683090558
P 8.014225916318635 7.182241084514116 6.026171590842142 3.5033946806498566 -1.8325254960717472 1.0492787700849993
Ni 7.971431626295045 8.124320785037701 3.8015985622271296 -4.519450169905353 1.4355386833287729 0.11538519634124
P 2.931876613892166 0.046955406479590706 5.449634552441828 0.35717019496666874 0.4495213923065806 1.0061009491459447
Ni 1.2958250426174214 8.084149548367465 13.202879500223117 0.39554210987664784 0.6555125211618518 2.127354666907349
P 2.271784320369283 6.164221237956386 5.348206765607093 1.1667429604424553 -0.9273850832012801 0.017395569768628105
P 2.001784083763101 1.7634622607320318 10.575992453507215 -0.24962532060545398 0.6181600486553225 1.195847076897263
P 5.8300295663148205 3.8005475065827437 4.808061382454229 0.7700284275242609 0.968355612076371 -0.5371728701779781
Ni 1.340105118106896 6.544398886918629 11.60252346619051 1.5546046709557098 1.5555258972183985 -0.39684591628973587
