# total energy = -340889.1916551064 ev
CRYSTAL
PRIMVEC
9.08592906571274 0.00000000000000 0.00000000000000

0.00000000000000 9.08592906571274 0.00000000000000

0.00000000000000 0.00000000000000 13.29817560745425

PRIMCOORD
 96 1
Ni 6.18596414230036 1.878924744402784 11.314965766423404 1.4635323403282214 0.3334882779686967 1.565054919754756
Ni 4.640474830427827 0.45860592000004563 5.94158535415096 -0.961205374184835 -1.4243646689898244 0.6989495092995639
Ni 2.698938947391713 1.6979421191760662 5.026524153610238 -0.12501834855562985 -0.9000740540911532 -0.24653768281906574
Ni 3.8166263652848906 4.526246527583795 5.584874496597199 -0.37869289952979296 -1.2909429268618478 -1.1942763899760336
Ni 5.198605293926336 4.730180210158907 2.6532385403248253 -1.3172944202721828 0.09776002706030905 -0.1894085419062415
Ni 7.152670673432537 6.14221539284172 2.4510402702412177 1.0775714463821056 -0.004883810454862557 -0.17433802072636428
Ni 5.150876907445292 4.392855999898999 11.767582241845435 -0.7857828621450403 -0.11953598528481993 -0.7553199176694927
Ni 5.821345800498654 8.046217302043226 12.193217141692728 -1.1182653245570418 0.2076011536548683 0.4435026969163265
Ni 1.9762077891491299 6.372043973850295 0.27823932077816627 -0.5284393469597223 1.2714159125725137 0.2660420714005805
Ni 2.8070796776215636 1.371802687853559 0.5748349444704114 -0.11668077522421196 0.743345518916436 -0.8111437095073321
Ni 0.5177962062613766 9.032894705721631 4.746292288542086 0.975917740694345 0.2189345763898165 0.648920726876947
Ni 8.320712311367206 2.397104376879561 1.5820174733364096 0.874002553815082 0.7406016376227116 -0.5139056721199213
Ni 6.6970022343670665 0.8895242877206908 4.836493760011575 1.3093340277745258 -0.8558004289847583 -0.0336588257050259
Ni 0.7126830290574724 7.11280161577428 2.297047397925588 0.07846621182770357 -0.11328126262435974 0.01188646702494082
Ni 7.592075299095939 3.888259831688196 3.7367474180646143 0.6383408944785716 0.16690676125929962 -0.4980118837078004
Ni 7.262365097568395 3.7453381641940315 12.731607515248589 1.8671816526930358 -0.7381912284090061 0.4779279684737318
Ni 7.885914251846178 9.07545319844526 6.94565050068274 -0.2712421275442813 -0.2168049316413234 -0.2659957915436774
Ni 6.899273191884872 0.6682546520890701 0.39053686365128315 -1.456005435823557 0.4174437950457456 -0.22725003823404732
Ni 2.0607705329106167 6.785653646302258 9.113386044575037 -0.633406947512064 -0.8397361764330442 0.6874265962616289
Ni 0.5795705308084889 4.594999754406957 0.8937501534264465 -1.0845838731441966 0.7266752573496066 1.97294141012937
Ni 6.145213749502436 2.1325948038286953 6.904971886726089 0.9986421788750544 0.7336658297348267 0.10986915161901724
Ni 3.136562730917234 4.1579483844257545 0.34862801487081047 0.3187118909904704 -1.155420079230468 -0.5661921402284635
Ni 6.043242365250243 5.805399994621205 4.706809382878012 0.06255622546566646 -0.17545670771183977 0.3079531098120697
Ni 5.471137742526938 3.032892277890634 9.353511709230856 -0.3869075741301014 -1.275645634383145 -0.6912166594316805
P 0.22025019436697696 5.81093332554962 12.276317050840955 -0.24430210862032764 -1.0443121701083433 0.7289499123163963
P 3.9111745453194917 5.931485435168982 12.746913671705085 0.8042798925079633 0.7397138357011196 -0.8764636137610647
P 2.273762886972804 8.37624551109539 1.4356713190985353 0.6832488107348557 0.46629526933080984 -0.13551076344652146
P 6.405707341813797 7.869296087202388 5.809307852802339 -0.1486017923025247 -0.03363954243131626 -0.9469671190982658
P 4.748760935526076 1.1067843027632984 12.7192133991247 -0.44432030772161546 -0.9273969102758222 0.825721864431823
P 4.192538517175296 6.163921677879454 8.583812656787535 -1.2184411601476952 -0.11319795888193408 -1.6652423253096353
P 4.602713708361347 1.058683393181982 3.792493228537831 -0.00717440626125216 1.0619450526987582 0.5318306320294582
P 0.4205086185503932 5.448004966593045 3.555772970174244 -1.2207055307018397 -0.4665773193476028 0.3438197418016917
Ni 1.2233204316431558 1.0705677886735503 2.4654687259297576 1.3420574861494758 -0.14037503351735825 -0.27567650916655106
Ni 1.8704021427429285 6.715937310975956 4.667367363895674 0.6703051060899939 0.1832126975081748 0.6044496410477654
Ni 6.022035806322628 5.364032808234427 9.449963391448547 0.7105629251687763 1.9302927222209076 0.8204598447019353
Ni 8.584177002551458 2.075071785589308 10.4311292704288 0.281612929255644 1.5617420533314395 -0.7085314965610442
Ni 2.2812315208367715 5.385221195303491 7.144963988221567 -0.06792314620453464 -0.33890507810889375 0.5502723836744137
Ni 0.8520348349395291 0.14102270827571076 9.158307787503064 -0.9679210956421138 -1.4120763385407746 1.4147543995935699
Ni 1.2562841830524902 1.0004880161762526 11.622897904071941 1.6117458960533917 0.2692657205442008 -0.7421327295552573
Ni 4.409192500735268 6.764101822062197 1.3586344505554473 -1.4926940494938423 0.6978357074100949 1.206897935394786
Ni 5.848094776283957 7.73078109540655 7.973559851410639 0.2544993608683036 0.2536832927249115 0.6988947448022286
Ni 5.476207691062333 3.135218013384549 4.430087412288754 -0.2544559092248779 -0.6912503408830935 1.1408614646900028
Ni 0.7179855773823035 7.669923541123274 7.0456929421498735 0.6671935570442058 -0.14363596365681716 -0.8765268628988323
Ni 5.304983353876858 4.566551709847248 7.458853769695656 -0.11442617486208034 -0.26917496060260737 -1.2902163331084682
Ni 8.399469146322033 7.280564213906019 9.216087937540934 -0.09945875491897065 1.1343581163538465 0.2526034293971714
Ni 4.769476854272846 0.2938698449097754 10.338613612772994 -0.8187893989780479 -1.2104632841485412 0.1431122299428632
Ni 8.204267041780097 7.23941404022 4.48425136247521 -0.546752286336297 -0.6458690845348167 0.1155741724235945
Ni 7.344865335384481 6.050592882033636 6.780008558443763 -0.058861807333214756 0.16464496180831645 0.8041857901322602
Ni 2.4235535169987927 5.269457370412001 2.4531282167885897 0.44761877596722915 0.21512420150479078 1.2667642727331152
Ni 2.2505574236047114 5.236975173254236 11.362772291896214 -0.17971136922313566 -0.4008059293787484 0.08405964675508104
Ni 0.7954140494771397 3.264401755815066 3.860805787791161 1.2358030484649103 -0.30289909232793 -0.20603612316059353
Ni 3.4350264216683986 3.2161282135775267 3.393867162053105 -0.23839525621758945 -0.11363736041219782 -0.309301396309848
Ni 1.12153076597646 3.3376979472756783 8.3179819896201 -0.06084798452530811 0.024806774631034693 -0.24660376017031077
Ni 3.681355050240191 2.666783843687845 7.305924859698117 -0.31711446459636355 0.4521295193533891 -0.2237037156436857
Ni 4.30804793604709 6.679348273785937 6.326633407927277 -0.20683367936122443 1.4508264627257788 -0.09778933763634771
Ni 1.0162430175389279 7.502142771132985 11.221586036893553 -1.2089566176960276 0.24535600380613876 0.3725477058640036
P 0.14223113686927238 5.879277685555412 7.95725605991976 0.8713928841063766 -2.9167900382033123 0.22339106949927334
P 8.765877416190893 1.5721565142943614 8.073388773539811 -1.592074899987026 1.6009385210252427 0.6413503707288568
P 1.7026032008940897 3.086799096278611 10.44575670796846 0.7491734384521227 0.36975754471337613 -0.13922240797015378
P 3.956804082138036 6.112985958364369 4.069281526410796 -0.4962298521067132 -0.023610697440404498 -1.2862601766741975
P 7.034571764717397 3.8480091650003923 10.626133301712542 0.5646978150711243 0.5368206290448819 -1.2858871096054951
P 6.574751055973297 7.864080763798596 10.060907636043263 -1.294290760288158 0.4044514965511357 1.1002192656886083
P 2.5340838466279414 8.440292226554154 5.941026569500554 0.18994821645979545 0.17280358635970883 -0.391461512049371
P 6.847265332715349 4.027983252077597 1.5391709566547676 1.3264809718674575 1.0295622654926784 0.9986092687545899
Ni 5.269457370412001 2.923570376855047 0.7809783250451798 -1.6051690141668227 -0.9671309956406506 -0.9519188066765863
Ni 1.4426184206221233 0.8872946006766306 7.071970358205809 1.0813787359433378 1.4873790650388319 -1.0444448390314658
Ni 6.877975773664509 0.8852093799080412 9.255238298193545 0.5145625889776301 -0.7549543067999579 -1.3662387113813697
Ni 2.773270934789664 1.456619837634743 9.321888132389569 0.4169097769191465 0.4687259902594895 0.06517309426322325
Ni 6.270281565971424 1.7033573330239062 2.641363230762532 1.0160166655977598 0.26994603444067705 -0.41665395215459855
Ni 4.134615718047813 6.6684724164438824 10.688515474928144 0.3212799088279628 1.0397114381115384 0.2760274647480666
Ni 7.98003539320486 7.337841912054984 0.07897944022206146 -0.05764696108950716 -0.9755158772702361 0.5825613256151063
Ni 7.683270771228102 3.913336996486918 8.343116395773253 0.5570444122909246 -0.5903170583011254 -0.5969019106074946
Ni 2.9948222342288062 8.331633598355635 12.55087202729815 1.2989030622491888 0.22721892788579579 0.2106250280828566
Ni 9.08439375285176 5.034731473524254 10.146866887134301 0.2626109342318445 -0.824941791732689 -0.12079685427511455
Ni 8.56283415468472 2.469855412583679 5.942582080592417 0.16846999198136148 0.06770383110487695 0.08442140096987397
Ni 3.7788107276427603 2.499348339010002 11.340644419740123 -1.0823616686818973 0.1526260829705694 0.36358741134692224
Ni 0.8749023017385955 3.3913412737146826 12.392011822669957 -0.35288493732775356 -0.8278661644683354 -0.8489258133521121
Ni 3.4459295367982774 8.388684148272727 8.08821610152352 0.2065007215018379 0.7408152962954144 -0.40405348978176864
Ni 5.4194751486698625 7.893819010315341 3.586199021537099 0.1827136463845692 0.040368890735349834 0.8644169670091758
Ni 2.9601230703279664 8.700040772664973 3.6202022032554817 -0.024874137533860387 -0.4796470080473675 0.05804856740330003
Ni 3.4612302416972076 4.206567191975741 9.488168815456572 -0.5093437637808518 0.4110196366869566 -0.5296593354097523
Ni 7.27147828463112 6.252627605390296 11.36120315191044 0.44515514491808494 -0.8524633941917255 -0.36977785642835026
Ni 0.3632127485428787 9.0447427574961 0.24793683805344988 1.7823961835155238 0.10073299364570394 0.4627070377589192
Ni 4.607438391584294 0.1944279833677134 1.758404435535883 -0.803283847143281 -0.014758389256097165 -1.2354199540938788
Ni 6.094841357602395 5.772772422595042 0.08883040474190718 0.3633069039920259 -0.1349950001523675 1.1931942126554482
Ni 8.002305005857638 8.926026005590266 11.510594909641258 0.14274919017648965 0.002496798279924732 -0.9039937008605333
Ni 0.3061658329974965 5.129479544002904 5.813323833541846 -0.4492604253357102 -1.3013862336823587 -0.5733714315857222
Ni 8.181879312046746 8.669021410120468 2.178719523792721 -0.9214926289762453 0.8386599126497297 1.6807303936429054
P 8.570266444831589 1.3422370739930367 3.5423012628383512 -2.4644987964610783 1.2216784361380701 1.1468603625859153
P 2.013332896166368 3.08145656986497 1.842621913984924 -0.9550113295589812 -0.6140727659598263 -0.520643247954071
P 4.8385390026913555 1.0884761552743765 8.284431287179606 -0.051645234980117506 -0.25327320177068635 -0.4533957876603224
P 8.500986234110481 1.7146784009004306 12.700715355713934 0.2885654493140772 0.3740649138394784 -0.42717927716595455
P 6.2760965607073596 7.88938507682919 1.4764435181267181 0.3957575683215636 -0.6300493438937407 -0.7169528878555201
P 1.8582088256560136 3.244303680258989 6.181297609024772 -0.5893636932489206 1.2932420073086695 -0.35094632554414396
P 6.86475574656953 4.061283182870102 5.8379394331334025 0.49367854643976916 -0.14267591373639296 1.1919919648172308
P 2.6579886641497423 8.566205034445709 10.383122854511942 0.3167663372283254 0.30900726210819685 -0.538086383131183
