# total energy = -340887.32735993166 ev
CRYSTAL
PRIMVEC
9.09118991918864 0.00000000000000 0.00000000000000
0.00000000000000 9.09118991918864 0.00000000000000
0.00000000000000 0.00000000000000 13.30587539829730
PRIMCOORD
 96 1
Ni 6.643259688346635 1.6621876917503133 11.25080924153337 0.21990953870857613 0.8446999481962226 1.1400428254434496
Ni 4.582750605580661 0.4116399841100579 5.840467625517328 1.4804707679547728 0.5456690805744473 0.39326899757175493
Ni 2.9740736571434025 1.6651605108232608 4.529692603520918 -0.9932819430044053 0.858658981479476 1.2264380623102427
Ni 3.4911078049008006 4.248958479946595 4.398496734029749 0.39101182610646207 0.871759523417176 0.7853586301234281
Ni 3.548455030320228 2.744893852831681 2.3911720208620935 0.8442248083320171 -0.5340368956521577 -0.35302094868498557
Ni 4.947561870899428 4.5631318179371725 2.22862791061454 1.6082797918816625 0.9529832433853588 0.2208860436892325
Ni 5.178659916264335 4.575332194683031 11.52354039070428 0.9681090432832036 1.0441165091577695 -1.0079863390941155
Ni 5.643283354677568 8.60072922563008 12.089678782066303 0.9948737129715576 -0.42075254770400444 0.32436908927624786
Ni 1.9407508391943002 6.541547456578633 0.17592634167072954 1.3477571076374144 -0.012788152903603781 1.3888027127248146
Ni 2.4749127885829916 1.923477578525798 0.31044049544821645 0.21710292249771643 -2.2242096656548855 -0.22379627535749197
Ni 8.40492317916787 8.818554133849718 6.678338953407415 0.1449845072649116 1.1441874437394426 -0.016997305888944922
Ni 8.438915137925516 2.5449513149988556 1.1986215587137903 1.337657043088935 0.22352759507713763 0.42485320013593925
Ni 6.9626150045377635 0.8876501377797631 4.942028063652629 -0.5007971597624213 -0.18610441723367305 -0.7951992703629338
Ni 0.7533341719404727 7.999983401959225 2.7737829267402594 -1.2217838513676829 -1.7302814650981553 -1.319486028606863
Ni 7.592307176613097 3.8604555739425046 3.7012288388622867 1.011631906266503 -0.09625593171095681 -0.9150877538911659
Ni 7.718992906831823 4.123681884150827 12.458557445713007 0.5149515968859325 -0.32872633780367905 -0.1522679283002023
Ni 8.589828889029274 7.67000957605188 8.82345883076059 0.0062079285829247915 -1.2654216426622917 1.025580398026795
Ni 7.3695366611283735 0.5328437268639901 0.22503785822721145 -0.8402236575924239 -0.4562553685963045 0.5694160464824001
Ni 2.0714821488853854 6.528247045863887 9.293821537310679 -0.02943938830703962 0.6258713012566511 -1.6350881703237583
Ni 0.3338330359882812 5.368211224126584 1.3547509254204513 -0.8728738395272775 -1.8479505723775655 0.34088277066055483
Ni 6.499118873662897 2.1351022952844265 6.996854243658666 0.28579714254032074 -0.2149478238279266 -0.36489610285601676
Ni 3.2487366841522385 4.178510849988583 0.13296774238816464 0.3497214519981074 1.2624422483189937 0.15923407520539026
Ni 5.969247965871855 5.76562349615969 4.727590532761982 0.7331328400494922 -0.5284336905327673 0.7299454434604461
Ni 5.3752659874311925 2.774312943107088 9.45289281304488 0.5741409627618951 0.9108135519958444 -0.28381713599581443
P 0.3473325437602069 5.874663226927067 12.342157487662883 -1.3948931418932689 -2.256099572384947 -0.3980242528685532
P 4.020687794617426 6.17134511569333 12.835751820693124 0.7005196820001612 -0.8988131851008585 -0.6617844702134925
P 2.329826490157399 8.636312142607194 1.334007557595545 1.8346548837099241 0.13186005406781162 1.0469089843012422
P 6.542929317432114 7.947718151652269 5.813935897130508 -1.6607994590469333 0.49585344260390096 -0.29285353516646984
P 4.310669476482276 1.3224862927296541 12.43069476713573 0.8599730723052093 -0.10907133830807021 -0.5418581914687894
P 4.241912807831811 6.320676999767445 8.33852567427713 -1.5475482783295607 0.7204251626748367 -0.8460297227512398
P 4.741837336337566 1.2653845294355164 3.437213413377109 1.4016811113493794 -1.1226523978811438 0.5196297190878921
P 0.2632190372564617 5.806206567540845 3.4494283360266875 -0.5654616898203423 -0.12133755726993296 0.5194600262792473
Ni 0.7736084343703814 0.30513396794705605 4.620691777198517 -0.9622772670927752 -0.8184181316815583 0.7946171726072185
Ni 1.8658303438421286 6.60034018118032 4.605150388191779 1.2267615070879325 0.14845395387075078 -0.06838748743546287
Ni 6.2174738128680564 5.8503897500929085 9.092383498751554 1.4526480893155498 -0.7327795704751315 1.484735456768398
Ni 8.734315168926381 2.511604830718821 10.21876555399272 1.099196223740733 -0.3146390064726775 -0.3215380475853559
Ni 2.8313874328317494 5.288181480092465 6.787100493766131 -0.5740460890552437 -0.7561149027669624 0.46804824746617457
Ni 1.2910398671231549 0.03449015596008608 8.983688324078564 -1.1269129729297107 -0.2624533256080577 0.9113735382643723
Ni 1.5341655566272356 0.9747482819032288 11.53620714548819 0.3453387495493795 0.5864336640863191 -1.242614157849473
Ni 4.084126117219957 7.197831358893636 1.7189458080690465 -0.29142194492626583 -0.6906057653205591 -0.9019023655491435
Ni 5.768323579537872 7.934754114961066 7.918446338652035 0.4501430850509796 0.6807710386183243 -0.7972283849778206
Ni 5.385484484795086 3.1130779495757177 4.707232631385679 1.1302260964633437 -1.0972699532522974 0.35962174183095486
Ni 1.3063312484096918 7.298443556692748 6.8966747864952485 -0.4841086433631469 0.42880858523926146 0.4797295404588448
Ni 5.449586464254879 5.074274874687629 7.112149622144987 0.44082592141511184 -1.0426928893373655 -2.004002907420865
Ni 1.136662372695873 7.542978380619786 11.391465403156984 0.4686419151861155 0.5110293790133908 -0.8259373228767389
Ni 4.852540754843014 0.48920419746349314 10.005179867588726 -0.8995480063843541 -1.2886392184293356 1.1468274524654507
Ni 8.060758005942876 7.304807389570617 4.506154603943645 1.2714758192761715 0.07796870336599476 0.3045769942509851
Ni 7.688055587855553 6.469399774123248 6.952226501924134 -0.4072761104841244 -1.6804033493207897 -0.5656617216462904
Ni 2.7050380766365687 5.250798507529896 2.413472709504112 -1.4442140996155837 1.3864766356947993 -0.5096993473480577
Ni 2.647354477193597 5.334592004151782 11.134290188896532 -1.013143200704707 -0.5258674724674879 2.355404832445189
Ni 1.3586510458556025 3.5540097473036254 3.6528755275372533 -1.7655606000154238 0.44947974043536787 0.6191342396431336
Ni 1.4455810029672962 1.2309380111865926 2.596748369029798 -0.6586544092249431 1.2073342516012562 -1.436070387462527
Ni 1.1501264248274792 3.395523035075205 7.783524899570365 -0.2506964421824457 0.40157623188586966 0.23024665896852606
Ni 4.160901215296536 3.103814027143505 7.250437528819051 -0.7398588459194162 -0.1731969651433856 -1.4368296342260545
Ni 4.0827351651766515 7.139965935654153 5.919464610387266 0.8633335041370099 -0.7459240782768896 -0.1030582993447709
Ni 0.7235296152164634 -0.20938373846663572 0.1908995313133733 -0.7175496408992545 1.7372239578542596 -0.9218114457682446
P 0.3056476201721984 5.639665061127007 8.063852646959486 0.711752060380871 -0.025540310362949563 0.0071070433584264694
P 8.612038665773037 1.6792154902935263 7.767105301626479 1.0690600664769847 0.027651957389313662 -0.12055491346763754
P 1.8533845049709814 3.371795029630578 10.011540063990664 -0.8672644637602999 0.19961659278749494 0.7715692896488195
P 4.086126178981573 6.258556899689616 3.8453051060982633 -0.8799050353424459 0.06857003575991416 -0.8366014874588042
P 7.075754861916454 3.960458662023307 10.277990110111118 -1.2287615682370967 0.5206239646803614 0.5298596243460164
P 6.59637642241639 7.898507541126689 9.943533418500806 -0.026310869980386946 -0.21187921220493186 1.393568252434258
P 2.5592517565944104 8.647557944421372 5.603783044004634 -0.16833500906539398 -0.46436205686383897 0.520283293511491
P 7.138302247916082 4.277932101920551 1.367964060712873 -0.7547018244695196 -0.28710223450498945 0.48021547895632777
Ni 5.363801997061202 3.0920136627499706 13.329293424822378 0.30515009314563574 -0.7102173689038994 0.07313374387119663
Ni 1.7240805120825045 0.9886305287668092 6.861041867974093 -0.9212445175211812 1.3323037491968217 -0.3797424238402299
Ni 7.280588459875412 0.6055459718987332 9.128150057763143 -0.38160235986710406 1.5614579464321172 -1.1512739182725784
Ni 2.78504054710121 1.823610858292379 8.765551588047911 0.9209187587506463 -0.08346495059387561 1.6357345456585053
Ni 6.192818506061227 2.3498634725328618 2.132399484549297 0.46533419096912115 -0.778770178272633 1.1535845686836261
Ni 4.442037169461147 6.87275768430225 10.542497368965858 -0.12941724895427387 0.9372573480096698 0.1412255544431116
Ni 8.38666806999821 7.24711469893782 13.575984678976031 -2.4140799776888944 -0.41980175375496087 0.3386914194361909
Ni 7.76219424088273 3.8382457971987414 8.131978387036058 0.46791403588115543 1.0496029861936376 -0.05853913388647339
Ni 3.3648766341733514 8.20324422407837 12.642949503349268 -0.6072444301840833 1.590631225561964 -0.44737632093911983
Ni -0.003553746102798685 5.062429054344967 10.355244313891502 0.245172684150739 -0.0238454391590299 -0.89495318792482
Ni 0.06012549303010842 2.3932375391904532 5.450924687397197 -0.8963876063785015 0.7313353818294372 0.9437905211424973
Ni 3.6165934980625565 2.972528154873063 11.190773751282535 -0.8021587323999023 -1.6836635081293003 0.514758764148836
Ni 1.188245783765916 3.5242361006250227 12.295107852958832 -1.1161937867399936 0.1652003200911542 -0.3948162874542168
Ni 3.4478519237109406 8.479798218570915 7.930740354653096 -0.7734289685653777 -0.1373403604560925 0.3504501026340158
Ni 5.446422730195596 7.95060005882696 3.6424170227619665 -0.13136023161325766 1.133831297316099 0.6528480869558111
Ni 2.9236084624218996 8.620475289931127 3.4951206560897883 2.03188986363912 -0.7158532270334381 -0.5240718140196458
Ni 3.60812960033499 4.461283218321789 9.233625132999931 0.5255746238174175 -0.15259214440884042 -0.9407370790281541
Ni 6.91446806322177 6.412616202473004 11.412063311944681 1.142995223203554 -0.28306380276955767 -0.19313715571073833
Ni 7.41627446802141 8.753470305888767 2.64025789441579 1.134419308609085 1.267716095123423 -0.34496516826004464
Ni 4.813575915250803 0.3850137073490531 1.045115000271794 -0.2706723710837403 0.9186698148154696 1.0933922154644458
Ni 6.148944423963231 5.755450454744925 0.18695850052400714 -1.0727069192009526 0.8338702045705703 0.8375839059767317
Ni 8.313429444763761 8.776943758018279 11.163882011778625 -0.6190457936943854 0.5464118722777428 0.5588195019134763
Ni 0.37741256353592956 5.026164298130938 5.685693755213654 -0.49755911244109796 -0.7541050714257851 0.3187340024776575
Ni 7.104001188704367 6.259938760543095 2.5632836992820316 0.561966017962258 -1.0384971060884631 -0.8387295895454007
P 8.372731275995678 1.6025676688745043 3.4356306372284844 0.5630764774176173 0.4630230263374413 -0.9519298624201799
P 1.72943522288974 3.492635124791489 1.5765332285711413 -1.3753555860809732 -0.4347768870075544 -1.6444518709268452
P 4.821467068019361 1.1610722173774142 8.043534746818414 0.1958501837665272 0.2083370033796283 -1.7964071530826353
P 8.69010471280484 1.683706538067337 12.370471998374489 0.5394557526748838 0.5039315916263449 -0.4436415364870359
P 6.173554274820932 7.776276493922472 1.1659623683845655 0.9625821999277034 0.048677667711361325 -0.7051502387936371
P 2.2325507590242553 3.3145750808687087 5.823023450480106 -0.6010773821414229 -0.24306206556563945 0.9985604177945255
P 7.278224750520775 4.065589181165707 5.810303057676228 -0.9167754260062339 0.4399054664833714 0.8607264055314661
P 2.831451071160528 8.516735722832031 10.36796470669538 -0.004536711528088961 0.13403160779783369 -0.5340137557237061
