# total energy = -340859.0066442738 ev
CRYSTAL
PRIMVEC
9.35446581190692 0.00000000000000 0.00000000000000

0.00000000000000 9.35446581190692 0.00000000000000

0.00000000000000 0.00000000000000 13.69120627962362

PRIMCOORD
 96 1
Ni 9.14928469387291 5.26198976596175 1.892138034900341 0.5225942010328547 0.3617297893128931 -5.046928181393069
Ni 8.311517468947526 4.5126503037959145 12.324782436174132 -1.1939190066366148 0.8068803062452877 -0.5551657072109729
Ni 7.564666294615611 0.4293680974411009 11.557294375412106 -0.9823454985975597 0.9670870297765926 -2.642253556178475
Ni 4.646269489584277 0.6640033502676035 0.8046346434255374 -0.34373592383863383 -0.0985627254672625 0.3875827458202551
Ni 6.42498369435283 1.7814082908443742 1.7624411765133408 1.327631797642449 1.1567040881492145 0.4353371303863986
Ni 2.508119300866409 5.513615534550462 11.545040960999886 -0.17321496286551458 -0.6746009052518703 -1.556381303240158
Ni 8.079826066426792 3.525146148954939 9.764554085011305 -0.700717142722948 1.038639030982966 -1.1162845466815872
Ni 1.4733189682498824 6.884446978332597 4.497574647129959 -1.625569689310362 2.428865620638501 -0.19326133999342845
Ni 6.232178805086241 9.211744460290504 8.402895630138723 1.3949952146887716 0.3193659796347016 -2.1986541857832846
Ni 9.106226088987455 9.372613204199945 13.126991466684878 1.3518199648528784 0.10171438372236676 0.08048067115457107
Ni 5.268781107944553 0.11122085349687175 3.222472126462161 4.144334446203856 -1.5957505490664001 -0.7998491104301193
Ni 7.03356651352248 0.5372325687018438 6.341972167141549 0.2970845425286819 0.20391136350810685 -1.1630302874775584
Ni 1.1689246595441054 0.4197984791926065 9.734351322118917 0.41727384512678456 -1.1075859904663246 -0.02329136642777279
Ni 1.11454715135398 4.807718210357264 5.509710980633628 -1.0313370980049141 -0.6235899614216422 -0.3842336268423641
Ni 7.39302120640288 8.003633944594938 10.121223953500133 0.5382920713840859 -1.5017854702721491 -0.5864028108483836
Ni 5.256227415188463 6.001656710758138 6.486988833745127 -0.6610722746378164 -0.9001002793433981 -0.844136876603901
Ni 4.708747964932952 2.0606577961758084 9.596234509298416 0.4387813801812572 -0.663436918215251 0.10441635603456212
Ni 1.9485258177352383 0.2415089141060663 0.7453984258333903 0.7993233198336362 1.711261472352227 -0.8647383549043365
Ni 4.698682560010782 1.4734499307674571 4.9153076603311 -0.408524895289561 -0.5272543255126855 -0.8186649575850418
Ni 1.6786588413414778 2.834515312524736 6.684991064066323 -3.2456194772437588 0.31547255811756636 -7.193536040103076
Ni 5.626140400543756 5.933687164136867 3.9825523859622303 -0.09395119483718012 -1.548512956235675 1.5021425965012516
Ni 8.820971016778667 3.2148772358893827 3.1942674774093405 0.675022051949689 0.644659894718064 -0.867312543389416
Ni 9.221388914263327 2.043726213546507 10.790408742230923 1.7659987159941068 -1.8461459150686592 -0.6037361599205086
Ni 9.199639781880384 0.7313021817095817 1.7255303263814645 -1.379840104214888 0.10025965355371119 1.0987403671502367
P 6.926626263457193 0.6940031212577519 13.569272468358843 -0.5481396536021269 -1.2285813339054907 1.577169186519787
P 4.088088530749806 8.494668549775751 12.504808190065093 -0.356626920868689 0.12180781203813215 -0.25868151727045124
P 5.841283753522372 3.7368844764766127 3.38456162812471 0.5445100272693396 0.20826398404984778 0.35641300508567003
P 4.155777443404846 3.174447235820963 11.655090635411018 -0.9869225764452808 0.4162397474353154 0.8616296340720259
P 0.17751314444663296 7.87690899991033 11.042327305591073 -0.4621835611552814 0.9667047067365093 -0.34487595098034796
P 9.219630274741608 5.3890982437335415 3.7984883092971997 0.1173600606794237 0.04370155465300861 3.5293666792335863
P 4.530629586565813 7.388549771874258 2.9787957826902334 -0.10793671048299476 0.7609508907030249 0.1996271343104562
P 7.0096377906684735 1.5884911479912938 9.919128209058174 -0.8036003499424352 0.1844180306701856 -1.3610515107534753
Ni 3.7005517323151733 7.264378596282356 7.616719218118787 -1.3240870177139843 2.0994689962406747 0.07649031904825537
Ni 6.070842337899747 4.294289014671177 0.005543456279626413 -1.9279622743155183 -0.2633699238850561 -0.8741717324030944
Ni 5.212008856575918 1.4251528251790144 12.409038107302372 -0.6620192119321179 -0.806696986589888 -1.151620760089036
Ni 3.378000405994218 5.376076827700399 8.905855307991267 -1.0979973183366252 -0.014404091240471968 0.8417411226782149
Ni 1.2142376906249532 3.3463261856722215 12.245387345341022 -0.17067599849374476 0.6308250457175006 2.4059758605245207
Ni 8.202472464135504 2.258074436954134 12.730849495399033 -0.11311491224982455 1.2142811152327346 2.712300433594232
Ni 3.1325298757315165 3.1557289502733212 8.056521286424374 5.012268939447988 1.7601597407148268 2.134002768351486
Ni 3.5684479699444607 7.9746818737453875 1.0644324731109112 -1.3819820902585556 -2.2554226009225804 -0.45098872088072656
Ni 8.310133008047451 5.73038656453322 9.20272207827616 -1.2028397061650125 1.5708954376959332 0.230458517869016
Ni 2.1475701355177064 0.8292462422640408 12.040073664752942 0.2575890555372209 0.37347150322985356 0.29053285745309315
Ni 6.814344613567966 5.410604160012416 2.016906025393762 1.6957034700129698 0.2502930360964399 -0.03222337881007999
Ni 7.285472916077424 2.1166536269045353 4.372437155247666 -1.617802900880749 0.29674515691139214 0.5223993114132294
Ni 1.6512970296339056 2.9345800304173513 2.018110880555449 0.5987304791758011 -0.48900839465760937 1.2783848876911792
Ni 1.2642466634074079 6.866149643734303 9.444837161749287 1.047062222049655 0.49610669626528753 0.7999437270264546
Ni 1.962426553529239 5.16509621188755 2.8829162526806846 0.8908818460689237 0.06800233618190224 -0.05412840641328742
Ni 1.0798982109899298 2.6055741228730707 8.593682761188106 -2.7174498390056554 -0.6914791690644478 4.005527528504566
Ni 4.118883431310943 2.9053192622049457 2.3754383679718134 0.06349339256795516 -0.2039447878492036 1.078708388200026
Ni 6.367350832154418 3.9860967929557343 5.728687793590966 -0.7577848342702175 -1.016738631365449 -1.4715930058491689
Ni 6.167408485680009 3.4977282104541207 11.44634105962971 1.378568436591316 0.41781711922476433 -1.0081498612551734
Ni 5.279145855764036 6.44262621636325 12.869117850561297 -0.17410867832437757 0.49850399285287056 -0.7251037990974286
Ni 6.663176450424594 2.62721100166952 7.8735114580258205 -0.7768001990304557 -0.5775453604577537 0.048468122803716526
Ni 5.167696753307963 9.18179146162806 10.169225457977477 -1.4870355656564844 -0.6481023447407096 3.3228484742302515
Ni 7.034932265491474 7.304864723144021 7.030037073673842 0.8930212610094298 1.7175817581433 1.1687836450215676
Ni 4.6862130574445615 5.499621254101051 1.7797750011609068 -3.2868540584135135 0.051087819814750725 -0.69457452016032
P 9.015207139273036 1.8976562341230065 5.685711508002273 -0.20715121060164327 0.2619226499155683 2.0935819413322783
P 4.8097294204485905 2.334070115009627 6.727118899630443 0.9797525410594029 0.037555075435638546 2.9655178424263187
P 7.84519736172617 3.797192715819764 0.7471374209774717 1.9050005233130223 -0.5695772546506126 1.1094109594902055
P 2.257036091279077 5.802294341147275 0.7812671885039937 1.159238424535294 0.4001068464291948 1.312257629179224
P 1.524740465329036 7.754702262082049 6.763948365912112 -0.5173054418300896 0.6012211068081387 -0.5133958223630385
P 6.676113676267867 5.800760208798542 11.019572568162467 -0.18683821007590404 0.2562459112457651 -0.1060369223571206
P 7.487145838676928 0.36771655684625476 3.255002280381164 0.30901754652084196 -1.2087571000907118 -0.5473683226537412
P 2.720924037459762 5.166555508511955 6.831240649228211 0.9568614953938424 0.07456944787645867 1.7473217084098942
Ni 0.6118381731779365 7.683608323970066 0.8684938378880714 -0.651150387538414 -1.5038436383527585 1.5198690672467372
Ni 3.736033220112377 4.580947256711124 13.347146006853833 -0.27356486214018694 0.7510305462655195 0.08265479598775442
Ni 8.145644085973624 6.0261654104756905 5.615201288540051 0.5320386342752064 -1.6027596333943814 -1.36013336981458
Ni 3.7340874912798387 3.6476054573528285 5.490351914196424 -0.16712221970421537 0.060606815048779496 -0.8869064063609435
Ni 0.8016711487421327 5.646439590767835 13.054743187525128 -1.0443466228907046 0.4975575697792011 -0.016898318417235415
Ni 5.738786874589085 6.3452462300809165 8.855992264871253 0.47161025378582005 1.5328582804175535 1.1673057749244606
Ni 1.7826992070890393 7.880510469143634 12.53104091778186 1.0896363479664395 -0.53792851739708 -0.6766320767492864
Ni 8.96927671346648 8.201247029149627 5.529973688442097 0.11321724215564372 0.5868458119230732 1.2110068153568367
Ni 8.722889445580755 1.1427976372879518 8.134671297893972 -0.8065643176667657 0.5278875882213102 -0.304660812214043
Ni 5.876942976164855 8.03758130004341 1.0718355971400984 1.7353218557355405 -0.5247058480592189 0.2653967245070978
Ni 3.259769316020883 0.40776395927404524 3.0470048036293558 -2.2068547193162056 2.136863891949365 -0.34745965254712413
Ni 8.991315834281194 8.17385715404543 8.262327947346467 0.275152518342281 -0.3653702142789579 -0.6755226457351914
Ni 3.332799628499863 5.791293489670999 4.948481401479327 1.7482856149850599 1.3273726304437914 -1.2185825708215656
Ni 0.8055598000675472 5.031589279685681 8.0606971198419 1.3264609172627992 -0.36584998212885383 -0.15643054431832412
Ni 3.343304693302462 8.551253711833564 5.199769473862008 0.09375527677629014 -0.38025407336932576 0.4812565186263324
Ni 3.3296191102159054 2.4532179426059844 0.26689506269136865 -1.1227776106050986 -0.7901108000964329 -1.3974950982924899
Ni 6.662530992302261 7.938517509963687 4.44044131339144 0.7866408392699614 0.3385314968195589 0.6000281149413021
Ni 7.305987259008948 7.849640732858168 12.502138425599677 -0.3980124257940113 -2.333938435041296 0.9015390686724538
Ni 5.3398376281943705 4.228723565693956 9.217700448500489 0.766519385929738 -0.6257540589524965 0.35408744227628697
Ni 3.926218859027471 7.089524926389043 10.578907082687438 0.03236890324900877 0.7185454291536205 0.15961614113515737
Ni 8.670130259929232 3.659214349089272 6.897245758085862 0.1560734180892215 -0.6904635833157399 -0.23672223939054068
Ni 2.7851611523301543 1.053911505716892 7.284351315659052 1.1047757747110392 -2.596555539920728 -0.46318372028502164
Ni 0.21663445478585944 0.6760023232171087 4.1232435476996265 0.5271116292872341 0.12247835574259552 -1.1130598690967024
Ni 2.484948289721227 2.6300454047284583 10.541324581929716 1.980858865204234 -1.9070954581688384 -1.8100597108690633
P 7.110385384545585 5.014816722970577 7.388130691818018 -0.4109054797065956 1.2193055650305193 1.8987640554850076
P 1.179850675296052 4.135843077336867 10.248935794299323 -2.228201303312782 2.831274632838311 -1.46386118442255
P 1.5347029711302547 8.82971744205955 2.6828738134249854 -2.7368135882442477 -2.235523290895492 0.6273448004783841
P 5.2993702102637865 8.3221534962677 6.18571423929729 0.0843272985941709 0.3495173064071013 0.4068745041703315
P 0.7649511297072937 2.124221389527245 0.3321265572487747 0.6517119164688389 -0.7435869455032807 -1.7082993044001094
P 2.5989698702010893 2.237298168987461 4.187660268308408 0.051996447671949164 -0.05509848363604059 -0.8724467792921878
P 3.232594593624132 0.05116144293711234 9.076489178479012 0.7277301809766822 -0.5000039744371647 1.1949222510901487
P 7.798584059935116 6.947935735959705 0.7077261222064727 1.0235757088919406 -0.11637789927181248 0.6119505774105009
