# total energy = -340896.67160193744 ev
CRYSTAL
PRIMVEC
9.03331499383531 0.00000000000000 0.00000000000000
0.00000000000000 9.03331499383531 0.00000000000000
0.00000000000000 0.00000000000000 13.22116959495843
PRIMCOORD
 96 1
Ni 6.3315225906365 2.003020117732949 11.392178839185537 0.9446667530998634 0.13007776535640822 0.4478455472660546
Ni 4.718380338489151 0.3932761986030532 6.083813742936578 -0.40389613826829796 -0.26174627223870406 -0.7023333381701324
Ni 2.7465522566660048 1.4394316090701695 4.743464950281195 0.17965660472580025 -0.1391738141204055 0.3877161860743258
Ni 3.2945673306608145 4.484706551951424 4.8911189968967985 0.2825151293549393 -0.8829818744955569 -0.6874175974005645
Ni 5.179558157574916 4.577785827368339 2.5837204345694724 -0.023824356113107355 -0.12753982942590292 0.14231133130812265
Ni 7.324509717015023 5.982339808101483 2.4776467358521668 0.023382897700314566 0.4950990809363795 0.4755728379779939
Ni 4.91189200754788 4.55108334890052 11.434619158650184 1.0139212165213118 0.2505809996505039 0.15816166807681795
Ni 5.811420459289039 7.827159484221815 12.507675780510118 -1.039010555389772 0.19732445431920853 -0.11619072296167085
Ni 1.836454826640899 6.468250843034639 0.19048279861547407 0.5995537464080449 0.18884007099728123 0.8850066182350693
Ni 2.6912412703133493 1.5410835002062853 0.3062474374208293 0.6278610779931703 -0.6926701040487554 0.4063209456597067
Ni 0.5156125739054781 0.06037957927156408 5.009487940351096 0.16951206009263065 -0.43084335628110315 -1.4819252410131123
Ni 8.657257878620737 2.193180427011041 1.4541035189238336 0.2601200494891907 0.5587459683630634 0.09823619536577921
Ni 6.92126254556597 0.7160175654671806 4.761181087213227 -1.4077877384677497 0.316619527237816 -0.19078793875227143
Ni 0.7424363978511391 7.361862473599742 2.2873147935933953 0.2876776473924852 0.6298565111566442 -0.2688664282232531
Ni 7.720268270517588 4.021965969409999 3.8897471477463452 -0.4922754954446553 -0.6217570219779613 -0.12567012320701584
Ni 7.688163869815752 3.8019324881789047 12.479342788725845 -0.32928915228568456 0.011923233800147207 0.2191505490553645
Ni 7.9450442420042995 8.83274808470812 6.787166601092569 -0.3946769336628751 0.2864298910283132 1.238177462234358
Ni 6.830568065249023 0.7854900793888482 0.36214739589665895 0.53363760333121 -0.426058276187634 0.41057714983289934
Ni 1.7639534422759775 6.599351340329444 9.170348351041703 -0.043864305483118 -0.9436419113797748 -1.3503881175023582
Ni 0.138094992923233 4.758759255522692 1.4636228260312039 0.28363433056104703 -0.6035222441374897 -0.8441037093731204
Ni 6.27366420951797 2.085512348236371 7.0752028759318275 0.6958330751577694 -0.29994103814087053 0.11957815137666503
Ni 3.452054140406397 4.350787660447566 0.7106364198571403 0.17856388588225375 -0.3639291109570571 -0.86768021114148
Ni 5.957868558382499 5.66532465947171 4.800950255499618 -0.3627993682279881 -0.5626902977227922 -0.18819729520695977
Ni 5.19164473274066 2.9287632489442053 9.493011128067309 0.041264663076741835 -0.3614423399794614 -0.8838051417278004
P 0.21550417720411058 5.448624471391707 12.426537643891109 -0.7204827553856495 0.14769393577627468 -0.1336287159324602
P 3.9322922536623564 6.084316898569413 12.635498087873945 0.6407327917495159 0.42785496307674054 -0.5284838270444124
P 2.4676125298027585 8.401551837352628 1.1863208391362303 0.33073128404884977 0.48011726281556666 1.7003232281731684
P 6.367845549337143 7.803347666481229 5.676905369010188 -1.4856931926959767 0.24906893388135168 0.5704622283587272
P 4.805398259693648 1.0421102921119443 12.635219861778948 -0.36850336059130084 0.06115240313960435 0.45921727943810586
P 3.8851835171232256 6.178489205073812 8.126947198248754 -0.06955348271910602 -0.40760469746813677 1.3836918738608106
P 4.746627513783085 1.1911057859712788 3.7145803343278216 -0.21222168314601517 -1.4993346947388113 0.2076173516047844
P 0.2503339289728408 5.699886121791693 3.4628354015875 0.5688455186909107 -1.4525550153811113 0.912324589323732
Ni 1.555744570082222 0.9187332789477154 2.6239918551572194 -0.4158047167804258 0.5392588061727293 -0.3817802802058651
Ni 1.6464751836582592 6.5058384658034445 4.912867605543322 1.5379020134890482 1.0811828178824476 -0.8061452278514762
Ni 5.725405236024301 5.597945164582855 9.29662415491646 0.631293757823803 1.1141119645103006 0.010697588923162223
Ni 8.531080537877 2.3469545443850834 10.085055481595269 0.02722849669864988 0.4770962166010557 0.22580482114708852
Ni 2.429085442297601 4.976480208172 6.944537784409062 -0.5841973185566326 0.9514210411045614 1.5636384990232037
Ni 0.5109757734327003 9.077126349251383 9.210832054526607 0.5958935239476383 0.5841752070694455 -0.1312661292375546
Ni 1.4086370390103617 1.2305271716389239 11.21623154737066 -0.4245338691233076 -0.5720884511082406 1.748920934576214
Ni 4.0976019140010145 6.817334259107158 1.523342973324368 0.25855527610523216 0.050299776695816596 -0.048897754141967405
Ni 5.705053177841624 7.995404971861569 7.897189353664952 -0.27051887622501153 -0.12870042539290738 0.6978822443773142
Ni 5.18921477106683 2.934905902989576 4.916225288644298 -0.033837517374735275 0.1414448695427693 0.12433032134966975
Ni 0.8000084228913777 7.490018110278678 6.975488630814436 0.4064183904695194 -0.8270637231716983 0.38378651200261643
Ni 5.059288604692463 4.466106956834633 7.283846250566145 0.13079973112409735 0.16954651287499187 -0.8214157808573016
Ni 8.234399380800358 7.26074354803521 9.102537063706718 -1.3135282683615315 -0.7292358189879312 -0.07876137447061919
Ni 4.678958952821506 0.3124650679788128 10.527647255536401 -0.8637075996469771 -0.10641256052898447 -0.5740856840439275
Ni 8.084798654851259 6.952011949051914 4.761141340628228 1.1030431082906487 0.7518507281739696 -0.23848215950444088
Ni 7.043176161737036 6.165761264559213 6.917937382398174 0.6460452051013648 -0.8146704917136679 0.8474957657738049
Ni 2.334289837073892 5.355581329233883 2.516980498366518 -0.2808979054664904 -0.06052556818888286 1.2155152447501518
Ni 2.332844506710275 5.067662487486667 11.392734388044051 -0.23799930633075136 0.33436091038163707 0.8657716812648574
Ni 0.9716414035708586 3.340022970596559 3.6349887011978828 1.203888459144501 0.10753407572793738 0.07709427118084143
Ni 3.565359007599172 2.868438772892754 2.8825190006288124 -0.5577159844366525 0.004345421452889291 -0.7049165255162764
Ni 1.1197154993233873 3.271685944341808 8.202664442672722 -0.9017542700070534 0.269028150612098 -0.47276802153934705
Ni 3.545314082118763 2.6970767916564515 7.107978451921268 -0.004716688749378973 -0.5328261631735082 -0.36559544291588647
Ni 4.0441698571210605 6.759530077877263 6.095632931985054 0.3678580136978181 0.7999758658159707 -1.0180293251524144
Ni 0.9496452820995671 7.152434103911685 11.250051374547812 -0.7482457844315307 0.8979456948942407 0.3683339248929721
P -0.021852491766406943 5.596292067979468 7.9043419323019 1.2285527946604002 0.31895306046699906 0.16788018091616247
P 8.52574184884639 1.5942897242169245 7.962832645454512 -0.8512922567017597 0.004754483965849877 0.502977969463824
P 1.6371528028129316 3.240430675228597 10.436988908478545 0.4990140997200696 -0.18376934134259318 -0.7493631858654255
P 4.0659853122969 6.100098099477153 3.788526145724883 -0.40157031834859874 0.8341501977048343 -1.011750177011922
P 6.951894515959871 3.98953636937635 10.314865719404754 -0.517096154032761 0.3068850735588715 0.7104240855980668
P 6.281179927408777 7.813961811339039 10.291053901664167 0.3815190561246784 -0.8054530868804581 -0.6572999520795777
P 2.598532360802112 8.442888285752066 5.710884182527339 -0.9301222796267852 0.21816530232395973 0.4457403279975936
P 7.073049333690038 3.9710542073516018 1.5747208544250317 -0.7633795547491756 -0.4533867887992579 -0.5880493453128711
Ni 5.388128362359576 2.9917977194274377 0.3056855652419734 0.019567894829598555 0.0232456007915019 0.29313327119041777
Ni 1.4596572008460307 0.8699551858386069 7.065868751777296 0.5188198215920872 1.2660587620256583 -0.2381006077953061
Ni 6.756404550965942 0.7469295686190324 9.357731819358698 0.34532692247483754 0.030104275584548153 -1.2742209861214764
Ni 2.7164261518993693 1.691262358300831 9.232699902928127 0.49106064920094783 -0.9151512601392499 0.09958525319450591
Ni 6.294802166085864 2.089712839605632 2.5607026451973995 0.9224431658149725 0.3956066445659961 0.04697019810195137
Ni 3.8791131295960355 6.844660036294285 10.410970251939013 0.6171699168279112 0.228602952717516 0.23455608497715735
Ni 8.117481187698543 7.20718502474844 0.056137534654349126 0.41726998847204266 -0.09565095113710624 0.898282252298053
Ni 7.475239607310698 4.029680420225803 8.151763520592052 0.7179203939751119 -0.8178643160606174 -0.05110633175751199
Ni 3.242436071108115 8.41698977229901 12.350713806352823 0.11720270916595299 -0.5229294728850865 0.07514254677110929
Ni 0.08831600853731998 4.908829713839967 10.145714190293306 -0.17105600754098282 -0.3892753030313296 -0.26024191977903566
Ni 8.568776560423077 2.2814088123950667 5.794071978268252 0.37735412611371144 1.3083503237050176 1.0467999695272037
Ni 3.5761899520115246 2.653906580358176 11.562176789891176 -0.17382534275600386 -0.10286469527672605 -0.2841264397061171
Ni 1.027051756386013 3.3676558804859558 12.677052239159401 0.35484926014297596 -0.6364197661964588 -0.2918765159651812
Ni 3.1940355705565016 8.308788727952756 8.121618445864396 0.13131060932224484 0.4222545861708277 -0.2217746169417729
Ni 5.725314902876575 7.750051109322864 3.500450124300624 -0.4411699350180918 0.39111698422575863 0.8956448146752058
Ni 3.2090760396528877 8.255112771573941 3.431475346022927 0.022436731736961358 -0.137035427621164 0.43585932143845574
Ni 3.3262561988831103 4.35492491861342 9.406346409470421 -0.08511559882342115 0.1974640652208664 -1.2601621940355652
Ni 7.248124007297881 6.0989237685567135 11.311093999123685 -0.14430753580254502 -0.5772370851887156 -0.27046745416178575
Ni 0.6353816811495288 9.050026404933568 0.31452195375253483 -0.6128386364424091 -0.05819434895254494 -0.35796697983635123
Ni 4.927655141826074 0.1424499539751055 1.6089498907613837 -1.4785650662916276 0.6362824692876462 -0.07064465890075575
Ni 6.011237382059044 5.595831368926065 0.37099914104233384 -0.18387038569683173 -0.12113135479639785 -0.3089165021666035
Ni 8.132973322533559 8.724592206935728 11.253806523498785 -0.38552200663648445 0.5208386517943288 0.3663868284689303
Ni 0.30519234625538916 4.826870448908128 5.783455123416011 -1.4189378415472982 -0.7399832873124225 0.30826164219142393
Ni 8.059866706078871 8.911852822171815 2.690190695805295 -0.3137308928361113 -0.08551514825468498 -0.5380215913315185
P 8.5598335787982 1.7186423353765945 3.7358528872858274 -0.053939944551565165 -0.7129332251731657 -1.2560653982583723
P 1.8036729273311185 3.084867961529579 1.4912286359762825 0.05191237259857511 0.33950774468989914 1.3444905210710008
P 4.626285694382451 1.1146207097916385 8.273410653977328 0.8017566118654772 -0.3067318358104588 -0.22848493908241294
P 8.471108361101681 1.5517428116379581 12.466755767921697 0.3145307630295874 0.6880819704574408 -0.9540577073964601
P 6.526055024264533 7.691406829819117 1.5187025595256811 0.044904830932490404 0.44375363658486805 -1.5983555907894151
P 1.765832371748679 3.075681080405841 5.884213619721115 -0.22550991561448902 -0.17699268474039195 0.161856857540218
P 6.847803629835151 3.98367374808893 5.938829944167758 0.08318547168024382 0.09049614640904413 0.45862026928405536
P 2.400874400262758 8.54995113243697 10.256811315355657 0.11404025227757134 0.3178390014672139 -0.3614996755799581
