# total energy = -340895.34664401016 ev
CRYSTAL
PRIMVEC
9.01312877506033 0.00000000000000 0.00000000000000

0.00000000000000 9.01312877506033 0.00000000000000

0.00000000000000 0.00000000000000 13.19162502332447

PRIMCOORD
 96 1
Ni 6.39029027792185 2.1093154887195973 11.378857866849609 -0.02383849718049443 -0.9966246342243933 0.05387052476621045
Ni 4.642239016914692 0.3108339695692164 6.085678972461527 -0.39569200519095077 -1.0037707583508713 -0.7555785706475181
Ni 2.6070024336281703 1.364957235392431 4.80846634835661 0.20946803166027794 0.3039956678262184 1.4000014096541116
Ni 3.2334869887860016 4.115340521633981 4.918774426229008 -0.26366714341050074 0.2199995273192211 0.4024817744192745
Ni 5.0343912369521275 4.576704557563932 2.449407876930601 0.22333450522972506 -0.2182115821808629 -0.011331108742103066
Ni 7.439553664707528 6.358870510998904 2.493375721739413 -0.19363800660655686 -1.169576059015876 0.7973510265986139
Ni 4.7710546534215075 4.58949418730107 11.416467850617844 0.8156171718976534 1.1169761734319732 -0.4916363191987598
Ni 5.619784938007345 7.976357588516156 12.313920405443318 -0.02758562292775249 -0.07334714543358335 0.07640830085741035
Ni 1.9452855580739539 6.691743383058077 0.3622971322704908 -0.11710629279740477 -0.7896426022107627 -0.15554659905147405
Ni 2.704939090938768 1.397413512124942 0.46550646991669453 0.1523147223777377 0.6377904212917404 -0.21438603778718562
Ni 0.22647108419951362 9.021420857290908 4.688527742384049 1.8749666959550935 0.027038235064714724 -0.11138533115322752
Ni 8.378243987634713 2.396320548423384 1.4098678534715077 0.35085967936760865 -0.3874930143199262 -1.1477085695188234
Ni 6.976341937377921 0.7120227525202913 4.657856966462622 -1.9525476769643662 -0.542567044610356 0.0004712832094637045
Ni 0.8006785911273434 7.317786294905747 2.4941012786061076 -0.0759205625877144 -0.19173616159815365 0.7522011695348529
Ni 7.697761777963003 3.836411225316012 3.557860480406753 -0.24597306856484735 -0.3477489016527689 -0.35820300710655734
Ni 7.648243648452197 3.7607820617329804 12.525672149034149 0.29745195317042966 0.45983100176270486 -0.021025967432363787
Ni 7.995979169867636 8.853307979308461 6.904589320482657 -1.060573112051896 0.5798164158801176 -0.10759269688001469
Ni 6.593238898634414 0.7045941317807924 0.44292858232576443 0.8799603140604135 0.7181528217008922 0.006555027509698387
Ni 1.9724331019557428 6.4799889355286115 9.224547036640415 -0.8596812520964033 -0.21165321223705483 -0.49784553333326514
Ni -0.05148389289746572 4.725601444989947 1.1684376794377958 0.6319077372587182 0.8053389299000969 2.315766649228276
Ni 6.2571843921163195 1.986358385919011 6.77569346712971 0.7399449778753192 0.2746277561870625 0.7495966420324703
Ni 3.390630889044631 4.503121374213692 0.4085948708686267 -0.24523181952344864 0.18994333136378902 -0.22895930761567024
Ni 6.148981781126652 5.549671809236946 4.617095091560433 -0.750021902495347 0.7269364814307931 -0.022015842149458856
Ni 5.5245612324591695 2.844579495108939 9.190486422985273 -1.059811551295523 0.11700370578126948 -0.0669795513443427
P 0.24187452128250742 5.56469669491123 12.423885984422121 0.7231585024455996 -0.06251483070476975 -1.1826429195021633
P 4.047669950762643 6.449164035105066 12.51766488542705 -0.8506098859227544 -1.2937796249796945 0.08341455697191441
P 2.4288939958300193 8.38364285177322 1.5433279552380461 -0.022519264148438637 1.2176464321605416 0.1167432530310312
P 6.381150965340132 7.706324250302877 5.8746789238108486 0.2329774276361278 -0.44803863711346703 -0.9673420832101921
P 4.757931537919554 1.1955915325097297 12.811126049275103 -0.8415966266805507 -0.8663026140676628 -0.4021953535271073
P 4.060072015962291 6.214867752499786 8.178108364414015 -0.4855116943582607 -1.328733772457376 -0.13344668182864117
P 4.653784834880353 1.0130576484811806 3.977340506901554 0.4037824955085691 0.06054048058721831 -0.42479560742512645
P 0.2974413615167761 5.441081633709791 3.5501569592395 0.1487627433604212 -0.21057977666721797 -0.5581366169138389
Ni 1.57174544896477 1.1256226137997938 2.7079900350303965 -0.5225378938736227 -0.5593064688522238 -1.278971099211952
Ni 1.8221842452129067 6.281637010493243 4.918259776575738 0.7927271546733573 0.8607986535302982 -0.31175422872571473
Ni 5.951549195226724 5.728185837830146 9.239004996514511 0.2708952857278238 -0.3534055857179139 0.33224309270768587
Ni 8.542409115212036 2.366117553885577 10.065012282136077 0.631887168433428 0.37576904101477865 1.1702944252391394
Ni 2.268793789331939 5.023169891622503 7.0859605108987385 0.1837613709227932 0.8243450386889545 0.30786080720857945
Ni 0.5803084937982093 0.09966988197476326 9.01751817252968 0.07479339096180668 -0.44102518191011136 0.8310959842595428
Ni 1.4597392976304433 1.0984930961755623 11.396482138863702 -0.5138519360638505 0.7315277003459014 -0.3424696555317005
Ni 4.05126618914539 6.785380777941179 1.6955191412327164 0.796775613711118 0.2966317712619794 -0.05928064003818822
Ni 5.721633293207947 7.920647439534305 7.994995837517867 -0.7779451112681763 0.3620023262479895 -0.01601385892975307
Ni 5.246947852942908 3.0473748926322632 4.755488078707617 0.4581194183882368 -0.5333987478475265 -0.25166677651551494
Ni 0.7124860273395224 7.357705442267115 7.020952418268662 0.6495102808318297 0.021829180059949504 -0.4025622499482228
Ni 5.160349711636059 4.435901459781294 7.2015719137445915 -0.09048817598924416 0.24731389886345792 -0.3741919263356459
Ni 7.945523674963832 7.28574462209706 8.949501497513236 1.064825716680663 0.04147549353596728 0.23862819816400196
Ni 4.60621354118577 0.48509380137881397 10.416278246094178 1.4551580002215971 -1.3349175326705849 -0.8952560638772193
Ni 8.335125179556863 6.922236125318697 4.88927806098746 -0.7766639305629075 0.0995266320424286 -0.008154767896650471
Ni 7.288962309071097 5.899786796649992 7.005781519908162 -0.21945496766966077 0.7719076468248448 -0.7641236320040516
Ni 2.43162497385 5.161386221445623 2.5545712608960516 -1.5443354278192176 -0.17668080992692797 0.21222116892538292
Ni 2.261655391339118 5.514691856446368 11.498189889255354 0.4967183617073574 -1.4425004593585868 -0.6905731123104107
Ni 1.097483625752335 3.1778669710919383 3.8541310364951613 -0.1493918923039879 0.6590135923365747 -0.42647428067913007
Ni 3.5396269208872115 2.7162866200712954 2.957113815789704 0.1285394743350109 -0.22599482567070758 -0.904508692823739
Ni 1.2238206518449768 3.2784174357483917 8.45269243134772 -0.505457284242252 0.11103180446855071 -0.166859452961132
Ni 3.54275447657346 2.682775807271663 7.1030169557997676 0.7299783535809106 -0.27362168352005134 0.15544709735913229
Ni 4.164552204766308 6.584063533537581 6.007545060390863 0.13059301442992993 0.8790838249927312 -0.23512429877580152
Ni 0.7747135697413349 7.416137556140169 11.269697160270752 -0.06785706885328958 0.19293480989194514 -0.521612810956192
P 0.21858279389229526 5.663994334667429 8.113271521230736 -0.026065329628484138 -2.1844421559489606 0.5322098697457479
P 8.429402506583262 1.7467173179478939 7.943521859062058 -0.11347640935430134 0.5415943962844415 -0.20101887245166025
P 1.9682870627174882 3.186609706007388 10.64581289276561 -0.9689672775184409 0.6145468773827675 -0.8130702371060836
P 3.9752224216385326 5.850043338919716 3.8843006824564865 0.4841803771413468 1.3762750125714491 0.18197265445348662
P 6.915566410022374 4.064740816669717 10.461433119963159 -0.4878436849255469 0.22498798167274803 -0.9062930384176714
P 6.391272708958741 7.860565923094728 10.256304223399 -1.2289875682049738 -0.6189732885852373 -0.40032744708043316
P 2.282872296484447 8.345301001948146 5.8998354675453974 0.10888364777729635 0.37434619252532303 -1.083724610467695
P 6.830482474350367 4.05187006877357 1.4247485290853301 0.3611628610658296 0.17670909206170216 0.6906240201530042
Ni 5.322712213457622 3.2446272159566165 0.11764296207259706 0.05033680058133912 -0.8152867851414282 0.8034270575893646
Ni 1.2429555242423995 1.1423780201996097 6.945206084011506 1.2981402159412354 -0.8574680464951685 0.1714380734707499
Ni 7.002561128995491 0.8281424958292687 9.22130231028004 -1.4173141899009463 -1.2937372017775333 -0.09279214153207245
Ni 2.8343856464601003 1.5588116091671713 9.258595031915263 -0.6451355488029019 0.1911653766963482 -0.6212469151107624
Ni 6.066042970104003 2.013379745997897 2.557843026642761 0.7213846983746286 0.6309345747121715 -0.06438248004112783
Ni 4.048724486829764 6.932610236543113 10.274706328426705 0.9222469906437665 0.6585793330126336 0.5614736517068717
Ni 8.109860051987955 6.978694363989191 0.295913636188767 0.11808305488837727 1.674657705086264 0.21979023952189244
Ni 7.512235535179888 3.8600256227165057 8.176762704287338 0.918322972999012 -0.5486405044979454 0.2056337455158523
Ni 3.2391832861742125 8.493684141033766 12.145516403401315 -0.7462521510402697 -0.13858605993773554 1.1842141206440249
Ni 0.11743115354629491 4.7613114612116085 10.209921761390344 0.35312379281143697 0.4842040312904306 0.24313662755731671
Ni 8.545861143534323 2.2131647585090963 5.692739906281702 -0.3326729811562529 1.2737952114379676 -0.1722286876928453
Ni 3.8666863248840495 2.453860362547335 11.340906285500655 -0.6084507917873586 0.6558020273778125 0.3296406220878323
Ni 1.048785690960401 3.391595293823964 12.700091513223134 0.8463745076851682 -0.5712507856982937 -0.8217250845676042
Ni 3.103030962841442 8.241983506756595 7.942993689715619 0.4542434803725984 0.5650228025107108 0.05631332987974818
Ni 5.492159034499332 7.704891162827045 3.7388630338557816 0.1677976485046852 0.5004153509429705 -0.03695652261969119
Ni 3.0792543291229295 8.21936055352177 3.764678437304062 -0.2136879832788965 -0.5317308732268005 -0.005310613579636016
Ni 3.4510368781202447 4.320190912518875 9.422408647470215 0.04009455402804063 0.18313196486891042 -0.6231281912938753
Ni 7.291792431507646 6.011774921726761 11.455923723159982 0.0999683475655375 0.7214692876686348 -1.6893988679511809
Ni 0.7122525873041511 8.830000028286447 0.09426020208171886 -0.3010592109057138 0.5277389784585879 0.9259938592807084
Ni 4.460912892142504 0.27543220235178917 1.8811256008619635 0.07515617361786411 -0.15600271275228617 -0.46378715819697547
Ni 5.976073918633877 5.729150242609478 0.11328241036940663 -0.48587036324926003 -0.11598169227465832 1.8917742544307354
Ni 7.842179140385946 8.749729103382325 11.526894901790122 0.6460704019123453 0.6388247760935256 0.08367655238404945
Ni 9.141115207473563 4.6925773411443705 5.631596643271981 -0.5668729683455721 -0.5099106920279153 1.0856696500092076
Ni 8.069201828066722 8.845133071506076 2.0670087635447203 0.19838400593197447 0.028333556837370554 0.7829042550456645
P 8.468303170392625 1.5557110928672593 3.3009142051803124 -0.006358338117860017 0.26851058754573115 2.1151218722865828
P 1.907736863581413 3.2366145444722503 1.546216663011656 -0.2986390314999954 -0.507758421571603 0.3029759683124524
P 4.679346068097071 1.0640178785965972 8.131357265438306 0.6924309914547558 -0.044157925464136855 0.530480545759467
P 8.434458871828177 1.665572119552228 12.389060156133661 0.2899052511714233 -0.6824877641991149 0.29980194145984496
P 6.2234572642259955 7.777284613178483 1.451540054380356 -0.6531931290000558 -0.09056273798092146 -0.06077882185026952
P 1.7132786101784925 3.08882627188603 6.142627525337589 -1.1502063962400126 0.21627785549325976 -0.9754202322326363
P 6.897450021176958 3.997547941623656 5.780293439239105 1.1900664656597442 -1.014801562243736 1.3640967253377023
P 2.457456600930082 8.561111357428077 10.117316369752416 -0.6945842903523328 -0.29319934854166274 -0.02507982578676326
