# total energy = -340856.12427190715 ev
CRYSTAL
PRIMVEC
9.44325890473603 0.00000000000000 0.00000000000000
0.00000000000000 9.44325890473603 0.00000000000000
0.00000000000000 0.00000000000000 13.82116394631564
PRIMCOORD
 96 1
Ni 1.1810683819588994 7.597583335519426 1.9497373745435151 2.8887043357106896 4.275703933788495 3.5941165699164617
Ni 0.2661497512110644 8.652215924993735 4.733140747877649 -0.3623383694311695 -0.2192060848836483 -0.018843615069064318
Ni 5.3219845955264 1.1648920795818658 12.579290486665327 0.09260162278782116 0.2960144493929547 2.780876640001733
Ni 2.323372186417669 3.98872865425152 11.898294597716939 0.2669360439697596 1.019418235080141 0.27036949513134084
Ni 9.161075370346236 4.653817373699551 5.27458415782557 -1.039518862484758 0.3971691039571095 -0.12818671898128245
Ni 1.3438418344241232 8.012321820106079 9.571833521335739 0.6755401292366882 -0.1784427869233572 -1.1271518284133943
Ni 6.327757763810532 5.358256152695218 5.368084696486237 -0.4404230295497382 -0.7646543076965412 -0.10836762737282628
Ni 6.272420267062478 3.3345280122353156 1.8650001800777614 0.64663527327688 -2.6510058484498087 0.6241311786370928
Ni 8.669468758877471 8.004625564159038 10.235152574078892 -1.5940034844683066 -0.951971771401709 0.8153454062935055
Ni 1.2212022319894849 4.710694121637014 0.23128335095625788 -0.15208486575511873 -0.40734835848295653 0.14093527689620244
Ni 9.532308761499737 6.044242803935647 8.279457447539073 -0.7776676892370735 0.288706859987948 1.1931782718158481
Ni 7.940864680533976 6.5775508464008965 3.88247593886584 1.0427471396140686 -0.11912049501395613 0.044507081273439476
Ni 0.8820494797357271 5.686938219557467 10.661065266839945 -0.37838822380518056 1.6663643547292202 1.120109062634
Ni 3.9610693491363236 9.647233221469671 0.5223283654227652 -0.4103154115310805 0.5406520869758302 1.128084881750625
Ni 2.3179423125900014 5.133298840829664 9.09333037582049 1.5083443544365893 -0.4310842686473156 -1.1432297078118634
Ni -0.043856382661657645 3.91341866507648 11.941513560407522 -0.931511189554512 -0.05046664129098405 0.11929841535271712
Ni 0.733269048205873 6.794698583213441 6.271159592008576 0.03794434045425723 0.7552075604613445 -0.8215564202002239
Ni 1.4272635829347569 8.333959215880608 12.496861224657803 -0.1753978294494463 1.5846384983136386 -0.2249530146697545
Ni 7.510790343606223 2.3491333965078893 13.176323528372084 0.7745378853588403 0.27991317295571794 -0.4727302263228762
Ni 8.045193804095838 2.3156570439529656 9.664103603370762 0.13690712957341583 -1.0624495031390024 -1.3215907336546917
Ni 4.973821085696363 4.2117500980567755 3.7101251332944942 0.2846548014057613 0.5771890055595994 -0.2395766781202003
Ni 2.1775304970359364 6.797078284438784 4.3073659266955255 -0.01256600959046868 0.7669762709614985 0.5373898712847905
Ni 4.83407974151928 5.044484991526685 1.1759180285926216 1.291929202034517 -0.12987927619235695 -2.021080945949074
Ni 4.8730992870078405 1.0503075769298367 5.187524866013342 0.22536824783030218 1.949131966414598 -0.27716749188978074
P 1.7947857733677817 -0.071866032679474 0.5606613859943311 -0.31198048580390786 0.5930511694028368 -0.24652534152389152
P 7.322661741180499 8.941217418249273 13.301211570734317 0.4008532376769161 0.4131518525386111 1.7218675300028472
P 5.70077259374448 1.5884505679164187 3.230945850446965 0.3041674175173923 -0.18792784359565698 -0.655628992135058
P 6.530712282600495 2.126990175773891 11.175088286121087 0.6115278880507856 0.16855612393726452 -0.9610475084507318
P 7.534577912600822 8.450574019181243 4.703949746180109 0.6730569578035183 1.554745053188316 2.0305204940954193
P 3.4149940207319314 2.2116112181560266 12.184544325349204 -0.5804561063466456 -1.3361709454617117 -1.4212315226774812
P 5.350068847288978 8.113449678924326 9.874212335050885 0.770506395601944 -0.12226161174609912 -0.7614453138409403
P 3.5562651728395926 3.506451982507513 2.2845556709939694 -1.7719238232292904 1.8489939260404158 1.4341860259556203
Ni 4.341311609214337 8.176152917560346 12.524530917357714 -0.2487920260708812 -0.5981931186150924 -0.6980660782533461
Ni 1.4326273539506091 2.3715044766778792 1.1258536475756447 -0.3373315629741868 -0.682989900646514 0.6747852533485347
Ni 3.776529185066276 2.7913895373272797 0.4248654353567253 0.9772559998897944 -0.3541805162107255 -1.8324637895958764
Ni 4.9731600575782124 3.185286749674522 6.818837441436542 1.929779015809283 1.9797070109879775 -0.1314659039531865
Ni 0.4441891759020399 3.886920880797463 7.3696655620104385 -0.10237721411734628 -1.0383996612786504 -0.04372495169177631
Ni 4.436971821169591 0.8443132731222631 10.566321050991272 -0.016449403805274897 -0.5649610960348399 -2.0031521293847954
Ni 7.263018118405634 4.3772715388417405 7.520648161499619 0.48643677727569123 0.43381349465302066 -0.18456741176385633
Ni 6.911379489325891 4.486539486772071 9.914611540654612 2.3308772796174697 0.4942138501179489 0.05757162776688149
Ni 8.284750394113694 4.816845794153204 0.06440019224790203 -0.7923222059254548 -0.016354530098623445 -0.07314737071795145
Ni 7.46794627829122 7.726332726417544 1.2481447937594292 0.7232240655762125 -0.283132451223964 -0.0872699261622626
Ni 8.983079384645881 4.065351256404031 2.9667961814562482 -1.5599425382288554 -0.19928697736221807 -1.0985727312241207
Ni 9.313300702697537 6.777832922941764 12.756948403699543 -1.5332454885536433 -0.9966068936125803 0.2009934185303635
Ni 1.875648398735288 0.46391897657707565 5.826615349574501 0.7062316447832739 0.8529372485043504 -0.08051615237819681
Ni 3.9816273236108137 8.482086173899376 5.409368735442405 -2.220355839126434 0.032962056748317425 -1.5204874175570264
Ni 4.9200983862083625 3.8263801484336786 11.005102072560955 0.4966723389607705 -1.2260318280107594 2.4405150319519713
Ni 1.5937010198263024 4.357450138556047 3.575010041618584 2.4621421233034435 0.18235214928009238 -0.2950466861630467
Ni 8.809144000242739 9.331686727640962 2.5651252784395524 -0.2813997848035734 0.7967499026795053 -0.06869833380766233
Ni 0.49302121164160706 1.66326006437343 3.858095333216672 0.9283237929654657 0.764150114366613 -0.2258855537863529
Ni 4.4861428699011805 6.598486551228616 6.333604085352635 -0.682843861986953 -1.952246343673864 -0.22394719911305946
Ni 6.483307123270251 6.720805082863009 13.125364870743836 0.09459371351718547 0.13905040116866374 0.002805073548962911
Ni 2.230214438052557 6.8335764798195395 0.2556110743559742 2.1183673758070745 -1.1009980528361618 -0.4664132829659129
Ni 5.989084729105375 8.837983712711775 6.379089430162592 1.8164309045027298 -0.324473476064596 -0.023783218462526783
Ni 4.049033305144536 8.316489187043764 8.021319357119996 3.9071247256539356 3.198567518061278 0.0570095846158244
Ni 4.004687761675447 8.226494930386945 2.7182222235809315 -0.011947402169863295 2.0386598353731014 1.463683264083789
P 9.092536197752827 4.217897659555579 9.543320545622246 -0.18434089757534702 1.5098754463691353 -0.4728436119722889
P 1.4214559787538603 3.195740437200136 5.379141808251134 -1.0232988010814699 -1.0217494543164791 0.9957350325305883
P 5.236485330073007 6.571431614678586 3.5324549400238 2.2963723038620647 -0.639975344758201 2.074713900783182
P 8.727705336086558 2.2230281180823743 1.8703630067677308 0.11114853255207309 -0.8569080602266402 -0.2702833631754378
P 7.433213972311809 3.075697730943947 5.802069486895794 0.08028732419684237 3.796746495608984 0.15310893614425888
P 4.430182118070299 7.451902181537816 0.8460206143188583 0.6565273355796113 -1.0655463968967713 -2.1327892076593593
P 9.428007967714366 0.4017067874002529 9.489265443423403 0.6593946298250772 0.8789478136354992 -0.5806268275965548
P 2.5778585686469038 7.157319722313318 7.784853545717436 -4.282941332077198 -3.4502160397443484 -0.3750563312184702
Ni 2.41262042562686 0.5371268963363958 8.457197520925115 -0.3805255818631576 0.761214942997689 0.16117114432710308
Ni 5.551654093548486 6.017320073009246 10.743425593058006 0.4649590670178896 2.9611806485035452 -2.064994616612889
Ni 7.192873591811002 5.343014732942427 2.122461188838675 -0.7841044460013529 1.658263579998957 -0.3058057244517636
Ni 3.222096572596692 2.999094015309098 9.87750236642751 -0.194652049693368 -1.1369701000553967 -0.9380834434553909
Ni 8.67311385678613 8.412734881046523 7.478742756112388 -0.6804355096557765 -0.7098880105889387 0.08234137851239368
Ni 1.0519412607075522 2.7043038043903245 9.311429048797288 0.10948631435830176 -1.865460299126555 0.4946283119475481
Ni 7.770687713145464 1.3767043751550498 4.877875687324421 -0.30186370908488014 -2.9816507434324393 -1.1487573224983119
Ni 6.675439667440202 1.0208918256721253 1.0984615866853578 0.44201351396530975 -1.1706602932189902 0.6015491795715189
Ni 6.522921594065146 8.937940607435012 11.45643224079079 0.21141589941526817 0.120113969275477 -1.7640210234424458
Ni 5.811372041169943 2.7926549340105966 9.0261736963199 -1.210125184082832 -2.8075140400836034 0.0203569663897972
Ni 6.394937107132318 0.26243760616470596 8.61876695788942 -0.9452305960231333 -2.745045232125421 3.004040423981549
Ni 3.4392915257033896 3.6624074020969526 5.310077590466737 0.1747941344271764 0.1693130567079471 -1.6265749906464246
Ni 9.298776970615881 1.5476745762853439 11.461960324510295 0.5399195796851798 -0.8272778960650333 0.45290162163272324
Ni 2.8186144525362624 2.741821871724799 7.411474646157595 -2.1038745815075384 0.0284831950413574 0.3713359449440895
Ni 2.341578789443308 5.184660725609982 6.666886907917213 0.626346698231173 0.456062278748892 -0.4113330541623174
Ni 3.5494093669284856 6.013929943089016 2.522583397407132 -3.7531071616524776 -0.7827479319734584 0.6282094624715245
Ni 2.195482132073147 0.3459339564201021 11.054512035740963 -0.06969257940013159 1.86517439245502 -0.6932138923673674
Ni 6.182765967723565 6.904684218814906 7.872189525013405 1.2304422983736292 -0.2965240420395216 0.8138785919399918
Ni 4.531026679123622 5.526572798094078 12.53855982267664 -2.203216608342986 -0.709582820643694 2.502109150614684
Ni 9.28145803392033 1.1943644903925619 7.301817635963439 0.5707967288800105 0.8301274496986865 0.46689613613960235
Ni 3.4649960762406256 7.239221106152205 10.193468140948301 -0.3418829297902951 0.08316284597242452 -0.668745474912358
Ni 3.363537703363306 1.59509862213325 3.204519834935062 0.1586208671014236 -0.85244051137359 0.16312441139873196
Ni 6.45897184526347 8.798237036293251 3.0117007658481167 -1.6936586716687994 0.5273666827208336 -0.1968112621282159
Ni 6.82512476316604 1.7157173671781127 7.234923479058342 1.1631747834752224 0.8527019925650927 -2.1077224944987183
P 7.677690500180474 5.785421965903108 11.453791905621719 1.2288065625424192 0.7255051483009053 0.9265762141467397
P 4.394751010937415 1.2389933316265727 7.410299904759052 0.15500255362254595 -1.5942719076383447 0.6796996599310164
P 4.722186567634008 4.5652018328320185 8.892951033713667 -0.8194820541696984 1.4429609439347728 -0.3404109732304589
P 2.6229784593401124 6.661699725841496 11.98858820567869 -0.4230449432826069 -1.9791611657868364 -0.09506756782981046
P 2.1677850539226275 9.105813419668827 3.5785201009259646 -0.9405038799714254 0.02840066262988012 1.3018042950563837
P 6.108400304431599 3.894201633355953 13.651246734464603 -0.012904623876810035 1.04455745334993 -1.1024671811825206
P -0.20558352204843708 6.389167275986743 1.5910370765101545 -4.257113058160185 -4.351525251794183 -1.5580818308710327
P 7.915915590703199 6.48719774590851 6.262493513379619 0.8416501056263053 0.16605315500975273 1.5147523148454622
