# total energy = -340864.30421811854 ev
CRYSTAL
PRIMVEC
9.25768708817969 0.00000000000000 0.00000000000000
0.00000000000000 9.25768708817969 0.00000000000000
0.00000000000000 0.00000000000000 13.54956083490481
PRIMCOORD
 96 1
Ni 1.0039035747340737 2.65967791958365 0.35474252959390035 -2.257557644987712 -0.9444042434670961 -0.714531422898221
Ni 7.326403858304129 8.530930767306574 7.5400870115772705 -0.7266510889798905 1.2125415068338086 -1.8169690363943871
Ni 1.6403140076141842 0.9507274207938993 3.659451640161611 -0.7614918508081595 0.5744561800094687 -0.823352335758382
Ni 4.192260223959357 -0.00048325125969308976 1.9794684438925438 -0.5083330631281503 1.5905702904170413 -0.3622460668276794
Ni 4.030648782571191 4.951594224391284 7.540696167379719 -1.1582158968080505 -1.1411723110622025 -0.9990617829109762
Ni 4.967785918897094 7.713791769450822 3.5242134974058907 -0.055483377779285095 -1.4328598509450292 0.9304223273657073
Ni 5.161549307122694 4.029241614152162 9.526994006948039 -0.6064509877485104 2.3896894646596714 -1.8432230849949096
Ni 6.050916778697326 4.319201627654983 6.082560478520255 2.511615033222591 1.5701942978638508 0.30764817697714114
Ni 1.1820214719849367 1.897122244087102 6.346762829573957 0.11093307410715733 -1.404397738949594 -1.9898623542544245
Ni 7.503660790667032 0.2891018259209524 3.5519356410294725 0.05865380508746673 0.2405094743471148 0.4184161862613439
Ni 6.827109027096707 5.684247570983452 -0.28914348551230523 -0.021006941268970274 -1.9020468400013373 1.5261399878571136
Ni 7.047691934466577 7.688064657368693 10.644128350979168 -0.01070118846758802 -0.906228246618007 -0.6550065280597107
Ni 3.9844899553522306 2.8997204849587863 1.3998594751690028 -0.1385922305853226 -0.7387648415242889 -0.37183988116370154
Ni 2.138442370263726 4.219375989086581 5.199508600994717 1.3541977210564355 0.4111921577090789 1.0690790926403781
Ni 2.8483680953511703 1.8531574886793916 12.78055532279011 0.11331957206146291 -1.9885253806105558 0.3188941822046057
Ni 1.9158412871349837 6.981249515102261 9.640255326612085 -1.290961695914925 0.017403025967795836 -0.8120045148457306
Ni 1.919794319470021 7.883457398500539 4.308855236700328 0.8322031012807927 -1.754963798336184 0.8822413967851064
Ni 8.876066595134507 4.243158986905576 6.35261646504338 -0.42495553004175846 -2.2922410553025103 -0.22488256644313528
Ni 2.6676487880624955 5.765622639426025 11.371536292135662 0.7073534170925431 0.796431600108138 2.6333940489053167
Ni 5.731184043907666 9.178209724686296 9.457037369610937 -1.7193146816740068 0.5639383111972803 -1.3753599569563475
Ni 3.5054231701683607 5.3970278328229515 2.4572261921392373 0.31262968935213253 0.5917854153165357 -0.46708948309733106
Ni 0.5933483019517117 8.214216038468253 7.875560591517432 -0.16256828178494584 0.5428035861011942 -0.4803661456015791
Ni 4.503716586600251 6.634836126472842 -0.1975358956647759 0.1238225284753158 0.7445338827975823 3.5399516538382843
Ni 7.340021915833028 7.174698141970975 3.548277928908692 0.7442050387032538 -0.43055539272703913 0.15853216404235923
P 7.703182460186294 5.638764554913104 5.147830340805851 -3.4878451629510314 -1.1238885842810902 -1.3294238565458654
P 3.379250154491021 6.08471659381494 4.727279543404895 0.34719560025246016 0.31789505151612996 0.061790808054551644
P 1.014846160729423 5.262328487448729 7.62848403558454 1.3498620697955592 -0.18880896064902966 -0.9076683214986434
P 0.8771001105742612 6.184736643809655 12.561770258229291 -0.10953387976678554 0.04771530379809202 0.22493810227141905
P 5.507860861195474 2.0336546114808507 2.957015383830713 2.968783143441152 -1.21470843257814 -1.1466788427027284
P 0.570476260530299 3.0251343703048073 4.456653283364584 -1.259611463738418 -2.030648535032851 -0.19448904175294246
P 2.0264984194551277 2.1448301742711635 10.14635826081526 -0.5853093206738886 -0.3887399993531499 0.8412037621175061
P 8.737923390208447 1.005606989136057 13.719065374093265 0.09376530407861916 0.08225344678427769 -0.08797363709750655
Ni 8.080192504242643 6.433249992759872 7.944297065712245 -0.624037333371706 -0.9316492577942729 0.8728740966375934
Ni 4.966443554286835 4.419175389214861 3.931350832159925 1.2473753266835421 2.274462648273167 -0.11444134437073193
Ni 5.447093403942112 1.5028651292106727 13.195537621480238 -1.8125613942449945 0.5183243700129074 -0.12270281304857576
Ni 3.784570205293375 7.2427143681197315 8.342924734605937 2.6332068725951747 -0.5266370036436607 -1.0697300959608158
Ni 8.45113876333541 7.22135688428617 0.9568495291853751 0.28827979975285833 -0.1666769046366807 0.6061666237388722
Ni 8.833657131137302 2.1779726936140995 2.6212983267233123 0.27519519865475833 0.1708732021062154 -0.43153524014180517
Ni 7.114671299674997 1.2335775307058336 11.54251836427213 -0.3133038326010217 -0.953959234145383 0.3688160067357132
Ni 7.3141189076985205 3.5819286952661327 4.017864842638046 0.5617706141220002 -0.7065440338173703 0.41350357945107497
Ni 0.26447360128184266 1.5163258060611275 11.294940967474307 0.4853589708304802 1.1949204513179355 2.65639513778618
Ni 4.983940582655032 9.12407077130152 6.881632174490624 0.043182963145377236 -0.1481652189857384 0.027394847073185083
Ni 4.064643009115119 0.6704500220901778 10.969304605705599 -1.9098072006730464 1.764562754878529 -0.9592215109855867
Ni 9.145946685605251 8.62542397818181 5.560603755385579 -0.2850733770004187 1.668522538722804 -0.7074647458594268
Ni 1.7062472541952989 3.4710864092066434 2.5021972581202934 0.4102483057385709 -0.6178620577989294 0.8188385070484285
Ni 2.5602040731200053 4.415574148984582 0.19250989741022842 0.6264130326927341 1.417909400282784 -0.17992271390299336
Ni 6.937331048129388 1.2722468891682481 1.3141721761370622 -0.3594875302459357 -0.09772583138826395 1.5254190505306888
Ni 2.338649108618568 7.050876578783329 0.3476492898395547 -1.155721412520971 -1.3226441146198706 0.9116478749716816
Ni 0.18937617037179721 5.031478805232121 9.429315225987356 -0.13209042491106285 -0.3127273912722614 2.6780785362968844
Ni 3.676931078924571 0.07429849252476746 4.624790468296001 2.0854860516980214 1.7673953392313173 -0.7125236484395728
Ni 8.978040017079321 4.425952016074926 0.3403931147945845 1.4855674657513898 4.351477172165067 0.48682835628715515
Ni 6.192374235557678 3.8097233407835307 1.756348004524936 -1.044645385078046 -0.740674399842176 -0.8811581910232567
Ni 0.9343135418008754 9.138225774674524 10.061469900168598 0.9557415228567863 -0.3309068903947656 -0.8491831807785568
Ni 0.14080941877264166 5.092496220033599 3.920416578082847 0.9009353736501838 -0.23700171830417247 -0.5623419132444379
Ni 3.7623054681370167 2.593022573419086 3.7211022807516523 -3.40009366916666 -1.775198380215504 1.5146939508037012
Ni 2.7967564905084696 4.573001115863528 9.5482672458302 -1.7767616109375657 0.6310788135995197 -1.6052626023218937
P 2.2591996390651947 1.4566600135568757 1.3156228556848382 2.5748474588196752 0.6898208075254184 2.7436673779412875
P 2.4730151772619684 8.980122996646966 6.217893049683043 -1.0808125790272225 0.4664929871639127 2.128573626916115
P 4.800425453902235 3.928064353286534 13.168086728084798 0.05397568288550704 0.42611149802307263 0.7163085694033019
P 9.56013560052228 8.210198202324445 3.080939707343695 -2.488442451760869 0.823382417665369 -0.6110740883428185
P 8.998082909363527 1.00199649121881 7.780008301253135 -0.35860641319256303 0.5910487942608272 -0.4491825209099232
P 5.912755058397331 2.1149926491755537 9.83462324179665 -0.07076447230807167 -2.2468068342291114 -1.233068680252883
P 5.825677254782902 5.847442076843027 8.166143647353152 0.6148973187436507 0.49602596362602325 0.3065675423184527
P 4.393170546523714 3.279165300687535 5.724133389513369 -0.7426225247074824 1.5714219996233647 -0.8508520838405476
Ni 3.0404465845487225 0.1745148054831896 8.676054268205977 -0.37674965976049307 0.00227851162153156 -0.44613447811221874
Ni 7.821180938271508 5.172927004405507 2.264009933213404 0.334464782949353 1.3873407834673077 -0.6414565572894179
Ni 3.533473961679282 1.829207852494985 6.6531320932263185 -1.6014293446187322 -2.8920884216915743 0.5209260693018125
Ni 1.1265494116768717 3.8577337053959515 11.831950689617814 2.6407139796054975 0.4071403562372085 -0.6517900780049419
Ni 7.641313338183825 2.92645668492035 13.302538893216994 -1.5873114171601115 -1.5781580327956173 -1.012628208741501
Ni 5.883722952067877 2.314838337738671 7.4314193561864 -0.5746610969314232 -0.849651121553911 1.3689861922195197
Ni 3.5225036026230305 3.432768842848986 11.392985427070201 0.9529120238277912 0.5997828316997154 -0.6983126470465135
Ni 0.05954173949889035 6.42139089575476 5.96633207018319 1.809530577838471 1.97159389496254 0.09053728405962472
Ni 5.191933035749375 5.854061323024646 11.59063334074728 0.16517203795638005 -0.7244882770006168 -4.062599076706578
Ni 5.511962016521988 8.702188718514668 12.019083722437436 -2.419284147597653 0.05681160967240538 0.5222478734370296
Ni 6.022699348820993 3.4993501275178116 11.448999062065852 1.7329921791610992 0.03410696898603804 2.466146102256514
Ni 7.262803548838773 5.379354908402374 10.194418616937305 -0.3207672308576024 -0.3136308769231373 0.5145690167355331
Ni 5.1298324715727235 6.702889383369468 6.173139539345718 0.30191076027273167 0.48001107625500555 -0.6932663428718577
Ni 2.1639380401716717 6.834292992183332 6.7982620745065985 1.5930128384202629 -0.2641068020510806 -1.3667758148317621
Ni 7.988624722449073 0.24746630455421478 9.547657164259054 0.6900372944115987 -0.33870196095915217 -0.3011034338800879
Ni 9.31684358702162 8.473653458039884 12.694488458592511 -0.8644236518773952 -0.28495922002005764 -0.8343967664980017
Ni 1.3394114081160138 8.91789282485277 1.2650814394555574 -1.4671637664332216 -0.538950530903691 0.43162471453181794
Ni 8.003214837109539 1.9744609610119308 6.002292629438973 1.76840064056738 -0.14207067605222629 0.8942060253461502
Ni 6.049768825513381 1.7081265646496608 5.163074048166209 -2.5070904058793597 -0.8849515966274178 -1.6450622508173345
Ni 2.181759087583725 8.362477895249572 11.783212670809764 1.785393832691267 -0.21829565725423697 0.5582361186061806
Ni 7.1547478265564415 4.128548822250395 8.148204101547917 1.2318324938529366 -0.4540413916641212 -0.010283127093562936
Ni 8.124675690120522 2.4964556406631733 9.77734963560475 -0.13427149172278166 2.418461394586041 -1.08389893126203
Ni 3.5200225425157936 2.5420312336031943 8.779668152281399 1.1253605408409264 -0.49411409131529094 0.12211325909369292
Ni 1.0380551819564456 3.1200441770935727 8.19014049774109 0.13067528973109108 -0.05677741400036028 1.430292861548801
P 8.916328275755296 7.338374047552849 9.826805125152767 1.0981508131953541 -0.5365365221455599 -0.5924754994050248
P 6.386443127453201 8.500380400314482 5.24288086443652 -0.0488347621145159 0.6160761695431004 0.20868435941671803
P 3.9382848396984333 7.713375173537292 10.335143790758544 0.2978921260316418 0.45673925021125855 1.7154086617513813
P 8.46643246220539 3.989387271757933 11.502723271074492 -3.5988790243021116 -0.1084301051796455 -0.5302689439692931
P 3.663164898404195 8.749615848848148 13.47520030976933 0.8323529965950955 0.9159745273714935 -0.7641452292706066
P 5.649790460091158 6.070469013572264 2.1638917517368355 0.8868048477860728 -0.30715606783207106 -0.5137573194675151
P 1.4247209935196885 5.539633242867249 2.2012613309490408 -1.097815541343122 1.0926800198887696 -1.638308734143585
P 6.988720468484873 7.633703519496704 12.678418965554673 3.189466841311591 -0.9714998141323075 2.8959527897429864
