# total energy = -340857.9700281021 ev
CRYSTAL
PRIMVEC
9.39802543199404 0.00000000000000 0.00000000000000

0.00000000000000 9.39802543199404 0.00000000000000

0.00000000000000 0.00000000000000 13.75496018669252

PRIMCOORD
 96 1
Ni 2.587558303683017 5.205772965868972 1.376252462595152 1.9151754069634954 -0.33704051409632924 2.4013077656248902
Ni 4.474540811963969 4.703495504130916 0.011544534268856346 0.46327422311629896 -2.0010014015903796 0.4405950363512283
Ni 2.4819432954500247 1.2007574974999746 0.9659694510342001 0.7027231174093833 -1.0759920177101274 -1.7235721713987802
Ni 3.0719043331636824 7.41761701442309 0.20920192260794207 -0.47967477596150937 0.38887241116595606 2.39309720478964
Ni 6.532059887195969 5.3057303628761 9.273621751736114 -0.9524327701985275 -0.1486601563442859 0.6480609499798129
Ni 1.5902398596818483 9.351260718279484 6.677221785858257 0.6303087682027145 0.6401242116312396 0.7146229541707627
Ni 5.457781014077521 5.121613649377919 2.3378753269317403 -1.2974290488068236 -0.9253228013556128 0.17133214402050495
Ni 5.267781136746467 3.7306495179904626 5.696217373961703 -0.9469208392413627 -1.266573753988864 1.1349965212687936
Ni 6.185930615686706 5.509958850499444 4.793273899944135 1.2315797544121823 1.1515438841045134 0.6757039085080621
Ni 1.951067642748008 7.00647220394285 7.414253461171036 -1.3453983775972507 0.2300754234979844 0.556505509068319
Ni 0.010443085704618342 2.7263201471213625 10.782361936084582 0.03861796948251414 0.8828317220709377 0.18075086623124356
Ni 4.98847182506427 0.3936466271888178 0.43945824127785005 -0.26778167979950657 1.0800805859572045 -0.921658208019832
Ni 5.604061277749574 2.339854551058264 12.981023374561426 3.3633549189847303 -0.8050000585034395 2.2571673515278285
Ni 3.914080175642317 4.888392253728344 7.433772219900266 1.0781000651920658 0.9980899059160102 0.1205204606852763
Ni 5.74780407459275 0.34669221322426225 2.7174296151950044 0.3779866174913878 0.5586081572336187 0.9048370226974352
Ni 3.585327852898208 8.111971317081762 9.669420526716829 2.7978441210940073 3.529271034195986 0.8329487211975656
Ni 5.43556408228692 7.4154554686058995 8.09626533721355 0.7328690448651443 -0.178070491185603 0.4498296675756188
Ni 7.334491480714173 9.358948302968448 7.453001519450501 -2.7892468663432997 -0.365568446332693 0.4524408799462208
Ni 6.57114627438595 7.730965973713394 13.075355113628683 0.721943656201892 0.18373668833244486 -0.5373952706014293
Ni 0.9686732629107467 2.6475552971479948 5.866242688336858 -1.3128261000881842 -0.01804348776527215 4.646998741082004
Ni 2.657066098743633 6.902718004717699 11.902689253529424 -1.676650310036261 -0.6835763692776033 -2.203094223832509
Ni 8.454585727131768 4.178418433034146 5.161933997288758 0.41211595507492893 1.0540851903347073 0.7973505123779817
Ni 9.432328084449423 4.449250725902838 12.764327466585536 -0.2841225830513752 1.5508408330379033 -2.296261489315813
Ni 3.2209194221957453 3.6177604381813593 9.421129397511319 0.310539125371691 0.11672422686763768 1.509105658082646
P 6.0978993127752945 7.7293401153378545 5.832501897933042 -0.3205700272451318 -0.9678817577637461 0.3151784239159153
P 2.231664483895227 9.339381614310227 12.87432571381478 -0.273051155728562 -0.42442742545243034 -0.008329860021934043
P 8.22698435060689 9.007095634056276 9.93398339691314 -0.10244072036543 0.27038312197809566 0.7361389738656676
P 2.420480210039474 3.350001299583194 4.849256057004314 3.471244321169557 4.21182924662172 -1.984874157011214
P 7.843582510789024 3.431820507776505 13.407345056085932 -2.0572103446817795 -1.443522729975514 1.2086560557364732
P 8.508614974536242 3.1567027153745997 3.197987300680411 0.7939160327751359 0.8102646493364883 -1.4500875276772254
P 0.5375444914493144 -0.050351800107661715 4.467762016320753 -0.44052098858018324 -0.3702378267839043 -0.23413725227218388
P 5.483578593504427 3.073934306626783 3.632492782629307 -0.026459222632793142 0.03230025479460243 -0.2774965930944253
Ni 4.614674767094966 3.2323850130521476 11.453741826114106 -1.3861938143470578 1.9898435852013474 -2.949097492086766
Ni 1.4388752643267517 7.809364300700367 9.627894412161009 -1.9633964467534122 -0.1930052581185644 0.4619285077216818
Ni 2.1108434707395634 7.8409510637072275 4.954481986990212 -0.2326663241536122 0.025704346744639603 -1.402251639140869
Ni 7.54890742775419 0.3521289708557612 12.079179469503037 0.6230032356802367 0.2965896051701344 -0.2870742094805314
Ni 7.089776300132318 5.688728087606402 11.787492018708571 -0.7793664170957352 -0.5631600382703592 -0.05631975763765139
Ni 5.093306797198014 0.7067850707125771 8.478722675489553 0.7387578995457534 -0.38909918246478153 0.00044557217785084547
Ni 9.142662148895296 6.941560043250086 4.536592213757808 0.23940621398060707 -1.0106057789948335 -0.34840016208352254
Ni 1.0795605633326257 9.314880962373635 2.1565441881301486 -0.3620077255646281 -0.8209172439543282 1.960608342485314
Ni 1.7607952226834804 3.274459972285028 13.657299635768151 1.622183032226316 -0.0956496655855256 -0.3041951854315342
Ni 3.8789785511762 4.914171037104665 3.8172213075740054 -1.9832952425598684 -0.06449072348421796 1.2910108039853057
Ni 3.905321216070049 7.210851059970869 6.345713022295966 1.2520668186219406 0.624709419738066 -1.39435578133256
Ni 7.5869412361114525 8.724102296459563 4.573345071267752 -0.13652429231270036 0.5696800987770642 0.7470479074686877
Ni 5.22017074061652 7.7940925096006515 1.159097930985007 -0.00772667922029637 -2.3603572913544575 1.2823441294492433
Ni 7.7119631665727 1.6869079478367295 9.370607493145869 0.3272952617841073 -0.7743627932335567 -2.0646354335012576
Ni 3.8188969754835926 1.871870483611202 4.736465656460778 1.5016684850783104 -0.3873870848696812 0.4951088511283925
Ni 4.138006924277973 8.575726273147364 12.114474693290173 1.669826088025576 1.4745083797237508 -0.532627931119773
Ni 0.9798945051095537 2.0036120021563244 8.745651028651896 1.4299663314473179 -0.32867980083645976 -0.1522332184075249
Ni 8.303117753498459 0.8592013050978631 2.9287197790228587 0.1940470691195174 -0.6438741655919751 -0.11151362920097571
Ni 7.092050622253014 5.134413759825804 0.958792179118598 2.240301943231058 0.5066654456177402 -2.3854988236170915
Ni 5.6077359056387985 3.2966111178985855 8.328407839559588 -0.41381082627884863 -0.8580455162651931 0.4983494695528773
Ni 3.3406314683669374 2.45240530195685 7.39740374162477 0.11019850993397795 -0.7144010679679439 -0.7659848535825066
Ni 1.109653040318036 6.901796998239071 1.821486730217547 -0.7664705349696735 0.712479939685831 0.29168805410345894
Ni 1.7777398622851965 0.5630356952516963 10.677618124796172 0.7412300152353298 0.38334659625172046 -0.0549681287057634
Ni 3.332502176489242 0.3095042271432914 3.1212890764687837 -0.09770166301854787 -1.5742723245879662 -0.3315833476364999
P 4.726849596981867 -0.2586486928799714 5.171589528473896 -1.890517499205499 1.7806532326824882 -1.152428343591996
P 2.4107626518874086 3.2393395517683263 11.451018278384446 -0.6489932319860953 -0.5994107930722774 -0.1878237139176249
P 3.1715891874373385 6.263032015183366 9.129703211819974 -1.130208355851531 -3.2606555456412747 -1.045599007240567
P 4.3814533714453905 2.404465974941679 0.9414490632444955 -1.2601547378363975 0.7575837740030049 0.6719704096075589
P 8.871914438254233 2.6016553416212167 7.44337324253871 -1.6154287442216178 2.0452151199931166 1.375337074138212
P 6.4291139181459425 4.951171062679793 7.1386732859247575 -0.4864257215320978 -0.04331306096533831 -0.128977590313694
P 3.0717821588348846 0.8297121813362077 8.882128212141723 -1.444008668472997 -0.0012058473826430847 -0.2427674171433561
P 8.761750785779848 6.830964081612263 0.4801281957295562 -0.5166791211000006 -0.17754367214785555 -0.7043151444868515
Ni 1.0047146899060775 2.233478302776609 3.7541549190486165 -1.0585979906033962 -2.3284378169380413 -1.9294884811520576
Ni 1.6874624313289655 4.536332828259744 8.018605695014537 -1.3181786226493493 0.19343257546397008 -0.4942403324805101
Ni 0.2419418233181463 4.442944650931817 1.546744858827327 -1.1167992815344767 0.09138626232348132 -0.5620835173767287
Ni 7.347291591162058 2.1320830078997846 4.664059510400068 -1.2120342281800869 -0.08422136914392592 -0.03569076853339015
Ni 6.072430664233614 1.703448472350884 6.537237259329404 -0.4321651604163202 -0.7162332360806761 0.0171428303278737
Ni 1.1638420541524757 5.072659335631198 3.552108652898105 0.15895331074017785 -0.6871003232704618 0.587573177007401
Ni 2.5704726937019187 2.998834686517347 2.3132402832334718 1.4422934855541032 1.0369341324767176 0.426324128254511
Ni 6.2562372428971535 8.060968233821356 10.425641090071085 -0.6308659262577652 0.022805685040605882 0.557457331458627
Ni 8.880250486688356 0.981323004953958 6.230941518020847 -0.7225478654447943 -1.9162856093085385 -1.595362569599362
Ni 7.613349687182347 8.003922220298108 2.0991448088559164 1.106112748354908 0.931595521738202 -1.0808300625287193
Ni 5.555341914635156 0.9543506723655358 10.836144015423873 -1.6864292437998956 -1.1797380871505425 -0.5086133133727305
Ni 0.23124311132558192 2.0298700848225444 1.4369947194657962 0.006477380194227554 0.6398987258839948 -1.4443927912852932
Ni 5.6240696735965265 7.342179065403138 3.4501428978860478 -1.9446500193838443 1.8997541873124186 0.9784883296349988
Ni 4.650772582242049 6.011747614922309 10.741179789254454 0.4291258593693642 -0.615089894370431 -1.310272480428395
Ni 1.1459200199203778 5.668071228014293 10.553863987946832 1.6570070818840366 -0.3905852800920047 -0.21819769822379198
Ni 9.119730967182491 8.338717473305058 8.084133426363936 2.713670060248249 0.24596895479978928 -0.6402993037565231
Ni 8.11702745468893 6.928102071031752 9.518363246788786 0.8554659284634751 -0.34872309264058005 1.1433459216747535
Ni 7.641694131463421 6.878959796779188 6.890753378718284 0.9025983631749037 -1.097563059012684 0.12383512688080607
Ni 8.667216049366282 5.0538162949204715 8.324790539624647 0.0027302544469694915 -1.8130583884860711 -1.1389274808920835
Ni 7.0207478043616 2.394165739221501 1.4568019975714959 -0.5815477967489274 0.7280209727442236 0.09113583687557207
Ni 2.178716009399349 5.485317228183472 5.637965593793474 0.4859840060089888 -0.9584064712834591 -0.008618080686314191
Ni 0.04384836660550558 9.005845696692422 0.021064733889787215 -0.6010732683763649 -1.0854827308093822 0.7483337161596467
Ni 0.6083586120255375 1.3827126651809645 12.551098490139914 0.41307189123029503 1.2326282502813546 0.6138218262912848
Ni 8.845797325967395 7.267051251217825 11.965494376951689 0.43896135740254716 0.30107078086993955 0.11361756291785595
P 6.819667655211119 2.5410286804616655 11.008589321311753 0.09631660974556315 1.8502087722841232 1.3556555365488847
P 3.4486617691000077 7.235878001323819 2.4363609931781207 -0.32539804476139444 -0.26161386042589785 0.522632510469958
P 1.7447245994339329 5.5264335888365546 13.356450989918914 0.3753882606365922 0.9238752702758088 -1.3795331144974305
P 7.274015187959296 0.33220045822379296 0.6566259301234041 0.053644267688017284 -0.17844021582019592 -0.02485742536331203
P 8.71311600489306 4.863327720274225 10.5385273504726 -2.432978871475926 -0.3889891392494785 -0.007955764511966943
P 4.785737623462373 6.449159906094062 12.76593734831808 0.9944733922093453 1.7035895576292661 0.5939024616595384
P 0.2300138496173709 5.727419757734114 6.51265672417783 0.20051673600426112 0.6743268256548773 -0.7576760766064952
P 7.249204401188064 6.147821623127106 2.9633552614344865 1.6932429242876195 -1.4108131555576349 0.8793473630667631
