# total energy = -340860.10594268463 ev
CRYSTAL
PRIMVEC
9.35814462243979 0.00000000000000 0.00000000000000

0.00000000000000 9.35814462243979 0.00000000000000

0.00000000000000 0.00000000000000 13.69659059069311

PRIMCOORD
 96 1
Ni 5.683734496812706 5.76001273166226 12.170296713556136 1.2328797041705284 -0.12001626735534814 0.8583046834638509
Ni 3.122110919112053 7.21033794783007 9.145692979821941 -0.1511844654280364 0.3150580962879671 1.4176186085152425
Ni 7.180522899832196 3.9393763841937877 5.403824911861408 -3.1203080229277425 -1.7914258978179598 2.2380756250037006
Ni 2.7352826629789218 0.190796655083199 9.895211094471845 0.20534552485147214 1.3002683180278318 -0.326409002524412
Ni 3.9861858223875632 8.528834984102696 11.56179834821244 -0.41457572946933113 -0.4124075181734188 -0.8382328524146401
Ni 6.166755119038164 1.5702779108435045 7.632247079804267 -0.004722345176333803 -0.03727379674979387 -0.7613080169321276
Ni 5.496702623213984 8.756097520395349 6.292254385888478 0.521682744962179 0.1005339902610204 0.6070425985859222
Ni 5.569237600311137 9.170214125543483 9.834220324283098 -0.42586955721559555 -0.1651167592384124 -1.572222641147789
Ni 2.366684072099984 2.835817208064035 10.409874410292788 -1.1432353642388182 -0.07851223457429059 0.30979144857238905
Ni 4.53889654581835 3.700696911756312 3.079075620547135 -0.4938909195608913 -0.24603760325419566 -0.4091802694853728
Ni 2.7717794260648323 6.44807965541987 7.000847463531381 -1.7177424520908802 0.12682943362243965 0.024288954454351717
Ni 8.420757774646495 8.749631042628074 3.920005025325112 -0.7248721427025968 -0.9252862916907226 -0.25426101960525244
Ni 5.474551895464151 1.9225558979219735 4.396098749079752 -1.0107389621385883 -0.8788645098930735 0.8230898261256148
Ni 4.696590636782627 5.784624651384297 6.159932095969975 0.537262601678307 -1.7948495787875283 -1.4326708748626744
Ni 1.7071969212819564 4.742183516206873 8.998700862771779 0.33974634306326645 1.0351785832381915 -0.5779510805366046
Ni 0.6063459921360655 3.051681524500626 4.7897659371265195 0.35417563111471906 -0.19280214096882278 0.8736382284971277
Ni 0.3399130709078497 7.681885485044419 6.492266005743651 0.07177825828456671 -0.9057212250746015 0.11945088177018136
Ni 6.529036962459925 8.200120804575592 12.22253574711977 -0.4414514708142527 1.2909221009262413 -2.3781873775573428
Ni 5.830030367920923 5.65624026862132 2.8630531514705053 1.488904757654739 -0.014913683887038832 -0.08303454792467635
Ni 5.438644695474243 3.530023074535583 12.523011725977197 -1.1983726715325942 -0.2816203854548117 -0.12255523172711798
Ni 8.485366403452938 2.3972945623702446 7.143689243548568 -0.2709330809442947 0.42307425385864555 0.4896308587329567
Ni 0.5073733213481421 1.3004077431841463 13.151041474458482 0.44484609831809835 0.4058092961306108 1.9047948350601198
Ni 2.1193015253881757 3.9478642211473574 0.15434668271919316 -0.16223403837397868 -0.6099561726882915 1.0755094216467542
Ni 1.2831793993787202 6.154383652166478 4.954070621281538 -1.9474676913382976 0.2766645841114332 -0.3068483067836651
P 3.8412655985033544 0.1642803529796276 3.9200873769956646 -0.6406911398783031 0.060365902682567 -0.15551600292385476
P 4.4077702267517385 4.772728499466466 0.4392525809555085 0.16987252875584294 -0.23164559619858172 -1.7405003146126865
P 0.8222804946555142 6.90217425336365 8.602513526443207 1.064745755372347 0.28038805570960745 -0.42036276846475346
P 1.069710767903666 4.1169939645452205 6.752884711867949 0.07093210823418751 1.3036295211905806 -0.5985031936563435
P 0.9257516254473859 0.5290898311986971 1.8377261907370592 -1.9604579329503786 0.770964309074969 -0.6451049526752826
P 3.3793756662902 6.398968113708367 4.266487513588425 0.5120845597507826 0.5782336447740299 0.23257762109454783
P 9.648527601145297 1.743431656325199 8.9999614048199 0.3841888896473577 -0.8884518964711925 0.3873834853252554
P 5.157563470846444 3.1982113492183672 5.87163199876667 -1.0890668486162147 1.8653415141605036 3.0564053107365106
Ni 7.310208064664132 6.829845155442878 7.051018347186812 -0.06234462367549262 1.2676574739713458 0.45961785731063426
Ni 6.92915378361408 5.5670477945259815 9.81359310243849 -0.47541265825104584 1.0370968833068268 -1.1818183667183388
Ni 4.343685654030631 4.5694134546448 9.948422439236664 0.4867116282036328 -0.8167613128044254 -1.5599685063707842
Ni 3.073036809978074 0.1507952669266026 1.627963384436882 -0.7827484461940907 1.4870941868085614 0.3397725683155116
Ni 1.9870335127070824 9.11371900791537 7.620974259082911 -3.5408942202572113 -0.5662085952886958 0.26501157325353714
Ni 1.406370012010241 4.488905338535033 2.672122674922658 0.688604161509498 0.36904714890991286 0.4407719282487248
Ni 4.228075138347723 2.3710823999590556 8.688034800497876 0.11489488696838276 -1.269831084583897 0.3539612011110678
Ni 1.1427136522198684 0.3358104604112181 3.9314416135731354 1.2485114971705142 0.5094908308816773 -1.1749332095627314
Ni 3.127810029040083 5.015460048420916 12.045493692647767 0.2193737208097641 -0.48027898520441153 -0.38097603913701483
Ni 3.517015253845989 3.8751701555957276 7.222212497235125 -0.13530636074519922 1.406882710154977 -1.2050775943565957
Ni 1.5433545294593598 6.712765411092152 12.642528331124735 1.4551741981715132 -1.104155367518221 3.0300178218819167
Ni 8.62312764688568 2.5760351200473974 11.630720145764087 0.15146702966546172 -0.7474016912636806 -0.9106137772802124
Ni 4.693970356355947 7.99638464325678 1.907661475325169 1.0080583299826318 -0.17405879892304862 0.8595113021774423
Ni 9.577873611068725 8.512186845248891 12.151286579060566 -4.1194266272185835 -0.29055214072680285 0.6237138885940161
Ni 6.190711968653532 6.926889112673877 4.978628263766166 1.513432310482458 -0.7629645786989441 -1.345284991947838
Ni 9.02133540658611 6.423589391574787 2.9784877340390508 -0.4980802750518905 0.9385490702378997 -0.31283434916377095
Ni 8.240295318403236 4.819856114569196 7.271917345300383 2.0799720638583277 -0.34847858072994176 0.6425981270930288
Ni 8.233454514860723 9.185851584804139 7.460245321895874 -0.09541158143279051 -1.446302606713496 5.131177318451138
Ni 8.88797249101244 3.7477777361371363 9.29184941457888 -0.3993218886340542 -0.08588435866864565 1.1101097853294428
Ni 3.4608663875599723 1.2724081751961862 6.535259192658853 1.3793330826714825 1.7296757131933567 -2.5479434353399792
Ni 3.6398502569910316 5.786758308303165 2.084429336166807 -0.7848852900314354 0.19559127367818574 0.22944807432663067
Ni 9.507687528211205 7.991658780344374 1.1245457507185896 -0.36522314717813226 -0.08457181050480919 -0.7312785604495727
Ni 6.810062038221439 8.035876012544612 0.6908893401029208 0.4895742944634085 0.783611051304702 0.03683028145447205
Ni 7.851221107618666 4.869688233398036 11.766357090422341 1.5160676912227762 -0.6276654170425965 -0.22011702673369188
P 3.068554258819574 2.4316015196710006 1.650754209262376 0.18408121615605716 0.9744774087033927 0.1917994107359213
P 1.9168006391276566 0.060850398023032486 11.979681606473928 2.191708864813703 1.1645045580302398 -1.6762381621995066
P 3.9357360660295773 9.063980470530339 7.698620654640967 3.055774362020731 -1.9493641370300623 2.8202448573867103
P 2.446874011300797 7.548120169262367 0.5728447710665137 -1.6237007544224231 0.18500989861791362 3.266696609629032
P 0.751325172329875 4.30214485112336 11.336353163558577 0.556551531814906 0.4094911158575722 -0.10700648535924151
P 0.4714726720593011 5.301295210394266 0.9284832677922005 -0.06459793848604359 0.9378001078870172 0.2873989398098018
P 7.194298088361031 7.8506783352445675 9.17718126403514 -0.0077986701088123755 0.003723471598174233 0.008446330995140292
P 7.614104445292816 0.336929694479186 5.755923222567762 -3.2793425805278167 0.9848109294189169 -3.8498516029640792
Ni 1.8433392057367848 7.266477455971707 2.6713693442999875 0.715087038291375 0.8767844874355932 0.7500044189938503
Ni 8.796206527212325 3.6995365018530673 -0.0009161623349001721 1.698094853063282 -0.27219497837585377 0.20788037545818394
Ni 0.5476919505992545 6.66440252093113 10.87468221192394 -2.1405719369285716 -1.9361859477768912 -4.265243914797436
Ni 5.308819158476591 1.5109753499010898 2.231201536824017 -0.2729897063630073 -0.24431033615044376 -2.0007532901353153
Ni 2.5474085563859097 8.419831318352776 5.350641641529731 0.6241903140098024 -0.5713651997889708 -0.24533749186337747
Ni 0.41390979015731494 8.887860193279867 9.666670235656747 0.32309073678445643 -0.7803174681550948 -0.19486313726290955
Ni 3.046319307770311 1.524282631210876 13.138713990865389 0.7239043794726887 0.5796132987303759 0.04277672884589407
Ni 6.89713957168667 2.440164221779618 0.22352863668463244 -1.4500757006026832 1.1071663864304027 0.0843182997331064
Ni 2.838924111998528 2.110036962450983 3.9920627370588333 -0.01776452307227263 0.0006396904665279305 -0.6031856867336772
Ni 7.656169304285424 0.9365630896507583 1.829426452485548 0.8890208816007851 -1.1646619095437103 -0.0787793721927482
Ni 1.7475492398528403 2.3372620661661117 7.569708472534901 -0.41348712439084273 -0.6619289662111567 1.0921061496631708
Ni 5.302670857618272 6.7630654371400425 8.10923076308954 -0.49717498962880186 0.768948821306837 1.4939950276934526
Ni 0.08934688347762405 2.6169582854255222 2.4873011950267294 -0.34709609856011836 -1.435266917724625 -0.8632067487511587
Ni 5.853042044953808 -0.39968073162600015 3.960889822311275 1.3379087540884247 0.8098507017275214 -0.5887731108527731
Ni 0.28428077419166436 0.7954235560964744 5.948415573412799 2.1773582525189856 0.18479418306268175 -0.5713356321026161
Ni 4.207543369575803 7.182722063761732 13.42250814154924 1.5640863851939 -2.6792599581994954 -0.3167506534990416
Ni 5.534706047545236 1.156966106112136 11.80610487286621 1.4415085277589625 -0.7300292614235041 1.3639933669906186
Ni 8.335870046966418 4.45397138556075 3.745990330560365 0.6682060574691202 -1.6546722631032729 -3.6500928281717653
Ni 2.685637707037702 4.455431256084186 4.758099848170083 1.4578843980138247 -1.6072541788306254 1.0582776311495
Ni 6.053568362749936 4.237442640873107 7.941584285576066 -0.6628689615269229 -0.7146406947825756 -0.46801328046318114
Ni 7.736518331940713 1.7743603235044132 4.191622358540403 1.3251995340518725 0.6265377311960565 -0.4483759658482278
Ni 7.848853497090271 0.8617727997577841 9.542497017865221 -1.9354963779090346 0.6025639939892784 1.2797773971633315
Ni 6.7503009282043545 3.182704903979046 10.429186812851862 -1.6681103908860497 -0.44929076435301335 -1.1647686103249038
Ni 6.860165543237327 4.923591145032612 0.3945056777833056 -1.2282329494271362 -0.24851743225325584 1.2058173007360975
P 4.555722489415393 -0.09816693455671917 -0.17752119146430845 1.281827851934457 1.117108071024147 0.7048633036808377
P 8.209478948956594 5.809779343480432 5.307729870470642 0.762218444561539 2.6077817476538505 0.34187675914270804
P 6.8955861197194235 7.548475778748844 2.6406063162763163 0.986116792714534 -0.42629121813404647 1.9257135874906575
P 7.697504228016313 0.8603578483273764 13.001516107724383 0.8333981500301584 -2.8163761184599236 -1.1835772583909745
P 7.5546895866178305 6.515374071663661 12.99562609165098 1.9029647238299163 2.0252368770989766 -0.49537136076115984
P 6.733194240275881 3.5485428422655874 2.0303692077066304 -0.22855050221302575 -0.8666078040129076 2.6040477345327155
P 4.445371250874608 2.528636118757618 10.766724786715814 -0.07986000685143665 0.6104433967373551 0.3552860905700784
P 4.374717260798037 6.394429413683581 10.877722673033325 -2.3552125139287248 3.1533081320028464 -2.060244760632729
