# total energy = -340896.17508670065 ev
CRYSTAL
PRIMVEC
9.02372785684254 0.00000000000000 0.00000000000000

0.00000000000000 9.02372785684254 0.00000000000000

0.00000000000000 0.00000000000000 13.20713785088564

PRIMCOORD
 96 1
Ni 6.310157403100937 2.035229585948778 11.30516425028464 0.23633066037907682 -0.06257293763621481 0.21087005421412716
Ni 4.441289260460064 0.32317578274188197 6.053293385508353 0.9124094357280543 0.620972321293137 -1.1388416060464968
Ni 2.6282689683633786 1.4355397162420365 4.859077925439907 0.4265809814603234 1.1100704474510752 -0.07181013996376664
Ni 3.243371364928978 4.276091878021475 4.7830042916981546 -0.025696119214523486 -0.03601601308329281 -0.20892964265830472
Ni 4.828894458759466 4.7007214309472785 2.5661730887810923 0.6150402720794181 -0.4810202342458103 -0.30687504625654244
Ni 7.3328164598423635 6.102160480327709 2.7060372581613925 -0.012360321337565811 -0.5288183275656957 -0.1728642643943152
Ni 5.103044329075017 4.519561074262016 11.675294097580025 -0.44675102865029515 0.13787694968585285 0.15243659266758267
Ni 5.751417209556664 7.838740775339275 12.484653889169849 -1.0643549476918315 0.014827037710503496 -0.26509461988564664
Ni 1.8037980424188444 6.446514951909017 0.4348209509553086 0.9442111536196837 0.7410785772591302 -0.18385418774691561
Ni 2.633222994853725 1.730155400911152 0.14696945254696575 0.3401525773627497 -0.9729884828626921 0.7046488736771865
Ni 0.5371978484797816 8.9496518886847 4.757197332937237 -0.553142506133357 -0.4728361557731212 0.08778568945641656
Ni 8.651372570581923 2.4232318282656222 1.2080407132303053 -0.2588339836879155 -0.4199840449690961 0.245644481580835
Ni 6.8148003492688325 0.804039401756111 4.88395995211474 -0.764789804833141 -1.0864366100822194 -1.0758084409444115
Ni 0.767370581999873 7.214876339206959 2.554511725514288 0.02944478762367832 0.02778462631243602 0.25398822555984
Ni 7.469543981484878 3.711576498768965 3.795915867055633 1.0859558137910588 -0.05105722368713143 0.18580488371538326
Ni 7.3262020674608985 3.8200868239901387 12.666635405073002 1.212694487471905 -0.36655343595378165 -0.3550922293917175
Ni 7.841835913929783 8.871091315597338 6.893214737967956 0.9424262938051189 -0.3315604648183645 -0.5596777361487135
Ni 6.797501863327128 0.7447607299521246 0.26349284793831895 0.3621738188288472 -0.058945368185956554 0.1813951846834618
Ni 2.000822112346422 6.349780591296044 9.209706696381085 -0.1935462182236989 0.6703696407793422 -0.317821260855401
Ni 0.10095295329828571 4.894803765654722 1.330222888242964 -0.6616785407632476 -0.7322409243628422 0.9268456657580425
Ni 6.304201742839317 1.988865673184837 6.844400883141848 0.7220788962281757 -0.24906147768218395 1.8181057211019913
Ni 3.4675478314129387 4.132903367367871 0.3707912865335302 -0.7222897266874011 0.9332338286725734 0.09840100307841762
Ni 5.925918055222116 5.37285378638172 4.68148103881118 -0.22001392549692428 1.4036243511186794 1.000941259321876
Ni 5.353660317629501 2.7966607503968364 9.232753296848019 -0.683755575167945 0.25317061475455105 -0.40264143992559037
P 0.12702611202544253 5.567215856646906 12.546304898978047 0.36677403660501995 0.39056393993576605 -1.5670045872819591
P 4.068600283997718 6.130504008936416 12.836413231676438 -0.5872543602154016 0.13114271628581284 -0.06597322156701542
P 2.3263079693715984 8.481365541295691 1.4592035396815382 -0.48344298475468994 0.0808622228637059 -1.7393780280827849
P 6.446650307824053 7.597401178828647 5.599152633613459 -0.16765443805860158 0.27248705569497583 -0.08890900442758236
P 4.747942597839787 1.0542601510386875 12.424073093463209 -0.6130273554144475 -0.5413704531990934 0.8804711922585611
P 3.9743113535830776 6.24743347207288 8.246998579154994 0.30452942884250134 0.40402315076446543 0.3087586364325005
P 4.7285957257171916 1.2394089953537022 3.777294502637636 -0.08944533654702659 -0.6377233154992307 0.27285086679229786
P 0.383402848323893 5.237452752706567 3.548229882875312 -0.7803516638271399 0.3260415918826643 0.8074022401870288
Ni 1.3826245771903138 1.0717661827167813 2.512882562658334 0.13700585993480918 -0.2425599291182403 -0.8618903439325802
Ni 1.829208859535088 6.506477622270323 4.7994734970670665 0.9481166593216768 -0.3607221739839852 -0.20025731169528738
Ni 5.950173835196712 5.730193402078892 9.157142580335691 0.19797571474996228 1.012603783261469 0.7468123944191138
Ni 8.49020879441143 2.4464859744689456 10.175505440333849 0.586221805185829 -0.14736174924783652 -0.010505270406698037
Ni 2.5205798023600945 5.165181717804581 6.964612276031571 -0.43347410903573086 0.2746069302514561 0.410348578761861
Ni 0.7720214112405376 -0.045156538001812865 9.065405560105878 -0.6438908777625233 0.029106687557969226 0.04001613538162141
Ni 1.5776453795753462 1.072776840215723 11.157521627653558 -0.5200007292740657 0.37651311826965483 0.3362380727996919
Ni 3.9274872307080115 7.022084397556199 1.7883124233658667 0.8906725582715952 -0.5743636202956623 -0.9379811135495717
Ni 5.885906846737236 7.905444170269414 7.761662800707948 -1.7231538529144388 -0.5762744641651302 0.10186736436046327
Ni 5.20170976740918 2.99710481311101 5.079332679878869 -0.2745742772413078 -0.21011080745059943 -1.202257608409297
Ni 0.8605712508576172 7.418072638860215 6.8382864052732515 -0.5970163246981718 0.08831662225922209 0.7826224621391877
Ni 5.082876297734532 4.7471665572602415 7.188486447638615 0.45567352795090554 -0.8506096288124383 -1.130176731282647
Ni 8.058026381426572 7.4000883496156575 8.887915153463645 0.19298366085200958 -0.6756008072712945 0.9047161808488547
Ni 4.625219901539747 0.23972886112169006 10.337160107289542 -0.35832770560987964 -0.5239571428186525 0.06710990627461991
Ni 8.354329503169813 6.778651296226335 4.781115625497008 -0.4625268034273131 0.5080893225484604 0.4440984215187964
Ni 7.284503421901893 6.037676922404174 7.031070225569109 0.5506063699750646 -0.8379690572302924 -0.8263291589985189
Ni 2.342875533372104 5.158522206784769 2.5701615764108436 -0.04092090658407791 -0.29002197925494566 -0.15264665179585968
Ni 2.207663997978002 5.205806539770961 11.475536740541472 0.9798132190940093 0.16337535106727347 0.011837616064876388
Ni 1.1021580975063792 3.007076032185388 3.7224185075634133 -0.8944399957338274 2.030024785405923 0.94069285605378
Ni 3.368304874507951 2.6951528378468996 2.748788070366618 1.1195531901305302 -0.16123079392044493 0.0055602676965968755
Ni 1.0967077659942306 3.5208329432990952 8.300065316831557 -0.47056715723328635 -0.057846478694822956 -1.205720370146917
Ni 3.7553686491472065 2.8374840943719373 7.271572420152043 -0.11489025898269245 -0.5470708460179803 -1.103309217467842
Ni 4.183463313497953 6.941953695854409 6.085294230941355 0.204277488598274 -0.45659089755885235 -0.7213019088528352
Ni 0.761378826827577 7.311069276159783 11.241624574275296 0.14246791149064497 0.05996969568541284 0.13424963734591072
P 0.3135014443078179 5.675663015774396 7.970295896281849 -0.6408724026511737 -0.6722943686058808 0.25293535881529344
P 8.432493032239735 1.5697676653202042 8.014962445871229 0.5746572402766813 0.5886504692319797 0.7080288458930128
P 1.7119184472918594 3.237253277569314 10.298991543994697 0.298844205532266 -0.45473173286292656 1.291107220353854
P 3.9375216158760735 6.252919898495705 3.9227443594451215 -0.49170008255715963 -0.6182253546756191 -0.4306541230884325
P 6.694640391626823 4.120333314724785 10.346775791493757 1.640871866885071 -0.6220807238659674 0.6333120738054125
P 6.3610422034271075 7.677992090641562 10.354963921980717 -0.6014064833460675 0.3567400494077856 -1.1899595077682343
P 2.3994543058574895 8.464482146826768 5.76848107857897 0.458413552589888 0.382725931948586 1.0596043203807235
P 6.807076038384065 3.920593102768803 1.6296021987486085 0.08050201131080975 -0.2795925563915056 0.6096844070841435
Ni 5.2024136181673715 2.628638941197812 0.6904306704018839 0.22024712455365292 0.7142938529661182 -0.1791387845491173
Ni 1.5126564929023405 1.1599280020440887 7.163393265736326 -0.1828900240614334 0.16119505558650304 -0.8950022959952005
Ni 6.767091901082192 0.6091999762972279 9.139378470046259 0.42376459505745084 0.5282578270765353 0.3121542923776108
Ni 2.9130397661454834 1.6350814061892984 9.129936041413293 -0.2815072569157152 -0.19308984741257068 0.6272337288218165
Ni 6.557181948043111 1.7711953143503123 2.593010557241824 -0.1825328978323308 0.136247641612546 -0.31399108847603346
Ni 4.052258313188941 6.656054932113664 10.661277064827313 0.4050950436724055 0.638743786343945 -0.4857009275509313
Ni 8.037154499327897 7.393600289421561 0.29808260083959165 1.2377766272515134 -0.759027448428067 -0.8939741118410022
Ni 7.567207786047769 3.7640494751649007 8.344441302389992 0.1949091600094966 0.26513292932274984 -0.9429176316192405
Ni 3.211761246904049 8.35118924594096 12.46014183532945 -0.3410666045365868 0.04779886465083381 0.24412444539188277
Ni 9.158903109603937 4.968978807094893 10.148417112243918 -0.46455180427714193 -0.3703136743271622 -0.18309545520402015
Ni 8.566883408415947 2.1714788500248288 5.856546344020218 0.7372520044241883 1.2084318555408091 -0.153740913301303
Ni 3.633431017154381 2.6828805682168957 11.336834827284953 0.0825475809859288 0.009037684722236048 -0.19794717550487198
Ni 0.9917979081130354 3.4756150439491327 12.481154487579765 -0.6946732505217132 -0.9154410234655267 0.031033729377353006
Ni 3.2253780519567514 8.442364990309754 7.989763686355209 -0.19149293523909602 -0.7857412102738274 0.3405577832209683
Ni 5.3617185064380255 7.981667597890474 3.6207761414712065 0.7263091322594394 0.20262426926556718 0.3686514561333909
Ni 2.8144465176326725 8.41755876294734 3.585644964909787 1.2136617364811808 -0.293295764910211 -0.006291746545982712
Ni 3.368783132074415 4.307214714752272 9.340470436407077 0.9489057308818754 0.06570017041128685 -0.013652043565795843
Ni 7.379667653900437 6.083427221686614 11.411323894448008 -0.6107763545967416 -0.3608119054843141 -0.14283686479428948
Ni 0.5781484270150172 0.10028339270523697 0.024152007106401047 0.8041330825174537 -0.09566869174891911 0.615217678197547
Ni 4.465869894630748 0.48963017044477963 1.5371523040329351 0.04610142234375286 -0.7853825413828281 0.4093116528569144
Ni 6.202522379463667 5.692943454260762 0.4941275963150693 -1.2078459011303522 0.2680817275384287 0.26812080830648016
Ni 8.029294832528093 8.90123958973987 11.13685277942744 0.03625461145666014 -0.12903749701735195 0.21237466378411166
Ni 0.3575336258420583 4.75766115253943 5.806557599851591 -0.6264027482800889 -0.8772969082956374 0.2646459623840023
Ni 8.19081955780535 8.859531920453195 2.2256275326489203 -0.5954831758830971 0.27426548775163734 0.3266445155739858
P 8.547789200668088 1.4624845670620303 3.6573736737788587 -0.9068252567720575 0.8017252444069096 -0.3084663020030623
P 1.7391520573972654 3.211183728333225 1.4855519221026032 -0.41311508576340467 0.08789881799551313 -0.45550897734858325
P 4.864105044124375 0.9744994221713315 8.078132149046139 -0.8266703443880214 -0.09096305874313367 0.8105055617027009
P 8.450486345211962 1.6748399502994433 12.231526597205049 -0.0998405637384216 0.6688763440632675 0.9658955805716527
P 6.380055197625944 7.679986334456437 1.5343522413372068 -1.3544692295502672 1.140314076826965 0.6064725850150652
P 1.8958400646438738 3.1145486287246134 6.174244724066944 -0.4094993433876883 -0.018006206769433503 -0.7934614617362206
P 6.974493257829257 3.9381983954512574 6.130370457766913 0.23064955083389957 0.6881007395105181 -0.8149057476529256
P 2.475506282652837 8.300051781240054 10.141351533478996 0.7187274632574396 0.5668999649287656 1.2540599377925692
