# total energy = -340885.6150884999 ev
CRYSTAL
PRIMVEC
9.06513948043562 0.00000000000000 0.00000000000000

0.00000000000000 9.06513948043562 0.00000000000000

0.00000000000000 0.00000000000000 13.26774794796320

PRIMCOORD
 96 1
Ni 6.767661472451179 1.42932773879331 11.06703956916993 -0.5867452817894669 0.557742981019846 1.3746999547748453
Ni 4.782314337904465 0.688529072247231 6.108338466612555 -1.3938119930139479 0.37817585068405835 -0.008575914594469101
Ni 2.7664448786952085 1.6819187855402915 4.550744443120647 0.49098300188547706 0.7305213705685741 1.4772661449745461
Ni 3.5314157396911448 4.781697908419151 4.599742428577584 0.6479143970996197 -0.870801787489597 0.2663061236952446
Ni 3.9630795519218998 2.826374515863034 2.784541616658925 -0.15192879979322865 0.622647652113031 -0.543014930781052
Ni 5.288810876624465 4.662935515961779 2.458871947913997 0.1211382967749333 0.21019051164859928 0.4049307501803994
Ni 5.341062340644333 3.1035139603487045 0.5851592866437345 -0.09176601426040323 -1.7640619039827103 -1.4138414008609972
Ni 5.836091477909592 8.011561782978285 12.768270727879537 0.7260072847483044 0.9011526318673125 -1.3325510893209371
Ni 2.1698680488639264 6.317541036218958 0.12793178105142028 -0.485610424719654 1.2934713497106562 0.41003541839681645
Ni 0.5160647934516052 0.43019072706364386 0.4664848260394151 1.8601843954395962 -0.053766909308810625 -0.16902149360945729
Ni 8.365165679061386 0.15167700743130266 6.74886581223279 -0.7156583374138126 0.5364367633429019 -0.6383987442997006
Ni 9.05493214284899 2.6175680928523404 1.1771636601163036 0.5368838781826496 0.7087806364573729 1.1445733663239512
Ni 7.023796988738717 1.0237262025960596 4.795707174986865 -0.5094651198500645 1.5981308763731186 -1.0413841978282712
Ni 1.493345753871087 7.516587036549966 2.3362913187034735 -0.5587176862282893 0.03146798870129419 -0.5804543065744325
Ni 7.9861068712906045 4.156674670868517 3.5807527613650048 -2.0089548521095018 0.11637429972738667 0.1692739759398956
Ni 7.98129328222146 3.7920294348867003 12.474827630021256 -0.9453987461698816 0.68386150461819 -1.0754153192710512
Ni 8.443715112741495 7.677529523053911 8.942727472298623 -0.4374482631921305 -2.359674663465136 -0.7570533554208316
Ni 7.245711603451826 1.1898176883302756 0.5953321861793167 -1.5187393245176684 -0.996832122249509 -0.8397762856423601
Ni 1.7401260462050332 6.679956247886254 8.987094984504111 2.1399062783201144 0.8702361447941143 1.007677292494129
Ni 0.19679601970050575 5.13641681665951 1.4360876133109393 0.6422091191847262 -0.6017612955823249 -0.9159490734501966
Ni 6.668652018942331 2.097664212826756 7.07238613640466 -0.60085575304892 0.6393744779494085 -0.19335441392786698
Ni 3.5943640683091123 4.461961373470372 0.24976362974007696 0.4933800413627438 -0.29826699287255726 -1.458644416108301
Ni 6.171664811547251 5.952877669958162 4.4507586740887355 0.05142077767413725 -1.0185792841186136 0.8382313097527435
Ni 5.520325474057395 3.7314017819781515 9.137882701751455 -1.5528833173892287 -2.2025527495067423 -0.9305578245023071
P 0.28860321988461624 5.667751837581877 12.44003925071476 0.6332300556145676 -1.6684580040334556 1.1254294464056487
P 4.246673375724389 6.336741001658597 12.552960973798779 -0.35313099190028857 0.4491768644829684 -0.41551906721920695
P 2.6285913024720764 8.765708867423262 1.0859320962898027 -0.22562638658769532 -0.21771561638105083 1.136283101290701
P 6.430039417288799 8.480864054371166 5.954021690561788 1.0051447558802624 -2.736912318605641 0.7648610243907086
P 5.058220923419507 1.1931808550810337 12.467490306118119 0.12323503140296196 0.31866175447882544 0.3330105670013297
P 4.38251449098076 6.079200388750122 7.989956836031971 -0.9302022409351013 1.3295045891851296 1.9037219137109147
P 4.8375482328165145 1.320899605354441 3.8565233697876984 1.167554657710473 -1.3023018035180927 0.7814572381864928
P 0.24832136604723157 6.067180013786495 3.3461261015451877 -1.0630267157987112 0.13862076983041285 0.6883995016978596
Ni 1.0547199145120776 -0.013229664571581416 4.4298753122458185 -0.5263958341671321 -0.4611594907661413 1.5350897408512336
Ni 1.958051999542581 6.745025819144862 4.548754645002611 1.0617635328155712 0.607103790841161 -0.09496240971051387
Ni 6.287263470322642 5.95415585462624 9.134088034360975 0.4213958377149581 1.1170926444051794 0.42919013694839636
Ni 8.716748049038234 2.4435627403434292 10.095973668384735 0.9212038940912328 1.4773512484891846 0.11474730564692497
Ni 2.51251219130372 5.820118702128362 6.651957658057705 -0.09922966962730008 -1.1123317326814264 0.8222616737973645
Ni 0.8247817448364441 0.3381931589502452 8.84987959410107 0.8415989406733957 -0.3809179322055698 0.854577869431567
Ni 1.644053697890918 1.2083015077502113 11.314815213819871 0.057783229557055324 0.15420474031159895 -0.32750069292669404
Ni 4.9340103821286965 6.826593944275113 1.3779220522878513 -1.8276738244064008 1.4030414820320158 2.451188709615733
Ni 5.887653991328226 8.270317124578408 8.191095964062097 -0.9804217992122858 -0.48933029677340245 -1.0170813594168484
Ni 5.5395888954734644 3.4780945892114667 4.992136056538029 0.5217938166187465 -1.9225346755420436 -1.9487632702212696
Ni 1.0754428233860225 7.89208324450121 6.928603958955123 0.33057753207980484 -0.814628582732139 -0.28864901016681904
Ni 5.3948639435169765 4.68829071111507 6.847086598606015 -0.5344660127697763 -0.44964557658927073 1.0389395929425203
Ni 1.0578201922176285 7.188120772272399 11.249816350649285 1.6035656742354447 1.8115239541194155 -0.522936671973938
Ni 4.596932235335711 0.7576072481882786 10.226222499089777 0.04100652431934873 -1.3762613857246941 0.11215640499129717
Ni 8.034161175726643 7.706093777586632 4.628228722910692 0.7161658731778505 -1.2122933953787445 0.5315100154652459
Ni 7.221516746153245 6.413540863417153 6.835808658566613 0.8186168779559256 1.5353751333021366 0.3798902622720038
Ni 2.8462724970433966 5.298574031855104 2.3007731956680386 -0.4017160998978437 0.9872015411382805 1.092726299745673
Ni 2.6018310106978486 5.4144899705126415 11.077959436199484 -0.3862447437351219 -1.9674240798555664 0.3763020307001132
Ni 1.0062939393569537 3.40125846689495 3.5102214435637245 2.139746612813799 0.5017474394908327 -0.39619979806530475
Ni 1.6088175006936196 1.2661552279748465 2.585552739715809 0.5984926521333821 -0.019388174718624675 -2.336468914772634
Ni 1.1509735656159912 3.750783050207589 7.769752813140609 0.19629935548880384 0.07421669252273025 -0.4414172751422075
Ni 3.6075810416854073 2.9248853866999363 6.534976565510101 0.5806522815178516 0.6127609891269382 0.9714661326808948
Ni 4.532542549538848 6.9858684451129145 6.030973846663777 0.34305046773583503 1.833617186474029 -0.4158679659181934
Ni 8.553493951964363 7.561115001724427 13.332096115247706 -0.687566721383919 -0.8884742650686956 1.015095439335071
P 0.4773521152599248 5.86597924280784 7.621737215549282 -2.1086565762772134 -0.059101177037530477 -0.14753941247628138
P 8.93062188502379 2.005843414933411 7.825729142976883 -1.571081071344178 0.19019658502517567 0.2864661435828873
P 1.7961667385316855 3.4228878897178863 10.136241017998936 0.01938174696072146 -0.39011399688254106 0.6656799486131567
P 4.179228737919424 6.636525164590074 3.7644451219328396 -0.40133583374028947 -0.14435715809355784 -1.489374755312622
P 7.111166803142514 4.217411105450944 10.327734837611791 1.375569244753676 0.3232689142335336 0.8629452675596557
P 6.61037223716167 8.108549710380883 10.204822424295937 -0.23981579071419987 0.2611140379713438 0.9024376692273232
P 2.7670794384595028 8.671222918519883 5.920944809590989 -0.1548719415819526 0.3480800597399425 -0.9261111015848632
P 7.20180006776268 3.786427178681933 1.266855963257417 0.3417906271868049 1.751258324460139 1.090119201140129
Ni 3.1720645451714384 1.5427779595095916 0.259533130568358 -0.9407465921098507 2.1758343596752914 -0.49304682639304126
Ni 1.6393488904956524 1.523423886698624 6.7233120905246695 -0.08832536400997047 -1.1100557921630558 -1.1058335265515924
Ni 7.432535063199478 0.7649717675098853 8.90491405594434 -0.5020598285249289 0.6187912544814181 0.3739476715353237
Ni 2.688113008362856 1.6605885123205224 8.757151375744785 0.9539242671423895 1.8140456921000048 1.5310289405182986
Ni 6.374887108632159 2.2839709596234816 2.604034746107847 1.2832987800530287 -0.5452037109022546 1.278495188016798
Ni 4.158659936416808 6.941558043286212 10.368917766314473 2.2142263291899282 -0.4125898093875539 -0.7706359792012728
Ni 7.898555754097009 6.6458531931251965 11.269969968763263 -2.8951989422960978 -1.438879574776548 -0.8776036409027789
Ni 7.768153722534587 4.109155209662384 8.043280706053496 0.35544858428987175 -0.16796965530617525 -0.16907342989331525
Ni 3.3050138809305265 8.421714019199474 12.375001407444367 0.7034265712343112 -0.18358293636339995 -0.9413711130677271
Ni 0.16992966579424576 5.086431637512121 9.812998993609407 -0.2755088732404352 -0.6885159726710659 0.7091251642809852
Ni 8.798687844887572 2.734608108806628 5.651025748709035 -0.25995087090117813 0.42133490257003564 0.026065072518168014
Ni 3.6098110659999265 2.7222341934028944 11.204268557282209 0.29839786202346674 0.9848284129204136 0.24561619944606086
Ni 1.3476145714312195 3.646443294678672 12.64152376055945 0.6386936498323 0.07432339330392361 -0.5263888921885966
Ni 3.4396130720767792 8.45585333451849 8.14691428721615 0.13679142993115795 -0.32934263123143925 -0.8643004960359695
Ni 5.786559555736698 8.160039702683596 3.6639680223405744 0.06632314870726641 0.9835001810272933 -0.6175370703593429
Ni 3.386536680363329 8.729212615836866 3.426687996192059 0.05321386501881803 -0.8764361029572388 -0.1590587259697906
Ni 3.172653779238283 4.404841929544419 8.740646476275497 1.0296273144026589 0.04448934066162661 0.36590551795713755
Ni 5.224230822898313 4.7311506906233864 11.445197302075414 -0.20074993506098973 -0.8004342935096279 -1.2967255949818959
Ni 8.47185330571819 8.83723281799869 2.6515197597839175 -0.1916117202051474 0.23895678514801427 -0.806096891112044
Ni 4.862885297690826 0.40988118855043915 1.5094853282189313 0.6850989765697169 -0.36528742475716447 0.05012237057768787
Ni 6.141459766766856 5.560021719883731 0.07172700970000055 2.385035767937744 -1.30603967329397 0.0522386455897423
Ni 8.591114280847508 8.893155663511973 11.010201144568166 -0.07449797120857492 1.1896525180507769 0.5576946442804137
Ni 0.2352249590261519 5.308137754016964 5.445136487586196 -0.321138241043776 -0.09302611191974947 0.5415265191609835
Ni 7.173108901277101 6.025716065759626 2.3250006874687847 0.928560077345988 1.6534016239209652 -0.5825633824976354
P 8.748992750203861 1.6416333056471109 3.627985764163256 -0.1127043070749672 0.9626863296057357 0.11966531177383262
P 2.3649317204079097 3.3443837817352255 1.5791808401592418 -3.1101832757889145 -1.1365003595078298 -0.9869544581244808
P 4.8002633140944955 1.588919519513257 8.24406085455982 0.7068124569874086 0.5981393825590215 -0.8912849950446133
P 8.691220616234634 1.7372614621262203 12.257435613399664 0.8652453764477421 -0.6776152665981621 -0.13234547834466237
P 6.882897525646974 8.098868141405653 1.492926944426653 -1.3836682197117265 -0.08406067519634557 -0.6940371595996111
P 1.8678176010599707 3.749069738843995 5.489291875527622 0.12276683351729178 -0.8656765504478897 0.8836537037516008
P 7.257070223232691 4.559076212825827 5.877957011615864 0.26616702701421907 -1.8672911816877067 -1.6322082776728022
P 2.768638642451768 8.436127590988438 10.187945854107562 -2.856915216224551 1.8644866223593761 0.11941874298066531
