# total energy = -381169.9460422276 ev
CRYSTAL
PRIMVEC
9.25898333257480 0.00000000000000 0.00000000000000

0.00000000000000 9.25898333257480 0.00000000000000

0.00000000000000 0.00000000000000 13.55145801959983

PRIMCOORD
 96 1
Ni 5.009082270290066 6.27466494131992 9.488595130277128 2.606538105054737 -0.3573848820806361 -0.944137877179587
Ni 1.3766534365135814 2.289441061092416 12.625541501327163 -0.6014399076871642 1.691644726562564 -0.7934537484267367
Ni 3.1820626197139688 7.585607372278484 3.5057761250422947 0.9567535090610684 0.6232392629504427 -2.2538218320943635
Ni 6.709263106564599 2.1710186627482293 10.012305455852047 1.057105979438902 1.0658420737603191 -0.25611812741864926
Ni 1.10534670341887 5.274018822770172 12.776518485486687 0.5101492904012827 -1.6788288057448182 -0.531406400007846
Ni 3.4050930130927624 2.0213657132222647 5.3986299256533155 -0.7569096307541158 0.9971961904571471 0.39480883125504906
Ni 4.638482198661888 6.746817543443726 4.963791026838899 1.4140483746654808 -0.5290643821382308 -0.22195228017021773
Ni 7.909829195798294 7.915977160810065 2.742448863133634 -0.11623314616383207 -1.0529762735412445 -0.6110128960875799
Ni 0.9339258837985204 0.8121748809035335 5.842467630484206 2.1997386770967147 -0.21674245383450413 -0.31071087506286493
Ni 3.859709100559499 6.328755922643356 7.429004629773852 -0.14635259125703182 -0.1916711126881731 -0.5906387033066021
Ni 4.370601289444216 7.173193731383505 0.5413523926433336 -0.4642982935054391 -0.9146529803465926 0.45560282261397017
Ni 5.759745094633819 2.8185178934758026 12.338711156577732 -0.11410607251850026 -0.8068895622166685 -1.0503907722022554
Ni 8.331066647922514 7.2803479468672645 6.870101833998273 -0.9578310583959634 0.6996668470815628 -0.23224800566927098
Ni 0.040925632753802926 0.12433888876967025 7.838041519404081 0.008372540334411387 -0.269799995781116 0.9486203384309726
Ni 0.5571009975959237 2.977707595956772 6.996373998512609 -0.5403908628946436 -0.836786606886417 0.21384919144710912
Ni 2.4696764329585568 6.500343403965831 5.380010109932427 -1.7176385795231643 -0.36248286542883373 1.2268080440551516
Ni 2.192943935561289 4.181829134835828 10.521474547916448 -2.050312074900049 -0.09810378355297299 -0.27748219491672205
Ni 0.525701932915329 5.464874248655138 6.786285812202268 -0.21171903247798377 -0.4593995706522411 0.0446052974142006
Ni 5.934869507634753 5.689145345816429 6.534309984757518 1.50717013162283 1.9533418907308877 1.1896751437585962
Ni 1.9188132125138824 4.040870370770786 5.227650759543601 -0.43985353019951345 0.18314250639187168 0.34388427649104
Ni 0.06613877059047647 7.3054212740538205 9.1296308231524 -0.23380043775805542 -1.9823585896782117 0.14771193349840367
Ni 9.23847480311605 2.69669744820493 4.350153750390009 0.2775192188022446 0.24848297947089465 1.2220592165162567
Ni 7.207044574882047 0.7841396049108547 12.188411930006854 1.624604497183615 0.38341961558150095 0.6443770733703225
Ni 8.014576075584673 1.187464627649878 6.184018567431773 -0.7067124410744344 0.8818349053753072 -0.11034583414511964
P 2.7853429557692175 1.225685711337509 7.379663506961016 -0.2212107740185029 0.5190111116672869 0.23311215344177916
Ni 3.708019174674213 9.01679622132117 5.878758216122208 -1.08331451951347 -0.9603741365327914 -0.3224592738480447
P 3.532496625384866 8.730656596737218 10.88537111552577 -1.1251347979833655 -0.775161120765136 0.21855379601163005
Ni 7.5448400681417 5.442180480215607 2.646843377708883 0.026502931386535 0.2553362549473022 1.9217862274117934
P 0.04130710287200312 1.387616072920111 11.102235025925891 -0.007552615536277316 0.7572364179659152 0.683949693456622
P 4.470042771712908 -0.0365952061935546 3.783323412983291 1.2578888246203563 0.5932108349091526 0.7246494851688293
P 7.778592364357285 2.3206808712576454 0.5271870738609433 0.5147461657433458 -0.017718243215369488 -1.8667823603720881
Ni 6.839759219329491 3.3005498309423156 2.0425567486476237 -0.41511231869909154 -0.66474663816561 0.730733229469064
Ni 8.31531711707158 3.2219873563566686 11.945258061994657 -0.1931826642366931 -0.631903366383344 0.6650595414203384
Ni 5.10688491248785 4.752599169701144 2.4066709023680546 0.5629360951850111 0.5480535216462239 -0.9994479626058013
Ni 6.47098316744125 0.48173935358944686 8.267337990724453 0.7386586549637278 -0.2510774796709483 0.316181668369449
Ni 5.238112484945407 6.826491096043547 11.698445043722439 0.18955329501422194 1.339568915399667 1.152452511961712
Ni 3.1878680023380346 5.252621312013846 3.4267034804684724 -0.43355895544005335 -0.15542370032036457 0.4797346826651673
Ni 3.9332254291640996 0.17135137724446364 1.7116573462626186 -1.3869705446120821 -1.043685592267938 -0.30593247983761507
Ni 5.403542742272661 0.41788107062306523 10.724352763813137 -0.0810339725548798 -1.1689044868701481 0.2807222991205746
Ni 9.116626580894822 3.086935823733658 9.40580963333927 -0.3790094023289473 -0.27997719342443395 -0.023126301604818236
Ni 4.7368403798667575 2.1116315428905583 3.403693054794901 0.4610304213874447 0.1964374237285649 -0.05212705971254248
Ni 2.690521706242805 4.012195299021611 7.5894942935314065 0.66152761700768 -1.0170003696672678 0.7557978857471758
Ni 6.676208535642884 -0.022362296831968696 4.85311561994855 -0.8196784864512205 -1.2762529289498408 -1.8086191217677947
Ni 1.7082731878111097 7.378761681972844 7.502331149217698 -0.9503080105460407 0.032115649587622114 -0.8043716808908211
Ni 8.510311308559348 0.4648194872302469 1.2936929447884904 -0.932313373740833 -1.5798300211814016 -0.8547084814721604
Ni 4.314769619231906 4.074128639328434 9.783299314553682 1.151264662301198 -0.43708959430113115 -0.5054809383913359
Ni 5.2732410681602495 4.637658149134707 0.03356937040161714 0.4684681086124125 1.0626541629506407 1.3217707108759817
Ni 4.760006356462313 2.2138044252774307 1.0367431914336147 0.7352414017520629 0.6986268358528226 -1.10474517858342
Ni 1.7372723239810857 8.48681200855954 1.522479648179057 -0.4346681293438321 -0.448954206949201 -1.1416708479651758
Ni 1.9137948434831902 0.20641514757514662 3.703775782558408 0.662603109460046 1.4501291795484381 -0.002216290925028441
Ni 3.45089720422714 2.051957394545892 10.861195909734006 -0.4602755454992912 -0.0381140332629021 1.5907952619436538
Ni 7.182443455851516 6.737188200654206 4.675782013496098 0.41337939516838484 -0.33936350580255104 0.5782418723041461
Ni 3.115953477870537 3.979899964742915 1.4071293805440654 -0.6580319451495958 1.695645620191841 -1.020609684285081
Ni 8.912586362574975 5.006619380691977 10.55333378407458 0.8199222270309104 1.7052417485207085 0.16611177616183004
Ni 2.7351129705450417 0.4879437984002709 12.759606026314248 1.2457061665112354 -1.8933709094938942 -0.1384780736049615
Ni 4.608723825848891 1.693440296321869 8.976404831912516 -1.2845182542824265 0.5759409920851113 -2.35530841607664
P 8.911956751700277 4.825911800669812 4.952041376838995 -0.5221260031471846 0.010698874474742865 -1.2295113019189277
Ni 2.919320446311859 6.738132616966255 9.672909084353638 -2.106780442300423 -0.4104971885245833 1.6403273072355102
P 6.38707825940411 4.293001749137521 10.568239821533087 0.47294208522336617 0.7826630855691359 0.6149502834687732
Ni 7.178221359397649 7.114501035284694 10.258386088533253 0.22740096198961482 -0.9547938142315363 0.7731536034168038
P 0.1483511364526893 8.060935805726139 5.031656597843073 -0.61762294520493 0.28649056906291953 1.3007177468604245
P 7.114704732920626 7.674336210693834 12.574357840807487 0.13749154132197614 1.3528841444513344 -0.33932313948291887
P 7.684650718258762 2.3322546005719715 7.944488348552149 -0.15813492860394054 0.8871884563777366 -0.11213223662158107
Ni 6.788001501835824 6.590340723114034 0.865145525229342 -0.6594265115042773 0.49543460989892735 -0.441676185230549
Ni 2.374438529176828 1.8415377366279886 1.09400259689414 0.33413053953838584 -0.8675066616780932 0.49900252975584386
Ni 5.868482596287777 4.581965363674168 4.535199164159184 -0.21482081133175907 -1.111849136618053 -0.08454224281845439
Ni 7.540303166250484 3.977585218880049 6.372627763931415 0.6415856266681144 -1.032000442620526 -0.22802753983002017
Ni 0.3233394423968869 9.173791544724143 12.846240482672878 0.5560270267700037 0.05829616463773186 -0.07454245129326517
Ni 3.688056806352863 5.237408802203095 12.033762833010483 -1.053519033418592 0.6225013563431537 -0.8581848700565348
Ni 1.410226510508579 1.4058562703194895 9.37251340294947 1.944047352802839 0.9028487886228128 -1.36434457968245
Ni 8.871596842835359 0.441536847443203 3.7519650878298823 -1.152182546129777 0.29116046373476306 0.4293773132585379
Ni 8.22634754508649 9.177106260799766 10.047362744894315 -1.5597425064029073 0.5542838188266519 -0.3979607466204695
Ni 7.5689134251154995 5.49935470302838 12.532727599413025 -0.7985378478178635 -1.3186758740007418 -0.8337467916188286
Ni 1.1596599003451404 8.75823910843912 10.512828509169474 2.3286429909703124 -0.9593192129057155 1.3546983148419378
Ni 0.4545984953981791 1.9457290774072795 2.2353130438351747 0.36352673331231583 2.173735311054418 -0.12756116958214161
Ni 1.0643849606296063 6.994078696514992 3.469132772134792 -1.5527961569920612 -0.24767925262267665 -0.6380562733586173
Ni 6.9285806475793565 2.180425789934914 4.182169865426842 0.15972027081318943 0.5757358180528407 0.20646241206473476
Ni 2.4403902683015857 7.180915723582024 12.71351758438791 -0.4623162300784038 1.2594685104026504 -0.47610505633238
Ni 5.487151362839354 7.164842128310288 2.6677538659356625 0.1341863882081431 0.4708111549232924 1.1831275724480657
Ni 5.358831111185555 9.01483331682946 13.13347729679583 -0.28555571595347595 0.2747614535514494 0.4271545945756063
Ni 0.8541412233972806 4.589576248071269 3.15406160196006 -0.7411009458566333 0.11966788287699391 -1.1107479331340742
Ni 9.178559921201646 6.807899057273014 0.5446180361066638 -0.598500365442866 1.5143054571160308 0.9159043362551903
Ni 9.140014773093213 7.077307698760175 11.763573659218363 0.41341847593643644 0.821135016392089 -0.860974259876214
Ni 5.681330763783395 8.073602095087736 6.561819350490153 -0.06126321768585578 0.35758414257563576 -0.055772883995245874
Ni 3.2503846586022993 8.625437508794816 8.443642924115448 1.3578443166700873 2.300338487598664 0.7327916546599896
Ni 5.473457326314643 1.5151215340301811 6.417170881519703 0.5226373955659643 0.052329919751967935 -0.3352075746526485
Ni 6.136743123826958 0.2649282193949998 2.1249228136351306 1.1482323032327773 0.542125586197563 0.2617794394694847
Ni 8.799719354301665 4.524846694762106 1.0141642343888817 0.1486231324587634 -1.7378281670971618 -0.8764926672267872
P 1.422577994432828 5.34789625172938 8.710551640070715 -0.48132336730852593 0.3839587759144226 1.8514174478802439
Ni 2.505416109081196 2.8087126300007053 3.362984082253863 -0.5279405529464327 -0.8631213881262039 -0.372760593205758
P 3.9135037944124877 4.481560947126525 5.820609022351998 1.2325858270791934 0.6266781134286626 -0.24876965747337798
Ni 5.404190871114263 3.749971628692783 7.354552217942308 -1.2861236510963334 -1.6110997778289609 1.2783987716482499
P 6.464603727843192 7.62012486258553 8.359175995782804 0.6956929500354793 -1.6092197871974288 0.75464268909681
P 3.4778593640377946 3.3467428993816544 12.812727592070315 -0.16950126145935324 -1.9261427046082762 0.3347141799559977
P 1.6409696371024394 6.0246538701635695 1.5269109976589266 0.7625843125413899 -0.5271638226814083 -0.3587025724507951
Ni 7.460592577716857 5.062201058351099 8.671483359397275 -0.7199626212161213 0.03888099333591368 -0.29532822195920755
