# total energy = -381168.7086691734 ev
CRYSTAL
PRIMVEC
9.18101541791058 0.00000000000000 0.00000000000000

0.00000000000000 9.18101541791058 0.00000000000000

0.00000000000000 0.00000000000000 13.43734409537104

PRIMCOORD
 96 1
Ni 5.843248159377136 2.993268134454463 7.573690558852164 0.08432858414575153 0.24256532843487905 -0.6256051920794581
Ni 0.9814872852813867 5.57446474842995 1.8356485746487161 -0.7232978562369414 -1.0255156062271307 1.485083584136436
Ni 3.279605647114007 7.511769199543061 10.290036312083288 -0.9333616124996893 -0.3141335275911687 1.089834837130491
Ni 7.783839414053543 3.6655479973663243 11.980547720670469 0.46798731232125207 0.23260898855311551 -0.1282993332997468
Ni 1.555273213480807 2.928156372245233 10.627313771364618 0.19310990201722872 0.40242803836320373 -2.413474225784095
Ni 8.779134946706995 5.767945469918575 6.423346035760263 1.8702345805867469 1.655662137820368 -1.5312145741665435
Ni 7.964980850656493 8.196930027257453 11.521474909236343 -2.200636763430952 0.48430841807877884 -1.7474569484361777
Ni 8.189475042639025 6.2795942849437045 9.969179099095138 0.7660265054537194 -0.3647672905876363 1.5792816048770995
Ni 4.343722072254824 1.4375175081655795 2.7876308302894084 0.803835348771377 -0.0842031143114808 0.11118735620980852
Ni 3.9270416819747993 7.473346649508426 8.044991564883933 -0.9221773137480958 0.5886898071103475 -1.389397151775704
Ni 8.123133024347442 3.5368393405119525 3.612092452486597 0.09287004595785942 -1.286074543025953 0.47801255776773804
Ni 2.44743839857415 5.820938291615089 6.606590843023412 -1.415636287977891 1.5283321104124261 -0.4299486123809756
Ni 7.617130533879374 5.736307690367954 3.4876896919204556 -0.5266483164975705 1.665729292248383 -0.3635863829056577
Ni 4.684190852537834 9.195429734334343 9.43962730376713 0.6227587237695985 -1.2618624645561236 1.806936077638417
Ni 3.465420220626785 8.796725772481514 4.055242628669813 -0.7886478423976611 0.8266883421101504 0.5009606819234792
Ni 6.52945562286308 6.5437963691364605 6.437844695500931 -0.5826037488172676 -0.2172384196343162 -1.623406877331088
Ni -0.39341386069871703 2.1369731770756526 1.77712878159716 0.37245308926766824 0.4068037988333962 -0.4749709427279368
Ni 6.651149983844941 1.3005551183408048 2.707920335270124 0.14430059382400953 0.6931161904472386 0.8748990974874223
Ni 5.449318325605074 8.225730873006235 2.634553003887383 0.5883488788311609 0.21669591686728487 0.3325943053995175
Ni 6.001014730415407 6.952314836601482 8.671776741490746 1.0089016518195335 1.360069349345864 1.7898356705127048
Ni 1.239804338513044 3.5931281467873037 3.445187098579873 0.6747667414057734 0.8141251607331592 0.6297935191291928
Ni 4.8543242515084 0.5679008972383209 0.5297216441154944 3.2223173121827084 1.0731442638486872 0.23403569369731306
Ni 4.830435249073485 5.924849025496093 3.439557299850784 2.6652348475649967 0.8604651814502794 0.834489326211808
Ni 1.5675757743043222 7.411989922655029 4.949968398997244 0.8575822034755295 1.346139112418017 2.1692685335323154
P 0.04020550325249054 9.425138743143556 12.692512523253708 0.8644228805464468 -0.10924077400639895 0.7984072357772701
Ni 5.45864623739365 8.183516563553606 11.886809552007717 -0.26174652934902015 -0.9788559973870624 -0.08706449501967586
P 6.408201950627137 6.3300531463511955 1.5871919321069508 1.7203878601335276 1.1189224985250665 1.2724217281292085
Ni 3.9903539651382025 3.793990404770038 4.123370354483913 -0.4753064716904846 -1.1546600611359918 -0.011314396571554707
P 3.9494892649699445 6.152216875342623 11.894320540820939 0.0022556288033961157 0.27468997688356567 0.5552286992384243
P 7.093674932869887 9.014949330850268 9.2780423483658 0.2233111081909573 0.5741304212389338 0.4945951447167676
P 1.7646279108379823 3.7524554904673644 1.249084509020812 -0.03890207638183623 -2.014904641935033 -0.451855439756396
Ni 4.625046750429563 7.265580267839661 0.6288380516815423 0.014745276629974605 0.03291706244299492 -1.0485169522183104
Ni 7.260347088981896 1.1625277307133974 5.590983231589404 1.6878510638480868 0.4692299264791016 -0.4883321945261912
Ni 8.371507037749348 1.7494884162126267 10.60860837030355 0.9572242780498998 -0.544896721184797 -0.8794705189081886
Ni 6.133111182004015 1.078649972740536 11.003196482889825 1.2915846742109047 -0.5912927919508333 -1.5099821471503285
Ni 7.4487874329390955 5.081728825417091 8.149278720402075 -1.1818062825334807 -1.0643778305099667 0.880838860010625
Ni 0.6923973041629697 8.777307924614547 6.762773688881044 0.8795430240173369 0.0429757322305776 1.2739751886592574
Ni 6.515381126040357 3.396424888844161 9.865429032986082 0.6270097857364686 0.06476608863279168 -0.4040966843148782
Ni 0.9433677087595698 7.663035611579057 11.736498883689428 1.4080952424058395 -1.1204325074116896 1.004432560304586
Ni 7.852127807639593 8.576151874134537 3.0190621976139154 -1.0588224479093764 0.3242402770078674 -0.0034681610542585434
Ni 3.0367494240516035 8.996063981884618 6.246322284626974 -0.9122957929683256 0.1622314672708174 0.6184148449786059
Ni 4.5373864140542475 0.8735717924218636 7.495404039343124 -0.8677676286489636 1.964629804939881 -1.2961725506919033
Ni 0.3430596628683806 4.968260654359014 13.042031030554432 0.8595053886401713 -0.04093119099672306 -0.627252497874894
Ni 0.9399523709787133 2.1756895196075656 12.536920934796846 -2.693251130272265 0.9904002505812363 2.315941227132927
Ni 3.419919107610859 5.298198809817717 1.8067449015258876 -0.41214038055496116 -0.9573446056778481 -0.4217149116172737
Ni 3.9974692521816535 2.2749822026719806 9.448683457495724 0.8317765552663352 -1.4090136404550508 -0.3416111641861471
Ni 6.260571220744955 3.4088559838852355 5.043679942714932 -0.6741285936011422 -0.11334708286528866 1.0897903570458007
Ni 5.154901519270386 0.8915693371848012 4.914103679892036 -0.4202167298051924 0.29130881638716927 0.555459841412624
Ni 8.47394880914396 7.913154017933551 5.2424994247400285 -2.133682923118222 -0.18616380971669874 0.05790972783259059
Ni 2.0626528562798656 0.6758264892149382 8.61527309945176 0.993678921332508 0.9887550016683296 -0.7281014482731719
Ni 1.440069830485682 3.95306986103052 5.9839453863235565 -0.6201984192415899 -1.0795326838735344 -1.0514662646546213
Ni 2.6980893038299603 5.751162573511571 4.087546031847079 -1.5040210444708872 -1.9907370435498941 0.7012395908853214
Ni 4.995766976916664 5.004764372145802 8.870313448237214 0.9389211088653378 -1.436194828855533 -0.36550699696713823
Ni 4.603104123289114 4.99338909389182 6.5083640758631836 1.0891038725017372 -1.434069297872098 -0.022838595161070344
Ni 8.239686016626937 3.647534844876968 6.511172548516851 -1.3055226244482354 -1.105571016918825 -0.5643900540227184
Ni 3.190549796376622 8.811167509925834 12.7432247806901 -0.46424661433189723 -2.598617564656079 -1.1633809859487576
P 0.9568454395721967 2.6047367378198847 8.121060869140079 0.23092851552689908 -0.7971029151435498 -0.3084035670859269
Ni 1.8857438678408265 0.5567716702008096 11.096156101434792 0.38091870353651813 0.33177386638075124 -0.9105662118717285
P 4.131824233593086 1.3244716638223397 11.424550928181231 -1.2818651329302957 -0.23515283802089176 0.3639339960530636
Ni 4.125819849429968 6.987156790575542 5.685622975978179 1.1844048964985923 1.700971917500761 -1.8182211636339332
P 6.356007877282597 2.4897536991977183 0.9974503170006745 -0.14545039115773659 0.9504967295180792 -0.46455334693903866
P 4.119512491754032 2.6782399482326174 6.097423656498728 2.0881682265158745 -0.756732224635987 -2.428176050770644
P 0.3515006885557983 0.45641031692754624 4.213709711193781 0.16212759470310142 -0.11981417864687108 0.39815640757104337
Ni 5.493561639492029 3.0922762060371403 11.99295035456337 -1.378782095264019 0.40337806098129886 1.4470052892074756
Ni 7.499310561455367 5.976492237908237 12.442308733454691 0.26050057275706107 1.0263985230527162 0.7824517408892783
Ni 6.363738292367223 8.845807481558015 7.118621588295002 0.21549084081559014 -0.046061313134436795 -0.21636964387611768
Ni 8.819356975787457 7.0487063187552765 0.7508115155358166 0.11370780863881706 -1.185939330865248 -0.2626867817751024
Ni 0.4065785188814322 9.071513567591817 1.4843829200907404 1.3511159968073183 1.3137928348768275 -0.7949187630080374
Ni 7.74668384416342 4.331952010332625 0.8544670171848092 -0.8921542850234442 -0.08438334864308693 1.619523997336914
Ni 2.220511237473536 6.761753678054556 0.37022445164794504 -0.3096898899975183 1.3772219498657507 -1.3514160445462404
Ni 4.268428563811804 3.316421519429153 1.3326730650041652 -0.7200181570444052 -2.16568595838738 -0.827553261213607
Ni 5.904705877401471 5.705202409718648 10.945496554525985 -1.1756659739636979 -0.40519403114411506 -0.2806958167580133
Ni 3.097261497475326 3.432414469760713 7.609809592087829 -1.4581325094688888 0.2313625177405241 2.221798999330864
Ni 0.5220169358743796 8.47980629705844 9.566085693712663 -0.7697340362122937 -0.02236551217939374 0.4297259548472083
Ni 0.5230516363257304 7.367691522674836 3.078388083829878 0.5232158937772539 -0.532007781037271 -0.5397036070196317
Ni 1.4404554331383594 5.419121965494223 10.786371193187803 -0.10934130414000523 0.02220558956276176 -0.028491165461157382
Ni 0.3177668831574091 1.8029770127482976 6.168010058274422 0.8860443154709644 -0.8882675483745283 -1.3491470460064057
Ni 8.206560912558846 7.53362001652811 7.963883719299471 -0.6228073176193467 0.03608183332422173 -0.3769378645118992
Ni 2.9609509597538866 1.8064198935757738 13.253198978480746 0.633820895121031 2.2760639313220157 0.2298273120429203
Ni 0.7406380322160128 4.820124968622136 8.367219503492198 -0.8850379856936371 -0.6008588383727135 0.21737031722649014
Ni 5.407471256774042 5.05581999956339 13.81869628585071 -0.09958113942944785 -1.1048611353359938 -2.301251743441553
Ni 7.9555978527746785 1.7731387122435034 7.980022108415572 -0.11270122175117364 -0.9456879952755262 1.154188263705896
Ni 2.902780045292848 5.488714063286942 8.725633496749568 -0.6946179718037456 0.8790444871143636 2.158528264296676
Ni 2.650550005364168 4.587119975234084 12.943441613280378 1.4708070196127636 -0.7514828033115897 -1.2949703028536859
Ni 5.970781646242396 3.909873182915118 2.80159240062099 0.5878487992662909 -0.07008081597748576 -0.9621150304832979
Ni 7.408583765889714 1.405310505651482 12.877517331195861 -0.009362929272138713 1.5197392265370924 0.4765372587737922
Ni 2.452111535483978 1.9083475281001503 4.859534477827315 0.0005874970723538269 -0.8181185981632685 0.19606538510112684
Ni 2.2579238757987783 1.9794361314258797 2.474540756448043 -1.1073571622849703 -1.3784807619735164 -1.982021003833135
P 0.35297883205772806 5.170298082330859 4.439873011801472 -0.5300660839298678 1.6035556469331158 0.3996070239746408
Ni 3.545304236839774 4.057320292486501 10.528065157174794 0.5895205305417589 2.4648955176788645 1.7598753767051882
P 1.1212957899235418 7.005408649468936 8.138609462243114 1.1129881353185027 -0.2695359434864519 -0.5384455662428146
Ni 3.149657553161744 7.357509776441045 2.552530729155143 -1.466240226177688 1.2006987485626095 -1.7603268624203101
P 2.988824522933134 9.364452230424577 1.421980475567345 -0.8174267143025665 -1.1594502834357838 1.1325208060347913
P 8.868025539164663 3.9510683996428138 10.092493909319796 -1.1641474318011371 0.6296618786473349 0.425414471956048
P 6.248534909372099 8.050318390100204 4.684164227592768 0.004718488521591875 -0.06505430929717185 0.638811663467403
Ni 7.231968569947952 8.531118992911146 0.2955304635196825 -1.7541428450967855 -0.7778139850069506 1.404657163258568
