# total energy = -381176.8851346407 ev
CRYSTAL
PRIMVEC
9.17193720253172 0.00000000000000 0.00000000000000
0.00000000000000 9.17193720253172 0.00000000000000
0.00000000000000 0.00000000000000 13.42405720952379
PRIMCOORD
 96 1
Ni 1.418559288480442 9.048345125001894 7.2039529809987215 0.8625480321212371 0.5572984372832596 0.6882431786256534
Ni 2.99870976259965 3.2103063486302053 5.465242646411234 0.8355475922729932 0.05675555962348936 1.8593379882789012
Ni 6.3292051733600845 4.585895112379258 2.1330825290896995 -0.33014018743207013 -0.017833685747311225 -0.06399527190503818
Ni 6.6361532161905386 6.937616440709494 1.320129729631482 -1.3732272268840608 -0.7033396679474597 1.1577705817405157
Ni 1.4154224860347357 5.284310597271703 10.86306880446961 -1.1093124862391281 0.0031817401620912946 -0.03519094607883617
Ni 8.67084654295397 6.598502414905085 2.4406946201571977 0.34909513126801817 -1.3634914876535358 0.7344099069897029
Ni 5.987642240383151 6.159441791875926 8.4475309730495 -1.6277183602222483 0.5487230369094226 -0.9020548319666079
Ni 8.619978980486461 0.20545597422529074 5.9054974556346345 -0.08492739407201502 -0.02741233057468182 -0.7066471350541379
Ni 8.88479114485032 3.331816169684943 8.944247309101922 -0.6092838292116152 0.08023564502330052 1.0431744569594745
Ni 8.937117045296974 0.7301980809008143 10.72450560099586 -1.5549867368854768 -0.1875072111184706 0.6160543151662293
Ni 0.780011787809811 1.1873897889436358 2.247643690691609 0.07899560196861234 0.17838493710222827 -1.2304507830140614
Ni 5.075328013279236 7.637059182543223 13.046921673494877 0.42010540103830873 -0.06021600736826404 -0.33187593917625424
Ni 7.625108148663821 3.1200544887888237 5.735790940159725 -0.15074480678745653 -1.5094769253791358 0.21735437638689017
Ni 7.00420470315344 4.769132069280794 9.952139539849036 0.736359574516906 -0.516416097246601 2.125939017506745
Ni 7.356306191715512 7.617853146516002 7.123019809124703 0.05839849454355104 0.7014522211167596 -1.1430484450389926
Ni 0.4489149521159046 3.7433609817868514 2.2739414683884798 0.9455625254412555 0.2597498106339655 -0.41811948095653156
Ni 1.3821558706236898 6.078627855182592 0.9131672172426585 0.39015976251881196 -0.34301781472568665 1.1793591065445688
Ni 0.4810974445764166 0.38939183272437894 13.039175972718857 -0.4688121222153926 1.1611132729605034 -0.0005476449733538954
Ni 0.7207326419418403 6.95199803788747 6.2824851607930094 -0.7560369983411753 0.27928659511531256 0.8347050417670397
Ni 5.4487725991838785 0.11801164429218661 1.5345310939892218 1.1322608675051853 -0.4235339671038835 0.4158222002819225
Ni 3.206912731949178 9.291630753283668 8.984130559847273 -0.2587895036032253 -1.451314458105791 0.032656609692756654
Ni 5.202313480708497 7.261798553117383 6.134498709270373 -0.8839465524016712 1.4454950232105366 0.32964525007352263
Ni 4.01613438744566 5.505886250731875 4.724032737977334 -0.5435579477687155 0.7468915843964814 0.6031250086990709
Ni 0.8622024322432054 3.8859295701379115 5.2386444402631405 -1.1666593995897132 0.9736004054150781 0.5567837024303702
P 3.337291816059466 7.635325686454807 0.9866867124591788 -0.766381574800293 0.38835433387895696 1.3700143763737178
Ni 3.116238963006912 7.0960249642176745 7.6708284201005394 1.254715054878065 -0.23280079284894745 -1.6026261931403107
P 5.092534567045743 5.169386226965554 10.99383310993288 -0.6719130740070621 0.30931142361217695 0.029406735296891293
Ni 3.7518450234894205 7.467204081689307 10.844140678132755 -1.791092168627625 -0.4439140734221323 0.150733751043863
P 7.635481609383394 8.719026727887588 1.0740558325090819 0.9713738300774045 1.679819451792862 0.5039017668296741
P 6.877815411627603 1.4810935547811066 10.048765895888563 0.6840646217679315 1.888583772517896 0.4431944216472883
P 0.07985180050457819 2.5979603203181996 13.924774181799805 -0.367819961371031 -0.7174946192916031 -1.0482811820584206
Ni 5.203689271254859 0.23029266236192453 10.611234013732743 -0.9807964089428849 0.810014223888579 1.0314517692059075
Ni 3.4475476704449584 5.995163228703265 13.071219051737335 -1.1144161260142806 -0.30823670249075946 -0.8172282251385151
Ni 1.7422277724176884 2.03551880109125 11.716731246194696 -1.1846614925940886 0.9231538187287521 0.03318008629639447
Ni 6.729440987170893 3.0279774134892685 13.607429748407338 1.0934585499260072 -0.5998352822042057 0.4696461880809138
Ni 2.9958022585783373 4.280286172347264 1.4665376908005912 -0.11811622211915787 -0.5919592218902386 0.8954314131128192
Ni 6.664136795903552 5.4730048566738105 12.965101575315304 -2.9686677009092097 0.7668536293407051 -2.0778023099005183
Ni 8.08728205287187 4.319753017153917 3.7644004880155246 -1.1116689022864468 1.039794484743648 0.6568440954890816
Ni 1.174319778753192 4.8813782339900245 8.011584222623608 1.700926666085122 0.641948666434488 -0.8799297179327943
Ni 1.800863965503659 0.6900341688840046 5.112565160207085 -0.13321913919886735 1.2894023218476052 -1.1930288907221778
Ni 6.939377452608839 -0.377232595875627 12.158409540036732 1.2152162254524943 1.4776579810963262 1.0840637389746683
Ni 8.603203507757815 7.42029879599532 10.467328156970616 1.0124849982954176 -0.3665665485799042 3.0544268468539006
Ni 3.5214367947216014 0.30075790256552 13.09335552162831 -1.452488423809234 -1.2186473626212302 -0.7391222248637077
Ni 4.77947801418944 3.4253974426485216 3.94958556433071 -0.12433314956314717 0.6966907951723744 -1.1934099282106803
Ni 8.651998212468806 7.268750881345 13.225233300240436 -1.078486244886891 -0.9490959925158107 -0.9428173585959505
Ni 8.625216156499615 3.2298150585776257 11.6489130270023 -0.3019012471910349 0.187276068944271 0.2511798095767674
Ni 0.2850647184000116 8.581557736495045 3.7307734154813317 0.3054252011838933 -0.05451998542475127 0.8871303494462915
Ni 7.088962572746347 8.695298926931322 9.383240976991157 -0.42420759613214043 -0.079462771413018 -2.0011613242070116
Ni 7.213370725885421 8.338070325599805 3.513451706390513 -1.5790319507601387 0.11056977723046764 -0.28140904077495404
Ni 2.007755347865655 5.120334708019242 3.5994055965650578 -0.36519949302904847 0.02609258332199377 -0.43321982693307975
Ni 4.157318013313382 6.067272997206612 2.4325866278706343 0.20895843901371108 0.3189756861748184 -1.1660317933080435
Ni 5.624305129025784 2.8452540850583747 11.53941294022361 0.49652038676393845 -0.5524915028129195 -1.5744255623363788
Ni 4.302280477215112 4.818357855029646 7.079149517375992 -1.4383111038675873 0.8355465638317287 0.132058800342179
Ni 6.0107188338141375 7.218690449331357 10.77551716287389 0.8042978902300921 -2.7240604023436377 0.13434528238351057
Ni 8.448674713590377 4.760556308208468 0.4110926356090038 1.5109473392770751 -0.4590874387284609 1.6215731665564588
Ni 1.6313940860027238 7.113965272942242 9.21886335689916 -1.8121970689270401 0.8451018116203316 1.407362478004873
P 5.868333684202592 6.280502188018852 3.738626427919969 1.523115342098177 0.8019828689436705 -0.8070978215727326
Ni 1.1795202670184421 1.3413040633336988 9.138654768046223 0.7763787952223209 0.6083394630204749 0.056707479994373304
P 2.330580013601132 0.08535679707742341 11.205745210595401 -0.03352564256127129 -1.0272703841347082 -1.0741176835055501
Ni 0.7936935661965374 2.3703128445800816 7.065899737220823 -0.4155545484428327 -0.23861431420693097 -1.4999252771349587
P 6.906844592155852 3.8917996098023915 7.879236840838325 -0.6203048629124672 -0.7589603426355575 -0.33128664233168753
P 8.437549154038791 5.53498880675593 11.741445030375854 1.0645230978385796 -0.11772669999022305 -1.1073556196230736
P 5.321906366935303 1.2646633579643307 13.099960233444547 1.9705819087582577 0.9917531650647049 -0.5073979529083906
Ni 8.985948437755868 2.132988975332547 4.079731681241814 -0.24140267558534553 -1.1893537558634355 0.881482921352527
Ni 3.1703717350377896 0.49612841489227594 2.154211920300735 -0.30667912819565246 -0.6337748723744439 1.0329214117728986
Ni 3.362184453011652 5.426723262694176 9.258209132137733 0.6711324870872958 -0.8778592085570107 1.3017976101881645
Ni 3.549851455472475 1.95169646906987 10.280518730617027 0.16096468474325182 0.6743368529572064 -0.3715580882572246
Ni 4.476978360792225 8.217468526305666 3.7678647286112654 0.907801504642398 0.39641731339274955 0.2745022863527918
Ni 7.575919050662873 1.7321294698073875 2.1024088202616986 0.08704366908406945 -0.6073421321042121 -0.723109137264903
Ni 6.244557367010887 1.735302960000997 4.093974782171457 0.4015515492955214 -0.7522816450638011 -0.7406569163406793
Ni 4.7076158879844385 4.215037012701778 -0.1652095147756992 1.2421253911385124 -0.6442405477924583 1.4832128494762842
Ni 7.835998495547243 1.478910633780878 7.799269473927852 -0.8227920923795378 -0.056213056856458034 0.7065836288060541
Ni 2.198650872141942 7.393259925790809 3.0915334335690314 0.6401077565710072 0.09674546975286565 -0.09549514228553231
Ni 2.1927258008556074 2.649598325491673 3.488294917653426 0.3933139918770775 -0.5223568882110681 -1.4781048388257576
Ni 8.32014836074919 4.995816491636458 6.727479109851781 0.5180626317110884 0.3206826415635961 -0.2722656837127892
Ni 5.24044122271669 1.3761482519045736 8.335493928503316 0.8190945889232925 -1.4157643289153228 -0.6611190687153518
Ni 1.5902120889816058 7.377465850318567 12.237907303774048 0.5348781606065305 0.885223876452198 -0.732678526120893
Ni 2.9727806967692043 2.478514185083006 7.828386705051068 1.0741043137691115 0.31505141141974774 0.15619323149653747
Ni 8.07109358410967 6.5467635184248785 4.986903203283425 -0.31979766785548147 0.8368056330498106 -1.693470466917393
Ni 5.085004406788653 3.49923153530331 9.102758558304231 -0.27227622523575046 1.3735159617690733 0.08491222456336343
Ni 6.248537987658362 0.5777228834222468 6.010259319771653 0.13994771617195254 -0.7518080478614924 0.885911646547842
Ni 8.348553849563087 6.177024395058439 8.642313564216112 1.0221878274054783 -0.6644612457147073 -0.10499922512122563
Ni 3.8631189628792204 0.4546749285366757 6.3717959799006785 0.20543088547642685 0.535278995589375 0.1650789640219415
Ni 5.299591044273303 2.951501802985464 6.300862970911319 0.6848138412291302 -1.0288539265717442 0.603387004111206
Ni 3.3370992053829753 3.9403191564041093 11.547145800287865 -0.7781438575425438 0.45715936846781263 -1.3081724033662567
Ni 2.4398361268562674 2.0360324295618923 0.6311961931845674 -1.082205088499375 1.7918413880888235 0.20005856542092
Ni 6.18205061652115 5.328932070658727 5.615189140865587 1.0591111827943889 -1.9849731444829233 0.22431280998259434
Ni 0.8319451293539032 8.168040957943349 1.4203184659923909 0.49670756307408004 1.624724310590931 0.33560429587043494
P 4.8995111533910825 8.25594480191894 8.168323453602202 1.5419191050682413 -0.12921181781168714 -0.34350863831917616
Ni 4.805471283578716 2.479981694999126 1.5416457655013114 -0.08814744367120948 0.01389861235896316 0.48203607710483437
P 2.2593048913625777 5.571199613936192 6.030502701870831 0.5448488986659971 -1.0881852173422097 0.01150337265390922
Ni 2.8089148707604523 7.74063786681037 5.406257002526487 -0.32645631082257964 -0.7092781449190817 -0.6125738128167966
P 9.02248026273028 8.268216853592492 8.362489690604042 0.06560966758000958 0.3691211966809578 0.3455884036663403
P 2.023439360094187 3.541101427597609 9.544759704327815 0.05073609290228682 -0.4759721302989416 0.5221751112175652
P 3.9234886520536083 1.3506410951750123 4.184788881749451 0.24274479143553676 -0.36016013083292814 0.19681563300359006
Ni 1.4821208117223903 4.222631376517699 13.132029911080258 0.10407799885853687 -1.3837996030832684 -1.2537938286153762
