# total energy = -340886.8463074276 ev
CRYSTAL
PRIMVEC
9.14445090675669 0.00000000000000 0.00000000000000

0.00000000000000 9.14445090675669 0.00000000000000

0.00000000000000 0.00000000000000 13.38382823730416

PRIMCOORD
 96 1
Ni 6.6245786363159285 2.195162036122097 11.464386308812294 -0.27507667079902304 0.08754374864893955 1.474530234100622
Ni 4.88489255917475 0.5390269787166467 5.68854166041925 -1.040160095613183 1.8803130478686712 0.5634346320879844
Ni 2.5729375951058095 1.8725458054640471 4.782778303944808 0.4756561417204194 0.2573265459044536 0.37753770287942723
Ni 3.8990841654712223 4.352987278883173 5.269587724216822 -1.177240260429353 0.6534726079136874 -0.6681842030922494
Ni 3.858610825423248 3.282089768788684 2.504917510918541 -0.6434905570003111 0.2028844649054893 -0.3063968210685433
Ni 5.495037762071492 5.128281266521538 3.0548583918826475 0.2693873337237296 -1.4044879846705554 -1.3780716994605557
Ni 5.461569071476014 3.395782727852503 0.489727414580488 -0.19804050654962665 -1.5382961636036734 -0.22965401968984964
Ni 5.536919347570752 8.481606308462892 12.411118634577955 0.9773501022654973 -0.8345122090299434 1.9618836096533117
Ni 2.253046410840506 5.891852068000502 11.376267635810873 0.47630688793054093 0.18696676523396832 0.9211187905765943
Ni 0.7359527306220072 0.37993822164104313 0.30010716456494396 0.2683542644735249 0.35235271897336734 0.5126759134778783
Ni 8.290853060970631 -0.006118552152304462 6.919145178030654 -0.25360178875469874 0.003927102968548075 1.2801088123608213
Ni 8.70803205923738 2.7168986869212772 1.472622386201032 1.182578127702499 0.8201294579457101 -0.35162201145492994
Ni 0.36207910887247247 0.30026079134144773 4.92840734361946 1.6902298484929084 -1.051367534293228 -0.6114075604228373
Ni 1.9005461143720672 7.0442723586028295 0.2900299795823711 1.0440761428381373 0.16342291647575724 -0.24625820390543396
Ni 7.769884544053971 4.580738975050107 3.7551944003734175 0.027922951662513202 0.3159566968428365 0.2553642799717602
Ni 7.421490106076617 4.311626927089909 12.798192271320541 1.4146052756102154 -0.6906391896616557 -0.025551880327175345
Ni 8.413516726448156 7.659136098206475 9.259159889939 0.22669082329646764 0.01197028498799874 0.40176777907138544
Ni 7.056251589389735 1.234985538522156 0.6590213789524179 -0.9324059334546394 -0.8474625985430243 -1.2601331405698426
Ni 2.43926401064551 6.892154416511087 9.160320262605845 -1.445210402090582 0.2544373972821167 -0.21744925009354166
Ni 9.108641312324073 5.3069455498151035 1.414482881300215 1.6216405294592844 -0.8416261943669054 -0.21553223557648687
Ni 6.69481716431152 2.2509157537616136 7.007210813216378 -0.7698744184449 -0.17918532151633657 0.40136334454411526
Ni 3.662709252027913 4.732527716906484 -0.1371054969139837 -2.615707944479463 -0.7590477601430412 0.7208254834370489
Ni 5.957692115073573 6.09035066547483 5.213991291134203 1.0675739688497614 -0.9248594885659491 0.11548315537168499
Ni 5.445456548845077 3.072709274645334 9.533354423755199 0.5178739127390501 -0.5357613345424321 -0.9783124661787669
P 0.2674779345696476 5.987914525570309 12.556065498209321 0.39781187974743104 -0.8472322276997731 -1.1040923754907694
P 4.22226735209018 6.641230681554825 12.409404964463857 -1.300901066515824 0.6822941601310701 0.280965011259
P 2.482928764086332 9.04418207734934 1.552336394304557 0.7483784533546531 -0.4349555786772638 -0.34903419612309566
P 6.4110008391716695 8.231212951663608 5.920698238624391 1.2039977310288554 -0.6931917808801804 0.8064154507937273
P 4.904836606767301 1.5545109447481649 12.592509793154461 0.45513976693462255 -0.2530019503871707 1.627617572978326
P 4.300580430303206 6.386155365852568 8.051028860616773 0.9242887036641436 0.03088177718052101 1.0629794075005436
P 4.606882960408705 1.8822114901524132 3.9190391864049525 0.18818135436735978 -1.1887598310331784 -0.6363009812304073
P 0.5192804512653147 5.962163751603952 3.8998870482674746 0.8471244984773153 -0.5929930624713917 -0.8013164390042651
Ni 0.9265340624357984 7.587306435739952 2.4976495012777526 -0.10003185381362127 0.4252411796029773 0.3085822587556363
Ni 2.522478514585086 6.338220153802979 5.08659080004781 -0.9093336250162082 -0.2694490401996005 -1.1168807855046894
Ni 6.511489211016945 6.124733801168545 9.334497363802361 0.27571970369966065 -1.479581423371284 -0.10403866098016921
Ni 8.615993160099816 2.726381482589996 10.384873811447312 1.4398686781626944 -0.17768611126299078 -0.41287520183845666
Ni 2.6232503644108154 5.129067689306021 7.348832870796188 -0.7857982887640079 0.4830791736573681 -0.2941187750321387
Ni 0.5349942758334212 0.4426170320095089 9.366524888923017 0.6504268791088282 0.7081522588447546 0.004157473811799291
Ni 1.5537336664146633 1.6660275244781795 11.573933173800707 -0.5290610397041211 -0.15533885391604216 -0.9678886997422815
Ni 3.9512989805805607 6.973604041411066 1.6254663977007746 1.0452593645129613 2.0390719832098556 0.2204281302162075
Ni 5.853198473698019 8.153329662646755 8.303956144783271 -0.8262630816472739 1.150740671476928 -1.049349732532251
Ni 7.208232364716743 0.8408597011819641 4.9210332583472765 -0.8834066207378012 0.8197239949771753 -1.014703603213291
Ni 1.0600521912293979 7.498705850171758 6.44530350369674 -0.8018869667957544 0.3132930339677443 0.5636526616360615
Ni 5.40184666211015 4.42532903060471 7.5541001908876675 -1.0441339926592663 0.93704214667507 -0.1436606462471655
Ni 1.0034846174524508 8.047601520388579 11.476914206658142 -0.5500646385389817 0.030850152611637194 0.04796984301105932
Ni 4.82207018092586 0.5141687031661694 10.551703346279494 -0.5289813355061213 0.3092111505888868 -2.1734951700191534
Ni 8.186697764281424 7.289590545106897 4.756813549825465 0.39375673584145093 0.37032087341601383 -0.4822070554650598
Ni 7.711396635570726 6.778571190859056 7.065965739668308 -0.6562470853350311 -1.349535796804392 0.01135579133245141
Ni 2.468599409396956 5.508388660505754 2.4843196350807504 -1.0488517098499097 -1.0192691110967866 0.6505567198184732
Ni 3.7622557454220042 4.738663643515655 9.583396517311124 -0.5748498159034616 -0.061952530443396533 -0.5860971066825068
Ni 0.8291740072715921 3.620086965999082 3.6513756194803624 1.7799875740740312 0.7753848067401679 0.0891630294199174
Ni 1.3173221751674247 1.2261337099712208 2.931727444959923 0.1452948394164788 -0.05456086596501571 -1.8333189385073199
Ni 1.1495397885428809 3.5504794051212736 8.682343467537704 -0.5936088416785196 0.40928491338403705 -0.7874749051354825
Ni 5.841585020950409 3.360238246884027 4.854328146211273 1.1415068115834859 -0.93557044722555 -0.1516187247519776
Ni 4.360677762159348 7.410781953976261 6.163239255365113 -1.4474714302106169 0.7074272077532721 0.6044480983858687
Ni 8.597905436056687 7.4501853932592965 0.22005938400056257 -1.3660101403103313 1.8616596944335424 1.6982113240364882
P 0.3972962184957798 6.18642226749562 8.04240930112079 0.9678125950887075 -1.3723409676243656 1.2041638242930746
P 8.625165044435134 1.8780050427005226 8.04741497358854 0.6398856132578722 0.8842437719271159 0.6756100632426751
P 1.9537119523835724 3.9082286164535933 10.626183985085808 0.05818612142242883 -1.3361809727640408 -0.14549024325673654
P 4.269105230021884 6.5174331041554865 3.843126526574799 -1.7198867521273928 1.3202761286083262 0.3181814724082972
P 7.098947031026426 4.268977207708131 10.499773838040804 -0.49142831695301165 0.5359323129026577 -0.24638418796033698
P 6.648985175987876 8.232118252310862 10.460064059649858 -0.0016727597167326032 -0.24345570145963233 -0.01233306764405618
P 2.4955663953439684 8.97823229686448 5.803870561763815 0.15614386631584076 0.36051468595886943 0.08312479364563748
P 7.053517398546007 4.694166745035437 1.5931041856741635 0.5030170502318756 -1.290259784751894 0.3525072422733606
Ni 2.907213000766383 2.173809743078261 0.13641874864520762 0.1275863663931222 -0.07252439242197187 0.9552098187230323
Ni 1.6158336330359448 1.7181691839796593 7.09682826173381 -0.14541156750000117 -1.7590194564627966 0.9311808027982866
Ni 7.107826292930308 1.0523708524042064 9.397441363249316 -0.585401880387695 -0.9378828974088105 -0.6757208777889265
Ni 2.925035535731024 2.026730393477805 9.224589293000145 -0.1045683082313941 -0.542531049166098 0.3152694409678248
Ni 6.446965964885336 2.5950671664831475 2.557020763725895 0.151693543853971 -0.011196640046767814 1.032250868068435
Ni 4.632377689747556 7.018018639832442 10.31982841716461 -0.8607631723066724 1.071146259582052 0.34182533707948226
Ni 7.154892782136572 6.499656291445757 11.827503312871265 0.2973061716211847 0.3673373653076577 -0.7343955088119997
Ni 7.82406541612452 4.224333998012195 8.364731994902305 0.5630710781009786 -0.08137772904754373 -0.7140405993047315
Ni 3.2398424052501293 0.13225619455803234 12.364543202389441 -0.8566018418401312 -1.4758872623491486 0.4291667399096286
Ni 9.134922464447408 5.191021344711585 10.52682220960156 0.04086768474863929 0.6177234753385361 -0.7935406517135882
Ni 8.928148138834034 2.3279577532880897 5.880626339974543 -0.6421846937046941 1.94600447652921 -0.6713793129907792
Ni 3.8275379809851513 2.7995645238019113 11.218632846441466 -0.2959136621490323 0.6525233566265408 1.0164856348143783
Ni 0.7883943281157085 3.7901005986633245 12.58822653231432 0.8913909244948583 0.6791671844663141 0.5810901403862185
Ni 3.1483796065244545 8.96974624635284 8.047281464604197 0.4151418863854463 -0.11277475530158641 -0.8016704799095742
Ni 6.069519606136989 8.103894760636056 3.6439347797160075 -1.3313460132692425 0.23604166838374835 0.24388507568756707
Ni 3.532556281195826 8.89403933666979 3.7495065518623827 -0.34803532254493613 -0.40868790322998644 -0.5912403414463431
Ni 3.782995360250022 2.625399310391672 6.967822005054912 1.1220523024033 0.2983551817109894 -0.09052828519856021
Ni 5.242074814546163 4.797233852057741 11.457962331997178 0.45846471754279755 0.009269341117067908 0.011777452250902296
Ni 8.197771694421077 0.04876461375369004 2.5260503371388006 -0.2012749543265243 0.5136681021878187 0.14937003792711692
Ni 4.717393650530659 0.8614740370315231 1.5346437105438655 -0.6879269329368153 -0.19975697502010112 0.19343283257428623
Ni 5.633201271964137 5.731641286789361 0.3999892593100881 1.1382420247892848 2.1799414398651296 0.5957644545689417
Ni 8.020159022990486 0.05823917941652467 12.050571221245029 -0.3638758891216185 -0.4839975717065793 -1.4357379438237725
Ni 0.08857040887995117 4.9036844059435225 5.8588643755266965 0.16663962364084203 0.9922799841024523 0.8048175101789881
Ni 7.58776365828907 6.810595058199319 2.4051277751283187 -0.4729911932937466 -0.3381262909613402 -0.29080667993977016
P 8.477098094128582 2.1285264218135596 3.6284760853303095 -0.9399500643504844 -1.0908457948935084 -0.2018879053201749
P 1.975091678780356 3.6566647699285664 1.285733583693922 -0.9793702180193197 1.0464186749283848 1.096227370920396
P 4.858730284914186 1.269350385313906 8.287734803185643 1.2037994989751204 -0.015687328828269755 0.032590789451827744
P 8.667979363934597 2.0252581368696436 12.581266690671637 -0.3847355061794471 -0.1452138496668983 0.5278510785564199
P 6.225551373249186 8.316027734525099 1.4519714725475434 0.8315893789561937 0.3741749570547814 -0.5771596949835609
P 1.8539734255188516 3.599749707014289 6.026738206661063 0.36065841062558535 -0.4437286968842036 -0.6436551076026333
P 7.058674868900064 4.469615606712334 6.213254830013192 1.1532369555362203 -0.1999672912586943 0.26128373077998873
P 2.4837334757727803 8.96828313419566 10.224201235461562 0.5672743175490488 0.35238614331446405 0.0073538692619099155
