# total energy = -381175.6561946664 ev
CRYSTAL
PRIMVEC
9.14471535364124 0.00000000000000 0.00000000000000
0.00000000000000 9.14471535364124 0.00000000000000
0.00000000000000 0.00000000000000 13.38421528205738
PRIMCOORD
 96 1
Ni 2.5053868696956503 6.2799962476336635 11.415825801401164 -0.0258113046361491 1.2768059732398331 -1.18852663197645
Ni 0.41131833272377993 5.943973673978179 1.754924871892012 -1.09090878692096 -0.025787907597381397 -0.08392157851531999
Ni 1.116469179344793 2.477733249809021 8.203278991073557 -1.3013600084301138 1.5249529095275478 0.13931599612522458
Ni 2.7139046741450272 3.9770550912482623 6.969429157131284 -0.4816031033324738 0.33028185521625697 -1.5216495561859278
Ni 8.134462262987299 7.142553254434759 3.2405195807876623 1.261051281508738 -0.6109838426218575 0.8656742364550445
Ni 1.1018284897156616 0.6883675501336022 12.527732682147597 -0.3042970011167211 0.25238771384193953 2.5941153059103517
Ni 7.120834554953692 7.314044105537257 0.9841570331630238 -0.4847115670544684 -2.564568959711803 0.12221430344793145
Ni 4.852304963261871 8.771492294377003 4.64579533835188 1.0848882917584928 0.18884624164486832 -0.49502811848912814
Ni 7.505031490237074 4.716094424832195 4.835181483355219 -1.970530229584716 -0.12821140157163077 -1.0557057566572658
Ni 4.926258278084347 4.79106280308305 5.806942854561787 0.5336846545190616 -1.7749361276930529 0.5688568315448204
Ni 8.424669811632196 1.4538085920424975 6.874601200074943 2.7006744193195296 0.09114226463347529 0.44290260143848237
Ni 0.33746652424414125 4.373890023450732 3.779608793940665 0.5189365496756095 0.7288861489579963 -0.9545089360012659
Ni 4.647435900325314 3.1521834573151564 12.284487820317443 0.405405890044605 1.2307508307529837 0.6928138287154714
Ni 6.497585609929447 8.49128906456675 7.145645082769305 -0.32139997934559483 -0.48812599205265617 1.1050632240444709
Ni 6.663735947138496 1.5176112725811914 8.227023245053594 0.6281477559956536 1.2443051723986507 0.30164310843364184
Ni -0.048257578539593296 8.362659495345413 1.2902955908041183 1.5323607719558447 0.6897714423447218 0.5225939439225387
Ni 2.197337980971779 3.0158631822986286 4.787172641079158 -0.5838098533102267 1.2425969314582923 -1.5301925606599325
Ni 2.669680829643791 3.905936638252788 11.077017747382762 -0.8047082382946334 -0.5366175118951404 -1.777382018130384
Ni 6.6282270165764 7.08649614798468 5.244296854097953 -0.7824142027831236 -1.0655898485401971 -0.5363606586893279
Ni 2.603957758835192 6.6633610138000865 0.9835150741299412 0.035492279369338874 0.7357090854171007 -1.4100415674989328
Ni 0.5645910814657813 7.344203377490333 12.212293948770823 -0.9989075167212992 -0.04932404304610861 1.0142099514063243
Ni 6.971611086266519 5.541853096175686 7.290061174480817 -1.2043453441762615 0.6237169739178097 -0.07070585115599437
Ni 1.9527534183104762 6.347621419281025 6.882712562786398 -0.5571007194501566 0.3412851483052961 -1.096017826012751
Ni 8.157351486061449 3.794755186340871 8.458235490135461 0.012860658012752045 -1.1887947980361722 1.0115097788663419
P 2.882359479677961 8.686903675345482 12.649261379728072 1.7875437891547343 -1.3816023383216334 1.3035292481672907
Ni 2.382783668035586 2.830591244830671 13.195886752983116 0.5247372155177866 0.12290027377136255 -1.2099017552181162
P 0.8321480841129312 0.8363866597800782 5.21505296817353 0.6898696584854829 0.32664091602956 -0.41072987336067973
Ni 6.800165958741875 0.8310644353177705 5.537571540345355 -1.6465144098828286 1.379553940433037 -2.092101243021694
P 5.861808404572967 7.534715236980459 3.007004696325025 0.3919027133518477 -0.9269109717783391 -0.024570490250512524
P 2.7094054740841074 5.156101559245238 4.979918554583273 -0.23810086490562224 -0.03841742343593384 0.07942908996160514
P 8.645853047147373 6.031104523938431 5.858418458510806 1.3614225209396487 2.3421235419552504 0.9523327542855534
Ni 4.045375261279018 8.027661129833879 10.556465787163681 1.74155935200482 -0.1735664326676624 1.7387722761779862
Ni 7.113079836149506 5.292412689546195 2.607606500348011 -1.029379202947595 -1.167079003625635 -0.8594953613378424
Ni 0.3539635911341805 1.230366611781289 2.9913855221297996 0.018247890466594377 -0.6199194545485904 0.5647366387288596
Ni 7.817625302599719 5.828951441526453 9.621885914997144 0.1829537874198333 1.1867944797766916 0.2363946808477929
Ni 8.475139496868408 7.361477745203905 7.890771139037279 0.040590519827852674 -0.40248434552243584 -0.2907395741472606
Ni 4.9516257190782325 0.33711262375154444 8.998167846064108 -1.8471188205048896 -0.0205917081084226 -0.5862405742389065
Ni 6.625401299464968 6.86416982302313 11.506931859220119 0.1093389901471601 1.1227480429187437 0.4152341889889365
Ni 3.536133485278121 1.2989611232791742 11.481167537570453 -0.45277152381276214 -0.17527081695327879 -0.9137070714935555
Ni 4.090605024493062 8.356276483876872 1.957976879844617 0.12343043524321969 0.13243495273467515 1.2230663176245324
Ni 5.008944796277105 2.6297367120297714 9.941327290379334 0.8778113860382107 -0.08153662322291119 0.992545321948697
Ni 6.58894131848349 2.129465902004001 12.8308315363329 1.4453327866010592 -0.2632187430191725 -1.4141797580370223
Ni 2.296292948165302 5.080977720829677 2.648749490173386 1.77354696065501 0.020999485069802544 1.5535937131926922
Ni 1.9151046243047711 1.0305362871243389 1.3677860816094478 0.30601064137371814 -1.5497653405855374 -0.8257712296125199
Ni 0.9321117134339326 5.1291703718887165 12.925150132731936 0.378589026962077 -1.3019472483921513 0.08749669746108803
Ni 5.569717044520448 5.268142614420826 13.263650924307157 0.12155173016326809 -0.3223777698778319 -0.2104944160422633
Ni 0.3287598405490157 4.051365049978006 6.321418151283953 -0.004415612569192395 -0.09293740886068509 0.6058228672462083
Ni 5.168090281358787 1.111677348385602 2.895634863272346 0.26095540090629255 1.8474294097667734 -0.30309681016103285
Ni 6.519432335428507 9.406345883460814 0.8468637604097445 -0.08382567636740401 1.5582150140147875 0.1969498445886092
Ni 4.476237680121086 4.027634513071327 3.5040949742752097 -0.22635478011328758 -0.934450474688494 -0.12515770234697154
Ni 7.476381096353209 2.2765769413942794 2.3870880856548435 1.0103710372762083 -0.10108574899943237 0.6690599208289832
Ni 4.207181858591854 1.1842863900191452 13.915836492812637 0.6017348132197637 0.051913915260471885 -0.8271899643369173
Ni 5.809290303048856 3.0452451534281724 1.2810246781582635 -2.767831891002633 1.8326977599835534 0.34868118365905115
Ni 5.5392925758158125 7.063579490763817 8.895604374106279 0.31198279979675303 -1.4300527205135372 0.21464983297153356
Ni 0.19862688008781004 4.40931665157269 10.717919398455477 0.24457258867289491 -0.6047694862810294 0.4616690834127081
Ni 4.031200952144006 4.789270438831139 8.571466272806832 0.29399947584545494 1.576862968133278 0.34032432705392357
P 3.2324557705971766 4.968342259141975 12.835462420298041 1.6306519889292757 -0.4899455617598981 1.9032318614483739
Ni 1.9367410213456986 8.752581022576226 10.75065748019957 -2.227113726675558 -1.683274757331314 -1.9899060630081664
P 1.1454396382736425 7.326993022785757 9.007443331067748 -0.47697588897310755 0.4451957683480332 -0.01669802948097124
Ni 4.354018556515002 6.500310735169598 4.406699433976277 -0.589648571479191 -0.01607273719214651 -1.730423904213291
P 6.184260220321124 2.9520970806222184 4.514991155767765 0.1005195920833172 -0.6394644665600536 -0.5380647858646281
P 7.910855677845812 5.8237298089354255 12.985219025903003 0.6200199846821967 0.6725774470639385 -1.0549267123993962
P 6.134238626147889 4.480243065541173 9.357574371906132 1.2024692101994712 -0.5277248373912008 -1.4957312936582692
Ni 7.561344648723139 2.0120386093571083 10.451439643302589 -0.473199966870443 0.48753720942872164 -0.008317004506127611
Ni 8.943294065808914 2.670677603641027 12.343003940784556 -0.45254963760994316 0.7257018376927437 1.2337171124701591
Ni 6.998021024835495 8.647069294318314 9.554710663355873 1.229407943571844 -0.025373959988414366 0.7052402274042822
Ni 4.447120905743101 6.877246766289625 6.748469052676038 -0.2143533847770373 0.21790202136024409 0.6152390183537856
Ni 4.739879830032302 5.807644254246081 1.9796324807882437 0.2103352647565797 0.9047089817600033 0.004251576187502355
Ni 7.000572400479797 3.2962675958514414 6.547557822638598 -1.180318899354677 -1.2651452490724533 -0.14193620735689103
Ni 4.853941867349076 5.477958968481282 10.616854745379731 -1.1472532271489597 0.5000050028784292 2.169474736005851
Ni 8.521329455217403 8.355691222080331 5.448647411661635 0.9325285750754326 0.008772089765675216 0.10404945961344662
Ni 2.7067900854308085 8.293927813113964 5.167980544771935 -0.6915249347007187 0.8447575409070354 1.1531312831962914
Ni 4.83953894032479 3.01099819361487 7.602943959855505 0.5439698384951535 -2.060720928938199 -1.2707307135800308
Ni 3.1536008882286573 6.825670570469326 8.915774873241178 -0.32681446549294685 0.2509466105200388 -0.12159878135111961
Ni 5.750901294128179 0.22153073470687454 11.528346954144228 0.7620099280951586 0.42061550790550783 0.37764748898441414
Ni 1.0517337378178593 8.851005596266631 7.174621942999054 0.5044041603873893 -0.31881344956534124 -0.09517709682448124
Ni 1.1188285159621045 6.839918037328904 4.410125958900721 -0.12578633706990597 -1.3857032478638844 -0.3727693349565064
Ni 9.090642867804037 0.6856296222916521 9.121985465951997 -0.5918396655932388 -1.169293751888767 -0.9054831409218664
Ni 6.991894065402942 4.362632878582861 11.429732170369945 0.08213774714201982 -1.02763753766614 0.5945565503037695
Ni 4.359267623252743 1.9488760589083827 5.2195091880712665 1.122446452517925 0.14879102549519538 0.39920978853622213
Ni 1.2921848890410816 3.322384903522147 1.628190087736981 -1.5154028039452676 0.4040545182230331 1.3772342911609248
Ni 1.1783148907512981 4.8696890675622955 8.662277870784402 0.47108420607902096 1.0683548128798441 0.3490367672262569
Ni 2.4554018543846996 1.6771408357168542 6.563030681384689 0.557904960519007 -2.258867107827755 0.10112123022305809
Ni 4.994880223728946 7.620584116191917 13.452207643608208 -0.7957957662963522 0.38796815418413183 -2.1040427316542862
Ni 8.497498326439443 2.471898921274739 4.650225038574461 -0.5181742175882882 -0.3019426419519316 0.4593036685043251
Ni 7.334363663535964 0.025863999049389196 3.1885885700032084 -0.3953029972826483 0.9680972162086617 0.32129559255724666
Ni 1.121553641202255 1.9238103935283397 10.68191573878099 0.7643789425479675 1.4007215756495877 -1.6687711643985004
Ni 8.534671595235457 9.101863433809624 11.231043106216253 -1.1714064273563953 -0.11234126730859363 0.45563907516854435
P 8.622241391543115 1.2013504292745847 0.5744106770458945 -0.5561373270956229 0.765861440630765 0.6792412322373592
Ni 8.150675843694636 4.135962813725098 0.8470119048019943 -0.42570294973074424 -0.7867187436957483 -0.32591175117301935
P 3.0347744540994053 2.930972787653266 9.129587468006148 -0.8207071848260511 -0.7739820128553703 -0.26386640390550037
Ni 2.401704084551933 0.737738040558183 8.821335566596602 2.00210183374341 -0.5180222653914562 0.44508983889778825
P 3.40868358436544 2.589207332619209 2.1304462155132096 0.16970746393288838 0.290654470632622 -0.2545813790591487
P 4.43342212181778 -0.10226992658800131 6.724256589258768 -1.0413862547108002 1.2667357334880247 0.818385735781726
P 2.1330231963611106 8.123753801053686 2.744781806270425 -1.5857690123736559 -0.18884649875518444 0.3180614018906652
Ni 2.7506664307403472 1.0346879879935615 3.5884686924908125 0.3137486334479242 -0.6118973555750623 0.22299383406085466
