# total energy = -340853.60198927973 ev
CRYSTAL
PRIMVEC
9.40549756246303 0.00000000000000 0.00000000000000
0.00000000000000 9.40549756246303 0.00000000000000
0.00000000000000 0.00000000000000 13.76589640492749
PRIMCOORD
 96 1
Ni 8.004736565251344 5.713783161162771 4.253290020009304 -0.8030354785779009 2.0923701804123644 -1.5006207605400865
Ni 8.17354643033075 8.130309359360725 6.463749297324834 -0.4099073774593844 2.4731893822565403 0.5480062133480562
Ni 6.454033418640466 7.168296287149229 7.8304959660457465 -2.5486407185173205 2.106216085156521 2.4233174371267623
Ni 6.62309723214628 0.8343249817651218 7.606249159481799 -0.8042446683946535 0.9372200670138311 -0.7460523763246377
Ni 9.205301264831293 5.024604753884608 1.5020240549179322 0.7676725256975747 -1.003182489947569 1.7147813125800273
Ni 4.428456120146694 0.7892218601358713 9.496554715076917 -0.5531113957851055 0.344970053356051 -0.38732280729064905
Ni 5.4339602117546235 5.948215180725074 4.049045884498643 0.2520329016056821 -0.27000002760706404 0.15938062808558356
Ni 2.888926704297703 8.71900883925738 11.781403951434458 0.8588811247926113 1.6942073450834176 -0.45868506108371976
Ni 2.456969836477508 5.807377264539481 5.290041054661963 0.6746325298207543 -0.2880633128666781 1.2491619862703196
Ni 1.6242259188041988 2.413234274151943 6.600995254101368 -2.383156034416528 1.1655502256859347 -0.6840697639742542
Ni 2.649998857038277 8.618567533864969 4.575536464873251 -1.963185873404503 -0.6528228901448305 1.6810366120294145
Ni 0.26955402748405105 8.713262080422775 4.6719663256781665 -0.9216772341832256 -1.5700904252961345 -0.1345604837181102
Ni 7.624999018298146 2.5270407911711557 2.2040710635668144 -0.006241352924021509 -0.9324637832757683 1.1659855134511403
Ni 8.352166229067269 1.72898434744552 5.269626422828063 0.4367838901352542 -0.9518910387624445 -0.17814196785348674
Ni 8.136112551178977 0.46032949089789377 11.552862594815059 -2.251933356822399 -0.2407159339309661 0.7304815184695741
Ni 1.538626488110657 7.781346599489086 6.620928324474822 1.8879546235743292 2.3091632849791455 1.0019617301665906
Ni 2.9507302268872273 3.524804158522323 11.647476254096304 -0.36948449355764756 -0.2850921460534961 6.832633374677168
Ni 6.236220912761877 1.0485248361406463 3.7719514698497734 1.568797160406008 1.1908853620166135 0.32896005108103993
Ni 9.047693347005595 0.7016237612715377 7.541576960223608 0.9229895252367458 0.9828941720121782 -0.524442052874871
Ni 1.6185638094450607 3.4509710049189497 4.333779444033711 -0.11157507856653043 -1.070968596353607 -0.4219884769936345
Ni 0.5077576514533549 7.3232330437490205 13.48179558716606 0.6974986357856504 -0.6283889254721824 -0.781899467930234
Ni 1.3708888497205216 2.25184534642197 9.087281085033188 -1.0843478458739906 0.01573026625106323 0.03171250061193248
Ni 8.287578679284547 1.8465812798662817 9.575502578098062 0.4149940479536724 0.4918165535303659 0.4663454058424549
Ni 1.921637148115316 2.1704501730100474 1.9739740376982424 0.8131797661007544 1.1630868517471065 0.4722890250203995
P 7.647976648139298 9.191569238810793 9.046836506203904 1.7642555080507552 -1.81457533935123 1.3794107299869534
P 1.9454236507220588 5.287582457674458 9.764590695300894 0.6775160220161364 -2.051495039464557 -0.7640804374709422
P 7.396351379559547 6.1362686932277315 6.440663504265028 -1.58141407783907 -1.7160897469788057 -3.281238511998949
P 5.059706069712352 4.045294972185646 3.2344621009625807 2.2217938571245415 -2.2957940627610913 -1.580574098436278
P 1.804237731137315 0.4629084782505109 8.001110746052095 0.07877243021421272 -1.1578662267781155 -0.49945658657412684
P 4.555449144344497 7.6888341282989225 5.184112582159717 -1.3371417940154133 -1.2749570929565526 -0.3352250581541453
P 3.181070855135204 7.841278428121021 0.9975498625630407 -5.014098536457559 -4.104073798911597 0.36663056904862024
P 1.2332770191000175 6.489463926872812 11.255120291999885 -1.2100979303893225 2.2249450011590133 2.022035082332227
Ni 5.658168455779746 4.963892268978904 8.630074219230368 -0.7422137193048379 -1.7321974511739457 0.9791259632189976
Ni 4.727249957557135 9.023427164037862 7.171219515702085 -1.3520778464999552 -1.9703543661284841 1.1208911922156632
Ni 4.770186052614385 6.309828334430667 1.2293906676262705 -0.17489877832584072 0.2903752488293063 1.8414266552161191
Ni 3.6597448279169216 3.9611063660832517 0.9321299262715422 0.062254377954531495 -0.2156106542229061 -0.5897894679324294
Ni 3.662698154061057 5.510464526583902 10.89029704207457 1.4733819794287915 0.6551163141646976 -0.6550875178092912
Ni 6.583490683124139 7.687940606057863 0.23492580816920516 -1.264516871459835 1.3153684068940639 1.6616996022636994
Ni 3.4183903623607224 7.1096906336329715 3.1464708523121807 0.6491112456211983 0.3852736380711042 -0.3563361291011476
Ni 4.143939827598663 3.4700453533912605 5.122483061269768 -0.41240417573930915 -0.36388745908584424 0.6722347190125391
Ni 5.192521096722955 5.543694148454057 12.991439986769645 1.7196936622799803 -1.7188922494246073 -1.550328155067543
Ni 0.09660856525312744 7.945839341319583 2.081032110423134 -0.08103345833424754 -0.46890159660540537 0.36070751869596585
Ni 8.967652565201174 5.139295387647605 12.923010291350364 1.607651414269044 -1.6143200845384715 -1.0115606867089353
Ni 5.9084205217574475 7.984110309728771 3.012197973224059 -0.6195592429956943 0.14644669363273488 -0.16961850376350787
Ni 3.4295076601389627 3.227063736806605 9.77982948198474 2.292180120157588 0.18370686353577395 -6.10203255702091
Ni 7.544412717651814 6.805780205705302 12.274622585201177 -0.4551652208559193 -0.03454997006072759 -1.4899126300939631
Ni 6.885510606099671 3.6017411262262207 4.51880720806322 -2.179537262448175 -0.7267169092208194 -0.2900754582007004
Ni 3.6904067490311894 6.406309925470591 8.096053597737942 -0.26817145903875755 -0.00873840831426237 0.1816859764510032
Ni 4.472756012308718 1.6963754883954696 2.610398891864228 -1.096733621132853 1.4804260307597665 -1.0026749541835311
Ni 3.317760947022825 6.849525173528141 12.858819653552619 -1.5264822016878807 -0.8852932962375527 1.1766306518698124
Ni 4.921275960828981 5.460596580035483 6.324245080652737 0.41545710363301996 0.10385019911844696 0.21438243824275982
Ni 1.3527362399810936 5.694690001695911 7.842843502867468 -0.08085990887086075 0.4498795469769478 -0.004488374788656786
Ni 7.552256902378593 3.0223624941284113 7.410608232327953 0.2352747083107367 0.2909450052898473 -0.06629666634470519
Ni 0.7940788589283276 0.2185150965249802 11.011422917072654 1.2825405617307655 -0.6026771225283749 -0.9682905631663905
Ni 7.761933653114899 1.4182737449885212 0.013390606469442394 -0.0847949822592088 0.07635147947754593 -2.0927653589682538
Ni 9.397135787238224 6.380849244349021 6.089936273104727 2.010441721067673 -2.2294372326024123 -1.4284072144903142
P 4.565259078001607 8.053156065219518 9.262851621553372 0.08735271568405602 -0.12558681946459013 -0.6617299628264732
P 1.5250543555438205 4.053863380202547 0.048501327794460626 0.5270625212168536 0.40616128015339087 -0.06832295274611459
P 5.464311751458838 9.066250393127818 12.649853958410251 0.07306252431362902 0.613984320011078 -0.19786078643865276
P 2.5980428900949604 1.430152888045981 10.764118533940723 0.13056704628800095 -0.4165683344193277 0.7760116416908893
P 0.1412235415738411 4.055537558717376 7.290088071354335 0.482443339845582 -1.4410768395381828 2.523671707276809
P 5.260391165054413 3.4112045624431455 12.533861603824487 -0.3851761932612915 0.5057334207217742 1.7620212194035978
P 6.395775768523359 2.7585477010811474 9.757735028337645 -0.6008531819457588 0.4109941827656599 -0.6142473438644777
P 5.438691176883604 1.8578396601036369 5.935923136337272 3.7529786064944144 0.8558168840449906 0.21257392427911134
Ni 9.006882894332342 4.3595608526123355 10.536388871736097 0.7873165251807474 0.7215713604641381 -0.9291516881833997
Ni 2.36706268803233 7.890995886713051 9.594554353376916 0.46134023931837964 -0.12739430498697416 0.23517957749376917
Ni 4.147062452693735 0.7374812790801365 4.833976956777972 -0.2936503200361523 -0.08658884093483797 -1.9911401925255834
Ni 7.931505363473526 5.325467800695399 8.262525256194955 1.5803627537564202 -0.4489824890839752 1.210821181708592
Ni 5.535690070273616 1.7697195561405787 0.440050298224743 1.518452903625501 0.7685757542381344 -0.35711260225585595
Ni 5.550767082404342 1.5904601835894074 11.497661731312105 0.5511131344081541 -0.15630661714595015 0.15033523005386368
Ni 4.530073112698394 9.071141251710463 0.9508779039884344 4.976311290406456 3.6110400851446776 0.09011613736180608
Ni 2.0327254764222515 6.101844573203738 1.5453457753634277 -0.6846840005194853 -0.8171215243573218 -0.6506107129848602
Ni -0.03874406492208615 0.9173322574098621 2.8329386006728874 0.11629536686033519 0.43414825228462 -0.08717608089687567
Ni 3.585422588455284 1.5792958583247956 6.859904139770348 -0.2358282668213616 0.19189505577352112 2.826360483366145
Ni 5.053451414024932 7.372536660460981 11.241864184141466 1.1802762190421996 0.4032042544075959 0.32607758732692227
Ni 1.656082338072304 0.928020664512394 13.280180288143569 -3.1941071682970796 -2.234700280773564 -1.3567603395772891
Ni 0.20192379933308838 2.4543833247270714 0.5038891704244293 -0.2915957514999688 0.9252168719053677 0.7447704242884206
Ni 3.421503581958521 1.5948525508165126 0.05486602779998965 2.037648106279136 1.7722282418435866 1.1431484609519666
Ni 2.6043633842632996 0.03452852104373813 2.4198519820341513 -0.19002277845147275 -0.0883760147422478 -0.33589637318955695
Ni 8.604600370412612 6.810511170834283 10.24481375348369 0.029376653389904247 -0.009470401384280463 -0.2470670729599745
Ni 6.174407984675079 8.902792255997497 5.470801544578115 2.313858633572286 0.20552010275612348 -0.5317851235035035
Ni 7.881957203832434 3.021638270838289 11.969446177340386 -1.691248776675726 -0.613084433904628 0.04278187105221665
Ni 0.8324561094567154 2.6102794420488444 11.893747913627514 -0.6067296953311937 0.3862447437351219 -0.5988556918997557
Ni 0.30662203279185424 8.090674593846762 8.687739323019192 -1.0284929436878996 0.30920369438971906 -0.6338031545092181
Ni 8.957870848035887 4.108829106273644 5.382176365411426 0.5382457915271828 -0.9162542633954414 1.7206668248265269
Ni 7.116058155287682 0.1901217813532778 1.678764635299042 -0.4652717131623019 -0.8055196784523353 0.16732636529522152
Ni 6.863981422838764 3.776927918457613 0.6231076105752826 -0.8548424359468633 1.7123912150812959 -2.016623167288037
Ni 3.2358954987471864 4.801261815608721 3.243162185941322 -1.860615312329428 0.19216065073008196 -0.6465648250502606
P 3.71950735759792 3.7566120443450925 7.467021464429568 0.16360443635894406 1.1652581483668125 0.0020679382726222447
P 8.925092690034898 3.6614942504099446 3.3972439828388796 0.5221851385198943 -0.04028481566197578 -1.9649308811200676
P 7.769853081819873 8.837141885022778 3.5652158181111457 0.6776180948116395 -0.06583978131294467 0.7104114871925765
P 9.248989799670488 9.280375944074876 13.702489937409501 -0.8895474435282164 0.29812069710268013 0.3277560034706098
P 7.554354328270766 5.868437752844334 0.618441543377495 -1.4134973872580172 0.12667722431529152 -0.39036287966855354
P 6.568093884086085 5.746815267590167 10.519209730964558 0.25841412254167756 0.30534935364063537 -0.11473316457953789
P 1.1452979975960742 6.515432504847195 3.8735440081085604 -1.0797671684818435 1.0251191421196606 -1.1934500374199963
P 1.2624998991313146 1.14624795282078 4.65625914523006 0.9060446698522912 1.3566636660984248 -0.1108050331697253
