# total energy = -340871.69998503703 ev
CRYSTAL
PRIMVEC
9.27400221183835 0.00000000000000 0.00000000000000
0.00000000000000 9.27400221183835 0.00000000000000
0.00000000000000 0.00000000000000 13.57343966753521
PRIMCOORD
 96 1
Ni 4.644967382649268 6.646612336751564 9.544354027383568 1.3276240843329652 2.097756898645574 -0.19141965879899936
Ni 2.3999355192766028 0.6403466551533971 8.761722850888196 -1.4287584271821456 1.3532317575987403 -3.3955127346641976
Ni 1.7062308934446866 8.13804806918379 6.248981153121576 0.6889893127630585 -0.5858703353836814 0.5224479052629776
Ni 5.594328422436992 2.9308072174690927 9.754905405067184 -1.480804754255424 0.3841757770212352 -0.7541122705146367
Ni 5.856467363811639 4.784299989145152 11.141866722432978 -2.4079383835675303 0.33996720082482096 0.015610709954063438
Ni 6.194560381810441 0.45986159205042704 5.740913298520191 -0.22354122192389245 -0.3063795946773627 0.1275413720877997
Ni 5.364221884073314 4.1845317298731945 3.205449368380331 0.5209810909094641 0.33529062128475806 -0.15873013898577826
Ni 5.805664380692333 6.643561190083756 2.2967613192947494 3.1953266425264775 -2.1060952433079407 2.3615261148515785
Ni 7.101780356374704 9.278824510866821 8.755601082148317 -0.14194649176953616 -1.1976296227189827 -0.49840629093274164
Ni 2.504536988170845 5.511029336205228 12.988586690426667 1.5718097219800866 0.6496848587364812 0.496689565351951
Ni 6.280354174588226 3.8302834003384625 5.909332884982376 1.0001015370294002 -1.0961687497683186 -1.9091520835875506
Ni 6.202814243616973 5.137732206501262 8.489276783657616 0.7588119899831511 -0.5988418079426848 2.495871911455721
Ni 2.6389543735909298 7.079773149557961 3.413951191615361 -0.266406910939167 0.3962818162561498 -0.9243308697559887
Ni 3.3858546750658443 3.60283850055734 11.461615764416813 -0.13911879251275397 0.35130036644945306 0.1376756323083242
Ni 0.860843472613785 8.946796690195516 1.71657882490955 2.07064358736855 -1.1281239625186763 -0.14387456203018448
Ni 4.631353147669504 4.997722597857201 6.863355038190284 -1.3706594661568845 0.34560974382257903 0.27120356099686194
Ni 4.169934450678272 7.762432438972373 5.2476272757541205 1.9596099831277862 0.4303743870644846 -1.026234486671026
Ni 2.53181182814052 6.476963017620226 10.524397175486719 -1.4778582700325904 -1.030722604349367 0.4268357777836069
Ni 6.557860137326269 2.1142498867482655 3.6317362908822317 0.19345288717894424 -1.9755356532191073 -1.1864592079244598
Ni 3.4788729154248514 0.587709274432594 2.2892688530548644 -0.36988584276112424 0.9618982864868016 0.2787566907537715
Ni 2.797057560195153 6.103461859871604 5.712884482185491 -1.0048670767388435 -2.418548040762577 -0.3541725457909255
Ni 8.78592057698438 3.76060782308849 1.9037699188802766 -1.1413828844111116 -0.006650929657614352 0.829370516928004
Ni 2.6166782207153236 8.492073822669807 13.384714558327621 0.2392223801045751 0.3296159394974839 -0.273728898521877
Ni 7.15109949916924 6.0375700754497945 6.727091198966064 0.607335961456625 1.7270624439402258 -1.5575095033073307
P 8.22503820822342 0.5501606950142939 6.704560011034636 0.5953443363123876 -1.3581461641812222 1.5405782747696306
P 7.883727111520274 5.840627368344722 1.8097333930983956 -1.0569712536332507 0.011301798166064409 -1.4376048218291824
P 1.882409110005012 4.824382225917997 4.0123218587814256 0.6834904944320165 0.8449210630680932 1.0374465533367616
P 0.9383898953864583 5.085352643036887 11.623872776530188 0.057251782533617526 -0.0009127416222564927 -1.1909406407345813
P 5.048219538909523 2.258581180338219 1.8257087889949488 -2.495947758998979 -0.10101221544901957 1.2967163390105152
P 3.329107056645429 7.941550514176147 8.059093852902992 0.5332110573167527 0.3248036057105051 -0.3867610212499081
P 5.177146715127961 5.5798517052684575 4.8468985754461755 -0.10778527250679501 1.4780819560076224 0.26347713888688173
P 4.1146984945887155 1.5834709285760742 10.952761474443298 0.6887468577349494 -0.6440695694322327 -0.6297474963826057
Ni 0.8339831805348425 7.272681665780066 12.185189168586144 -0.09521926291632633 0.44090922515753744 0.15198973493815116
Ni 2.6826349231513418 5.7514578388280855 8.180535054682965 -0.16327739203682848 0.17809183134184167 -0.1297268097748927
Ni 7.432435624745596 6.969393977399147 4.505431675508929 -0.7492253747359806 -0.15596723152866043 -0.30121553397791995
Ni 4.500070374935496 0.991437186996979 13.57115909513495 -0.5653300493384844 -0.7834231036636121 -0.0033159517471104184
Ni 8.038630767424213 4.317873331057822 11.371365813663704 2.0997083659449904 0.18102083206317857 -0.7225782044620975
Ni 7.082323500116159 4.849088167325415 13.507499563001714 -0.5090773974933426 0.4559740899104599 0.4068685906330606
Ni 3.401509190492166 8.702111420640975 10.268347543844847 0.8026048187983854 -0.682223711904451 1.8835773204422401
Ni 3.6461017200264094 0.3591162532001807 6.513513714420117 0.39933937213555093 0.9554175638584642 0.18266942341019507
Ni 6.871284309925772 2.6924931873090308 1.0168145661513548 0.5728983486040455 0.07637950450200394 -0.055544312924207556
Ni 0.28958998738288827 4.16265435908487 5.291374598129146 -0.18244985120022125 -0.2835795660637116 -0.2708551765185077
Ni 0.7483516827925797 4.295003642052308 9.471925926331147 -1.137230552805635 0.14044599596460972 0.37901223054242467
Ni 8.016280422532368 7.963464980972592 2.3762747578979453 -0.9712092794750822 0.7006934885738643 0.1451176904086662
Ni 8.117969854789248 4.123926126608378 7.314359958302241 1.7034360627705372 -1.655120406384285 1.1232524933589882
Ni 0.40138993665266964 8.40981342466538 4.078329568228608 0.5727006307709427 0.8395667407347155 0.7859448416442012
Ni 8.415999184019265 0.7774423723596918 0.8079223074308697 1.1517158909060037 1.2707265998149728 0.04496576607741288
Ni 5.935945561207123 8.8561711423602 10.703443840874865 -1.0319161104368357 -0.42834835777339136 0.5177415009262438
Ni 1.6063498915836185 4.731744219642212 1.9152668991966337 0.8455928923241373 -0.20239955484927077 -1.2597271633806757
Ni 4.652646256329951 0.9693186921558791 8.710184439407925 1.2360447321620711 0.007722565455238314 -0.13545677028013445
Ni 0.20062077631009634 5.331354820879663 0.14772743313327047 -1.0497821920839792 1.4118369688364587 0.1674963152141825
Ni 0.5099078166041008 5.826512337255349 7.165514080524176 0.4207566614690625 -1.4133716603134303 -0.01372197757178282
Ni 6.954880164222492 2.012467714471086 7.75924310967432 -0.802142020229354 1.4417260430864074 -0.3642332724610372
Ni 1.1745059870654546 3.2976589157623386 12.971158985812247 -1.087905738428578 -0.6776530618146329 -0.8974175903049126
Ni 1.3065306799618486 1.7634514859686223 4.017357641883613 -0.3434685291098601 0.010695789150949321 -1.0885677974926091
Ni 9.172581543613303 1.0066465503258697 8.69551204079656 0.6152261628379792 0.5295168962946171 -0.17343093553106262
P 1.9243090511756997 6.962985641996547 1.1483384629381388 0.1294982387038544 -0.5811253644995282 0.5316511690288004
P 7.234064721327932 7.155588116151669 9.287395543542772 -1.3345282676519663 -0.03413139446607025 -0.3524684186156253
P 8.500040190413415 0.9220555956113516 2.95052652798508 0.8519851690037262 0.06577498951328026 0.7750958147448392
P 9.045685373839394 7.253744153635192 5.9072147029187665 -0.8715000991082024 0.9786122568073726 -0.8185785685188225
P 7.709858121465372 3.511164990492655 9.384920021488066 0.23315869040899848 -0.11762642696693291 -0.752377290101401
P 4.08207255544784 4.692876877135272 9.525364580827326 0.5062291294112702 -0.9863515344331595 0.5758178362436857
P 1.438527550852153 3.843415387212675 7.500044954343327 -0.4101873705936484 -0.22069192540055543 -1.0285523361709255
P 8.025702808594655 2.763411480830998 12.776882554290744 0.5146458927200556 -1.55220583170623 0.4228582811930976
Ni 8.97950609535466 6.348926145596651 10.222170432938011 0.12379321789927712 -0.572145272488105 0.3654902847965899
Ni 1.172224582566121 1.1301669833609267 6.179756292370253 -0.47414253328937056 0.3533402796976173 1.5711756879405134
Ni 2.762020380526526 3.0428742579973322 9.084268931884221 0.43912616511518565 -0.5522338782761586 -0.41055786655918963
Ni 3.7740736740357756 5.542681505132974 1.6479920154978773 0.6753868914882756 -0.27708161704419376 -0.4126872541973667
Ni 5.6494438165001615 2.5850075037835176 12.300414006805532 -0.6047815704658874 1.754971768755984 0.0024759723443183164
Ni 7.30689345926804 1.7148557153324109 10.71697739203697 1.820503789020523 0.1456257403933363 -0.6975572569377277
Ni 0.23132328742998967 6.170800388610064 3.071194277995767 0.42797426226342417 0.37094770836673535 1.4272242499258065
Ni 5.676570272437359 7.697291848714977 7.479209053982949 -1.1034362299640093 0.41551855299857476 0.04791507851372393
Ni 0.8812926470895189 2.11206122226923 10.638345911026809 0.17540322876608502 1.730862020191974 0.36429780715038546
Ni 0.599704268657952 0.5306222275378873 12.465046090838744 -0.352269929451574 -0.1995273755077983 0.03619496186331831
Ni 3.3475066766725745 3.2882365297000504 0.5599698069612253 1.0165540261584687 -0.00246800192451833 0.048389704157297306
Ni 0.12417146797754972 7.668616634438801 8.303673398834393 -0.6883689055702403 1.8024893547209733 0.32853530483879545
Ni 4.374398373429522 1.9647251520216176 4.588677899929125 -0.14497987927922126 -0.4512134352970229 0.5616173763735876
Ni 1.338303410915982 2.161065048994753 1.5803557912942605 -0.7427425952251144 0.21579860186399608 1.5168022553959555
Ni 6.793920584993087 6.725163133944066 11.82546546825301 0.47676942938925637 0.737583162511362 -1.0630881651642656
Ni 8.26445271685012 2.048988734464483 5.330968094995019 0.30657731251046555 0.9981606112529454 -1.0494451204595345
Ni 4.309999703334512 7.117017541709683 11.989310189513889 -0.055491605309401205 -0.995110254462396 0.23105887045717627
Ni 2.733410084264558 3.384788164832416 5.860386557069438 0.090619816471102 -0.16385820424096295 -0.21324523931452305
Ni 4.4557684672390865 7.8714112368246845 1.413795642239052 -2.218234164797741 2.1615804208594387 -2.1032639445067325
Ni 6.917811978109336 0.6726767536295223 12.71842110029522 0.26460045385804754 -0.8091202513194001 -0.1757989215426069
Ni 8.064097176998075 7.591827897631963 -0.0338259950035338 0.06730736699740666 0.5206792433983292 0.4202450119399666
Ni 8.458251537267087 8.601961472721042 10.788821230961512 0.16343011556460887 0.4083991683449741 0.01618458017966245
Ni 6.346264507014094 0.38602940709069317 1.6297899317139666 -1.819218494550196 -0.9809283065350589 1.110406233523939
Ni 3.074387316894631 3.304911185349651 3.098762176429584 0.5105187579255595 -0.6806854208830535 -0.41532032094483956
P 1.2102850868964667 0.10790950541827557 10.304330671720516 -1.1833651423801685 -1.8928271211752823 1.538093560674564
P 6.0634259931089085 8.64437148400337 3.7137611292351007 0.042516533205971936 -0.5314624500567622 -0.07359320000611841
P 2.8725108407096984 0.19213135485200708 4.3644983762626985 -0.6758941701419973 -0.47918240970612314 0.7026441845423319
P 5.681661699551725 8.261874544285831 13.040627752816954 0.34570461752923043 0.10691572541764813 1.2726958077262016
P 2.2625411792049483 1.4407254893332182 13.482768581788816 1.0908563364164698 -1.125595796780184 -0.5118220501180154
P 4.878143615684813 4.857787181229378 13.192215952995234 -1.0493178508530512 -0.04985831828302381 -0.21722016480187106
P 7.613464144367513 3.840911406664626 4.011873924483386 1.1859241613565963 1.0227550127628582 0.19101059628603875
P 4.8990008462498595 2.4070301308294084 6.887760501931935 -1.0404951103550986 -0.6998743351066785 -0.21820001221663712
