# total energy = -340893.8525603932 ev
CRYSTAL
PRIMVEC
9.06928637789708 0.00000000000000 0.00000000000000
0.00000000000000 9.06928637789708 0.00000000000000
0.00000000000000 0.00000000000000 13.27381735157147
PRIMCOORD
 96 1
Ni 6.542882295227459 2.077238362787941 11.56691038415853 0.5204514436582393 -0.1824544791859116 -0.48676330737717455
Ni 4.5134481395913175 0.44906207464209363 5.940523891113647 0.45339193100558045 -0.9355899876095759 0.5942485321450476
Ni 2.7948546965184025 1.541860264403382 4.500116288991214 -0.08207346956298768 -0.05168200175532389 1.3852059965124917
Ni 3.408736535579488 4.017158664394817 4.668839474157339 0.7782179053135887 0.7668155770139181 -0.995272748182189
Ni 4.963529601993583 4.562422284652922 2.7791784354556275 1.065911493545674 -0.35030689218793215 -0.9402346854704388
Ni 7.288032981625889 6.174451615786236 2.584027350528482 -0.9494690595845131 -0.861785957144232 -0.4794629170610194
Ni 4.928540296132903 4.59441872609317 11.569299234123203 0.20977553559836776 -0.3100056214657242 -1.2271996230666153
Ni 5.5298611739143 7.823791990027594 12.44377884755737 0.013925351831840533 0.22700809742657035 0.4312516474631154
Ni 1.4840435653723216 6.7262813991970445 0.5237685052191219 1.1960113703892692 -1.0813766790608088 -0.6488014276902633
Ni 2.647642044177669 1.5094647743737433 0.3345305948438588 0.11033812083563578 0.41877048427696906 0.48483652266810695
Ni 0.5148062366728483 0.00812880115161404 4.790135734474361 0.4065196919340741 -0.044557474895400684 -0.031195708876514013
Ni 8.895854163998354 2.28844389800917 1.1856123570105386 -1.5849259476470705 -0.46104970466115436 -0.17710529905885627
Ni 6.952278940084103 0.660084410283648 4.7432257589342415 -1.108090183796253 -0.5100487602676764 -0.02562258566411071
Ni 0.5911995544686649 7.484600689045373 2.6904563301048583 0.24061874623146945 0.7443515915834471 -0.47693706531537217
Ni 7.64536285485315 3.8301409152623465 3.6426542840373424 0.6658265014933501 -0.005272047032216726 0.4530576875946133
Ni 7.464820576012158 4.005595324588605 12.7398375306695 0.7945030156268575 -1.4572639908210065 -0.6874618203749386
Ni 7.9490206928073395 8.884399655625613 7.044056487929549 -0.015370054698167079 -0.5865997573505382 -0.7023189399924292
Ni 6.97894264128431 0.7816545630415701 0.23554296453100979 -0.43641108017686775 -0.29263370584617987 0.26502879964471776
Ni 2.171713116326224 6.300705147897826 8.973989691658307 -1.2536169367178798 0.3320065512168476 0.2753119267382807
Ni -0.01919605100692433 4.736035628896309 1.2319945000983268 0.10738649440647959 0.9140266596165033 0.7517566257982665
Ni 6.385784121013181 1.96290187264134 7.072076954333685 0.7456929361026899 -0.6032023989042257 -0.365354530549674
Ni 3.4156564008909704 4.549299027633636 0.7241262673092058 -0.10913818699026365 -0.40821173492451635 -0.7970046990027887
Ni 6.101861049661591 5.404097383253324 4.853624365046445 -0.37575721394023676 1.2706001015394375 0.49837929434954814
Ni 5.496894318858942 2.7959430108531045 9.596558092967541 -1.5816089674586955 -0.16409705972464642 -0.8681484090271501
P 0.01114796650180071 5.474411558561217 12.323292474491089 1.1449202081404088 1.300632900456102 1.871524503042764
P 3.754312613991963 6.217911634885349 12.610511324419603 1.2874379990323828 0.6986669450621387 1.1436477691858884
P 2.256012130835041 8.60694298527938 1.5638950019666549 0.7605814231787481 -0.7693542842753718 -1.282199376341263
P 6.273234280232716 7.799613273224957 5.986517868755391 0.15077463158412743 -0.14853211540685388 -0.5861834957487259
P 4.915344484824638 1.0372633231186539 12.641479308813556 -0.7239198060916565 -0.7382557630983543 0.12649236199799507
P 4.146522961646432 6.2260105073927585 8.050543188591433 -0.0591320302754659 -1.3963388732008597 1.5483594613769462
P 4.859260019442978 1.0821472201390017 3.8252217344694923 -0.09854935573082382 -0.1952346616697154 -0.7074554898880462
P 0.10209114002397515 5.675187414741548 3.6087396885821814 0.2126186614741177 -1.5614821148018334 0.6008382695474233
Ni 1.5298797374355342 1.2603224153020158 2.503229080462958 -0.7218919770283503 -0.22092872400170982 0.8050481381325555
Ni 1.7550066268548303 6.499331583267122 4.8741191378261135 0.5872019097109112 0.1554931201057193 0.28203818971852074
Ni 6.007866968287801 5.694931250630273 9.284119372189528 0.12476535200455934 0.26379004214161017 0.48161390196575116
Ni 8.77361832563904 2.4247824762890025 10.219790366020943 -0.021081760370963692 0.4508370257942107 0.06327613435082652
Ni 2.6794480306093442 4.939414370193804 6.765571360537022 -0.28193354581985636 1.0474699990110348 1.4087477883881738
Ni 0.612367268278625 9.212218071810195 9.112860414623546 0.30586151739036355 -0.25061468110191676 0.42484137306139735
Ni 1.6329975206485785 1.2600503367183402 11.255784896011058 -0.8709917920132161 -0.5258859844102491 1.4680081167113876
Ni 3.9936238669068795 6.948243107759581 1.6938587790309687 -0.054691735115925164 -0.166815487097074 -0.6708275542523673
Ni 5.445362635110787 8.000615861558353 8.289591432208796 0.24338139657827118 0.5272736087863952 -1.183791945504942
Ni 5.551101442013239 2.918958807818956 4.912055961676613 -0.40822433333000663 -0.39762290366507647 -0.3628986128100137
Ni 0.8844376895966934 7.39311879992752 7.162060597384096 -0.21950947505668 -0.014763017241787479 -0.48734566224320586
Ni 5.443494362169548 4.151946394747699 7.441780054617897 -1.4030556230994031 1.0828427220833738 -0.3881661291275509
Ni 8.23787745580958 7.350538501582292 9.065565901351833 0.15156781690938412 -0.6819264923790063 0.5105233859112498
Ni 4.735446125298345 0.2700234834402158 10.547733031425405 -0.1480009254937322 0.33917941481620295 -0.5735984599948638
Ni 7.9933060169436025 7.358111355494596 4.557618283793823 -0.47143259055737524 -0.1648115692931678 1.024534473260784
Ni 7.238233531527136 6.129649342340991 7.200501673543006 0.36481357044453944 -0.3355451604977253 -1.224833179716968
Ni 2.1829136846875357 5.387645698227074 2.593186422583614 -0.4854394463594285 -0.34444631964209715 0.5689990135496394
Ni 2.288235304428352 5.470756636253841 11.371121728416972 -0.47301690432535953 -1.1373796767889894 -0.09632406594473088
Ni 1.0980547479979006 3.307867935324828 3.801222589532082 -0.6664055139252716 0.501080238220479 -0.7682919044491284
Ni 3.717708975201475 2.5489228647340467 2.4433908375551874 -0.3680781001284242 0.27076827323165625 0.06930537126404195
Ni 1.3399598167438576 3.5306186717800245 8.429245741495022 -0.24075835713312735 -0.5273389148066918 -0.5227890906524802
Ni 3.564156891861101 2.527428656623676 7.120261164574017 0.39531688123971914 0.5336293758010939 -0.3550207527238337
Ni 4.057680234790233 6.794691024419208 6.0718553165252365 0.72899747772488 1.5497756249981827 -1.7122485188558447
Ni 0.7988662542448872 7.287434408741803 11.322393361009288 -0.28399711321710447 0.7083713168340962 -0.3748015348951868
P 0.27005159822719565 5.403725542522301 8.004005053782338 0.2272703499490215 1.8020864628555995 -0.4685619538777995
P 8.556535893010418 1.6749066918207403 8.007549330799018 0.6078985188283144 1.0675022350715615 -0.16895644469947677
P 2.0814555808349122 3.461809997968471 10.525261154271028 -0.9449583161983531 -0.30418438679825677 -1.1387688438270325
P 3.9902863696137922 6.096301577268487 3.868521227204236 -0.7019944667734749 0.3391796719265191 0.25928315541019215
P 6.991621503283592 4.017702821562168 10.394128346225521 0.261994126583452 0.6755401292366882 1.6552507613145622
P 6.435474739678464 7.743927856432689 10.190960012366068 -0.1817818785989192 0.15066613103072116 1.4660139690994944
P 2.3864012574185005 8.548446089789131 5.881123694725594 -0.04673391372142919 -0.05471950303006705 -0.22031088791205283
P 6.935636800049279 4.004860712412681 1.5537138213655148 -0.7432691571525457 -0.06941592869997722 0.7229643841569225
Ni 5.226375652396436 2.861994621683413 0.49950181634109697 0.09076302691718562 0.37032781539454934 -0.4989853033646632
Ni 1.4133756879056514 1.1908788914618855 6.97978427103648 0.26259525050256066 0.48459741007410734 -0.06479694187072711
Ni 7.024715328344665 0.842734391219513 9.178605483582913 -0.9039677327186045 -1.2276099711311568 1.3633194808520457
Ni 2.8514651804951674 1.6746708903815546 9.372748063893235 0.6957649409239953 0.41858690751125327 -0.8485527462834095
Ni 6.40792224843825 1.9906720267484943 2.4422626183615463 0.38584545141417415 0.016238573346049452 0.7119423220148061
Ni 4.066894629490713 6.915004174120549 10.38572655956162 0.24800269740036643 0.5718979323639893 0.2592636150261664
Ni 8.16267493528165 7.1781585802515675 0.5358787229785218 -0.8445557093088745 -0.24867735486988787 -0.7975214907382071
Ni 7.742240969213901 3.8793508617631365 8.354394202340034 0.4907338619891484 -0.5207162672838516 -0.6234747760000166
Ni 3.077308543518143 8.37424324194778 12.649748683900068 0.33977179698456317 -0.34239303665749415 -0.6900648052154243
Ni 0.10070263231861744 5.029925845696546 10.209396964124538 -0.1711879051331568 -0.47815602532413776 -0.3226150826996186
Ni 8.613735880585146 2.115057285918846 5.702657375478047 0.046424610011126494 1.5796554432767504 0.45736659938261226
Ni 3.585759931404942 2.607319998076948 11.717408838861452 1.3237224352857138 0.23856392058496975 0.14154334279384656
Ni 1.0471941914228124 3.471051600527318 12.497882580849872 -0.11426239559070644 -0.21672779854648483 -0.017710272795569502
Ni 2.9968095598946616 8.631937937833042 8.114323850176662 0.4279989448537726 -0.48265622718733653 -0.22955168978403043
Ni 5.461814320137037 7.851326342695562 3.604983190270234 0.13156874807963792 0.2091139907549689 0.6364207946377233
Ni 2.815750331744687 8.241051705952462 3.6365878385499895 1.060219328256903 -0.021168406547499026 0.17152394831633686
Ni 3.6730971567648028 4.4265643785375826 9.288552439246216 0.3003441871165602 -0.463154409708983 0.126158375697344
Ni 7.134263235418575 6.087812725457809 11.67038005567313 -0.16972623298596576 0.48719139605352874 -1.7978207456007103
Ni 0.6582061611276743 8.91603332562096 0.012508359420178606 -0.11829311401665434 0.8451928286722412 0.4952227509984374
Ni 4.593584351769898 0.342044498396366 1.5730268661634197 0.07360888373540225 -0.21304854992268468 -0.07547087664480552
Ni 5.776128569285189 5.408024384144375 0.265052607716463 -0.4222427590962857 1.7935719976266853 2.139018476398523
Ni 7.931825326319045 8.62041087517132 11.640991033993107 -0.5073912680401712 0.19402367208074972 -1.0797921081825084
Ni 0.33497861757831127 4.788818874129371 5.754306053017182 -1.5137117893960899 -0.15567875375396414 0.5532057552711247
Ni 7.908290528831107 9.024982659810783 2.2013560780176786 0.09849587678506909 -0.32807353471102857 0.9071276185038247
P 8.55610963656266 1.5901451437196747 3.5358661607305146 0.022752206094851138 0.36335266962829676 -0.5754936201350476
P 1.691566970427808 3.335356941562184 1.4536025065020854 1.6569466609597465 -0.018089767622175297 0.6266963682611079
P 4.7869778090465 1.1586375792963295 8.316643298855048 -0.12235828522496348 -0.8303999866337828 0.04404582536630479
P 8.786179286918728 1.5366998405996686 12.30777492593546 -1.249158900946526 0.4443041097716993 0.11615112797298707
P 6.121178629102557 7.7161486330394125 1.381140724240381 0.8303673336236346 -0.05011080061346209 0.15285979624793028
P 1.8543334484686618 3.2271512888344067 5.864040787385217 -0.6994182214058665 -2.223567661195512 0.5061792500099412
P 7.112406255863303 3.8857809856240024 6.117437548577018 0.48522450213514495 0.6118816718457785 -0.8446991768652743
P 2.341082034664272 8.532193929057575 10.32145434266855 1.1164598959171868 -0.634900758448771 -0.3796256957567075
