# total energy = -381168.0173998853 ev
CRYSTAL
PRIMVEC
9.22223394050347 0.00000000000000 0.00000000000000
0.00000000000000 9.22223394050347 0.00000000000000
0.00000000000000 0.00000000000000 13.49767156961444
PRIMCOORD
 96 1
Ni 5.655129027126313 5.61226408497297 8.756897292529217 -0.60462267629052 -0.36368382771547036 0.8742375526440234
Ni 4.727372318729939 4.409850813063068 6.727185103719578 0.010434565069762675 0.40337831809161495 1.0791704154381092
Ni 2.5685488583740854 6.959660092595589 0.9568657667898367 -0.20476625530923445 0.498890943878644 -0.4726800898112311
Ni 0.2738330180457358 7.695529784773242 1.1255127541302392 0.2780830617255146 -1.7180486704773896 -0.10793748181394312
Ni 0.7002442034645795 5.413773949438028 13.565969379446862 0.9745429718340054 -0.041715377460915255 -1.6653436267741901
Ni 5.253159527634536 4.133709469926759 2.0139873581586776 -0.924223654754163 1.16620071478574 -0.8135016682165472
Ni 0.2121252080335905 7.045934088689506 9.255703934574129 -0.3627402328552785 0.5489960880651513 0.4548093801783974
Ni 6.473528488523043 2.3801478464871115 2.679706285388431 0.15099060424967545 -1.6911850133173263 -0.6260322523145476
Ni 7.933832303112827 2.0344431946884387 0.622454662357985 -0.3714791553901731 -0.19890131188802518 0.7796890905424766
Ni 2.317538102020879 6.417863086019261 4.939608193567712 -1.29747378600183 -0.6469522902966665 -0.6270198130387975
Ni 3.0417232241236 3.921561206308965 0.39544661360858857 -0.08569795368945242 0.8944461663814145 0.7340275839496198
Ni 6.785304542606108 1.5378351331532865 12.082669925171333 -0.4967677268880541 -0.43893924591536015 -0.6819851135310835
Ni 5.982167877952876 3.2564537131723195 5.026951046545358 -0.7837735450244954 -0.9016367705925827 0.61176468665194
Ni 6.555781590731664 7.752569300095623 4.674958675822385 -1.795525007587998 -0.45965873785089867 0.16683785569457718
Ni 4.228882921523684 5.218963485142154 4.556286972804049 2.0181709713911307 -0.4471354085729074 0.8442592611143782
Ni 0.8400412771779803 8.361089167360298 5.217498072210103 1.438374353005355 0.2513045080800898 1.592962959018934
Ni 3.998437746281054 9.074825498701458 1.3050585772358787 -0.20485624391987944 0.04571858508303739 -0.9255518866472835
Ni 4.39104667858573 7.493157088858231 5.337478410187896 -0.12490856245064295 -0.83038224602197 -0.3656103553142219
Ni 6.660380165151462 5.419676178994425 5.58506679562176 0.2958707247262389 0.09099211220885618 0.5054714253096391
Ni 8.471174970820812 7.543409040190754 3.8110945245973915 1.14541026040295 -0.448870131875827 -2.684638191792273
Ni 2.62929571163658 3.4230072534669373 5.512772783566193 -0.009484028231035278 0.5042897462967121 -0.0434578140733187
Ni 9.148704812726939 1.184356138360795 11.981531532828972 1.7417221028349292 2.273723456114297 -0.8210234305148892
Ni 5.4551725564359534 0.2406901546398224 7.959954280016731 1.22776449443115 1.300163159908535 0.08167109191824644
Ni 5.212922922080526 3.1842620679106215 13.198778767616163 1.2086578555086862 -0.15798451906900535 1.726893008241897
P 7.104181716624213 9.025956882421214 6.553025065084153 -0.5396010200034965 1.0306835235813152 -0.7387239609840245
Ni 2.749784194690244 4.322756038171464 8.109953910852388 -0.09768083708294145 0.19350893722786028 0.15362752765189028
P 5.091530660126038 6.889515783211267 3.188203650586254 -1.4575853787161672 0.7859448416442012 0.030706942165553572
Ni 3.6031451439749524 8.439422820254123 7.26459509373344 -1.2978183138254422 0.23894290119094336 -0.05690571204810845
P 8.543200615876236 4.10169909681698 6.505405139244435 -0.6009688815880166 -0.11412407024062926 -0.5455762637503249
P 2.9291935287373914 6.290476372171556 6.943714850559632 1.998184758077191 -0.7835177202599474 0.39124708204571973
P 4.239027378573744 5.120184140175617 12.617717178915896 1.080573723543539 1.5548777221114383 2.6869331584740372
Ni 0.2935307869668473 3.6119708216085042 8.509080195700044 -0.528648891867367 0.16626707079277173 0.13015104179650488
Ni 0.2692006900673312 1.3143988555088792 5.937855045111478 -1.654040543056545 0.6882038407472858 1.4092450397395664
Ni 2.267802595774541 1.0487800810035872 11.490000310935688 -0.4390942834359858 -0.6059833040834725 -3.0121913352234575
Ni 1.6690582962126503 8.361052278425571 12.610860448173423 -2.574834860414185 1.3634328665014583 1.1710760406001703
Ni 3.1709451624739975 5.490908711953209 2.592484243672017 -0.1877049289515735 0.22496252775145126 -0.7026374996741125
Ni 1.3666704760177324 3.3347596993650988 11.741097756285505 -0.04367944316582154 -0.20568439624812962 0.8901017733697897
Ni 4.499758369227643 2.061224561300597 11.309807087025582 -0.04954541502829532 -0.48300204056252943 -1.4120038334316263
Ni 2.6494094032967435 1.5597287159140516 -0.006771886192598982 0.3819016362750778 -0.15637577982098877 0.805994818316541
Ni 7.87533567486871 8.784537249097157 10.671907027697198 0.09356578647330337 -0.4504076515662759 -0.7321455364355585
Ni 8.198206076071067 8.827678858260956 12.974029243895458 0.08236297577894848 -1.8100404275953537 2.155016651598992
Ni 8.184649392558715 9.400683903616741 2.109955766298979 -0.933187034595038 -0.9101612631238261 -1.2491820408749776
Ni 8.795696151852223 5.264097096781237 4.523244631745269 1.1970894339447966 -0.26652929544964415 0.8767307513795224
Ni 6.0720477674164055 8.348058151167812 12.624223464778456 -0.3167041165318223 -0.23963607060322598 0.4269586765147163
Ni 6.789472992230313 5.930846147513256 12.733500478345068 0.9124112355002674 0.6204331609602154 0.9420118319755195
Ni 6.802697675330118 3.5902709057550584 8.728917035538416 0.7652392336657337 0.3792667697553919 -0.0031308323194978336
Ni 4.041514799809081 1.9789345701572483 6.696518410057248 0.4243736893963595 -0.648177163842703 0.3151935934245669
Ni 8.971435036893986 5.395679926954194 2.0696656717896147 1.07555287329018 0.6031034114325161 1.3185660878957548
Ni 3.413157907894697 0.5213107366754164 9.236362143873137 -1.3296020339949426 -0.1825578375329953 -0.08468751014706705
Ni 8.439681042797217 0.28781945764766365 8.076979814322852 -1.5554665047353728 -0.2499078848428793 0.6778687773698648
Ni 6.891646119191779 1.4350072276004078 9.55343544898307 0.21855276757036554 0.3247925499669116 0.46635311915193883
Ni 8.077523926110082 3.581924784272964 12.45223618439848 -0.21872297459964268 1.7965282520415318 0.2398294175609547
Ni 5.8383194769830284 7.257233906808569 7.1216006716025335 0.9014259401333573 -0.4434846991941975 0.5173769184979734
Ni 2.717524821271054 2.6806451087772456 9.89265963717349 -0.21878982328183608 0.48003524462472164 -1.5494354680499445
Ni 0.906967027007329 3.161713706558443 0.6102730138875995 -0.9122633970684935 -0.6514512066082846 0.5792839404154153
Ni 1.1075441540244788 8.87340269285568 3.068263890436661 -1.3613453878448103 1.076424991482488 -2.248274162803257
P 0.6682827081933139 0.5917529242076631 0.8523280591123391 0.7989710787005402 1.0770636535077516 -0.81756195432885
Ni 7.033982073837799 7.244986780479042 1.1838433821680827 2.6581689418571512 1.0620075305055774 0.24952479047184767
P 3.4489862857487714 0.18227744872221013 5.227269951019416 -1.5034379182739075 0.9253626534546129 0.8877672116993421
Ni 0.1350448566971319 2.050231658751805 2.639442935356744 1.0696743030222158 0.20531107206911095 0.17125423959471797
P 7.533605805786924 4.2206659113131355 1.3217969313684772 -2.167289041208442 -2.1165159244206326 -1.271556551915436
P 4.256724845009257 3.2689590620449382 3.779496385333191 -1.6303827944282892 -0.6658496414218016 -0.7907780013667866
P 1.1797450215198588 6.599541089552149 3.14570021999324 0.4417252933009295 0.20835577243270567 -0.7634811133240464
Ni 8.000536719333812 3.047754564951545 4.070519646961938 1.7183672301590727 1.3228204922967348 1.7935758542814273
Ni 4.443392076964039 1.1319277398793497 3.482493427385119 -1.8637530866274612 1.2724793208400216 -2.328818083095596
Ni 1.8795096688329809 1.904446588708764 7.684818160351747 0.6348038278595907 0.9352896827603377 -1.4741394264201064
Ni 1.234829423301683 8.860712899309423 7.726877079281294 1.5247099402788062 -1.3786833649026256 -0.4488032831936335
Ni 5.00284043880747 6.596018196285674 11.04743914989315 -0.3733108092822732 0.6418753899943913 0.40093062788207084
Ni -0.03094151622605045 6.81950058509849 11.830965656845247 -0.4133575407915139 -0.06126758856122998 -0.24791219456908917
Ni 5.247939743370597 8.915142522499835 10.27693812579333 0.9990468705126407 0.36237410776511136 0.47339434226943633
Ni 3.825539309213308 8.60020324226389 12.164640827029286 0.3787594911016703 0.14449136967857695 0.1844738236087855
Ni 1.7713328677446163 1.348982231815901 4.420190781467183 1.742179759197638 0.8178871988787526 -0.22620025681329428
Ni 1.1931449270596193 5.121106363543804 10.367439593807017 -0.5525310978016033 0.4043980176053809 -0.7165651654987982
Ni 1.6345486977750834 3.919458537029498 3.3573698496829456 -0.6038037799336504 -0.43847464757411575 -0.09217353411146707
Ni 3.4460075042695273 4.6436989925343095 10.850980672438325 -0.03063546549766982 -0.881064859978502 -2.663874991102993
Ni 5.012616006510256 6.546872912994975 1.0274951656658255 -2.0362730803084803 -0.5704082351923402 -0.9841709818420727
Ni 7.884806908859993 5.69131707209398 7.880035325152992 -0.1747008033824217 -0.18176362376647406 0.14501793160600832
Ni 6.008718688722987 8.993586842197843 2.5297204879032975 -0.4187619996365368 -0.9838645063452476 0.36680000474694896
Ni 5.907910452346438 4.4446924119131825 11.398809942065965 -0.6724378361622807 -2.3712983637469933 -2.236241142898123
Ni 7.222253974453227 2.0696813495868738 7.03842811269583 0.055180501826885615 0.3635172202306191 -1.133257941311132
Ni 5.511566515400604 0.6623850897537564 5.2429136260139755 1.9896895761219862 -0.03375884161799993 2.783953222044528
Ni 2.5591514022522572 6.487260394475351 11.948084335711558 0.11976918434154857 -0.8577439258643743 -0.2727094561184271
Ni 0.8122556093178666 1.2361020915497816 9.493344296535355 -0.8391291389766646 -0.34196314820892715 2.1294899680827974
Ni 3.4681593095733847 6.675421628286596 8.986857378280181 -0.8124961097701685 0.5915717566438329 1.0941908001063414
Ni 7.642308274195155 0.6083649337388202 4.2149850153651025 0.9077832498099527 1.0117915717728188 1.377540509547434
Ni 7.832304732509092 5.25854531210475 10.396662085674766 0.9569435135846872 0.5102894155235728 -0.38220194112431594
Ni 8.293453305537446 7.364008928377289 6.164723838132279 -0.2522257343427785 -0.686698716956669 0.8340800065885312
Ni 3.1289286658193864 8.237695680696845 3.377549019202251 1.8842319233071032 -1.121160900937282 -0.3232051508751337
P 4.787860949449341 3.416404134150716 9.330737872256579 -0.7529318770532905 0.4013823707075087 0.26794982994625466
Ni 6.788808991405219 5.70396997670551 3.0026781311612885 0.6646275960892424 -0.8250322945639663 0.8070011480938682
P 6.593260748414794 7.323882989627462 9.757790002916314 0.8238431593518715 -0.939245324973976 -0.7076645205750587
Ni 0.8734737187215046 6.30502905692155 7.049536293165646 -0.31845169535054835 -0.8534368138485883 0.35185675317355536
P 8.682659233613512 2.8535804347797185 10.569121544419255 0.016043426616107855 0.15462280168562403 -1.5304306448126674
P 1.8930755745790153 8.255881925517498 9.942411743440454 0.10074584916151036 0.23223412171220006 0.4004542024662845
P 4.93832169196909 1.0351496196217795 13.219525104506905 -0.16054405226606544 -0.7653235658494238 0.25742501915553084
Ni 2.552077949018261 1.9131431550707698 2.1837345579773277 0.0535355100242949 0.4690504634784438 0.968675200199319
