# total energy = -340886.6073774634 ev
CRYSTAL
PRIMVEC
9.07671716369594 0.00000000000000 0.00000000000000

0.00000000000000 9.07671716369594 0.00000000000000

0.00000000000000 0.00000000000000 13.28469305770268

PRIMCOORD
 96 1
Ni 6.638493234465711 2.441800350229563 11.967369550687264 -1.2082025131388223 -0.7508932493567069 -1.3643834033401858
Ni 4.769488209833644 0.6980286103300676 6.144662626868098 0.028602237117724937 -0.9401647514644519 -0.27169541303161593
Ni 2.8231313998762197 1.8585486462355876 5.113477644269257 0.6105724661160516 -0.794969927960947 -0.29289055905199235
Ni 3.6417242315298766 4.718458904846652 5.079761269971022 -0.8039495057517378 1.1734715374155402 -0.34616510210541673
Ni 3.3948284426733895 2.747404346957957 2.952416531237429 2.0176413241399063 0.5169328889820194 0.1564644828800531
Ni 5.237220532011637 4.4298919065993285 3.0808529895256602 -0.04116439005345168 0.22252615039581677 -0.5566302075716413
Ni 5.373189758035319 2.797362599296698 0.6761991050839424 -1.6372319561396382 1.515533415985861 0.9606451308059907
Ni 5.715690610824211 8.136333132892146 12.780897574055126 -0.3427162243248678 0.24003639136543817 -0.8917701622111481
Ni 2.5118363013643243 5.429129567113019 11.536029419084661 0.5299233877044164 0.39743804134778005 0.29173047730562013
Ni 0.554843394006731 7.833797066630774 11.086395163646895 0.36179355267129304 0.6455281562556301 0.9378145060647205
Ni 0.4071388801108183 0.23776188817907476 5.0426701721590605 0.7361667417798096 0.4193618380040649 -0.35132453481916914
Ni 8.842265748697608 2.995489185788349 1.2915270205495526 -0.011867183751231174 -1.515575582077706 1.0370182075500916
Ni 1.4021712974725218 1.5720329861111855 2.8208722049257995 -0.5595262981725138 -0.7703559860670087 -0.18377782598302542
Ni 1.8454327896531963 6.950169555106645 0.6819219753781969 1.2861717307254492 -0.39906323565602886 -1.2891493252965347
Ni 7.528492601575196 4.148531821934302 4.105289432768787 1.8048354863556466 0.8094915186158896 1.2819988302946823
Ni 7.890807928356725 4.30025822929157 12.30589026291465 1.4225535839230146 1.6479251741874266 3.2316884689849634
Ni 8.089588038498157 0.2987038761927999 7.180204433798807 -0.16767783509736928 -0.4058743450405914 -1.0071651287444008
Ni 6.637077266557855 0.8871129709896227 0.7158934054341938 2.5576863736593567 -0.4110633454406985 -0.37871912478203806
Ni 2.210879583923255 6.782695043133151 9.566812896460972 -0.7576534508986758 0.21255541233635006 -1.52768830618084
Ni 0.2156628044274153 5.25215173206564 1.1503831579600428 -0.01820572437474929 0.3607016051586949 0.9594912197072055
Ni 6.457621487671726 2.142087143066547 7.315561889072555 1.1604923515470529 0.5308186458251761 -0.23717449643661087
Ni 3.7523603394072236 4.635688319258537 0.9244128333008189 0.025968141928987536 0.37103512587421905 -0.3143672408685295
Ni 6.094280491828735 5.986694160983696 4.907113029103434 0.09152381634261011 -0.9400932747965681 0.61160862069005
Ni 5.654495382396197 3.124632720358773 9.440288902520084 -0.35518453199520766 0.4261809178084274 0.19589826339564326
P 0.5414388978123537 5.996369941687384 12.416631660713351 -0.16391142607640158 -0.12682146320263965 -0.6209255272156016
P 4.009939424594142 6.483989351596879 13.002512889725955 0.14146518125774346 -0.47141099329082037 -1.291551506980124
P 2.4527468713633787 8.74466380694643 1.7846659822844817 -1.172001123517601 1.235434352271582 -0.8414223058862154
P 6.744536523359883 8.087500393505804 6.037693512803406 -1.2272610724321704 0.5648078582864272 -1.293295229144108
P 4.682959863259294 1.3157337180717525 12.56478274910328 0.3015469491754097 -1.363765824360845 2.2537182166369636
P 4.220292349367095 6.354001682312156 8.565704524499786 -0.4761821894272185 1.256770651855513 0.9653674759823246
P 4.900683082526988 1.4832445369146798 3.945141647046715 0.8633574153964099 -0.025536967928839888 0.16053608184626547
P 0.30459920411685737 5.594398436768507 3.8085352354644977 -1.0955928226601905 0.7460613751857021 -0.25219282422231404
Ni 0.6910840138794188 7.374851006855378 2.5970775694173023 -0.2548942823138771 1.02731409288845 0.09687633890377509
Ni 1.9609067878823874 6.875168639577026 4.9095047441272825 0.4779683347933639 0.5637501064458742 -0.002661605992563158
Ni 6.5888072836477125 6.0937449655046105 9.178142413158591 -1.2218458149538698 -0.3488441915994766 0.9415598320397656
Ni 8.824974602130512 2.802608941929655 10.737472533327178 -0.3803155227348805 0.19304793843104173 -2.5146767028670496
Ni 2.5499857444202347 5.462023590818616 7.264229421725805 -0.6609540038923972 0.18490345494703642 -0.11965451314055522
Ni 1.0388756852163223 0.3866636210945151 9.133147309871235 -0.5175388979971345 -0.7769824902445909 1.4704586351344093
Ni 1.4887450276336618 1.3380352126204966 11.67606319914128 0.011968742326101966 -0.4387178739331735 0.23423315442009984
Ni 4.365274755727326 7.495326276348859 1.6795839177585292 0.24148469377619056 -0.6877135313744285 -0.3246416262113441
Ni 5.863114654153761 8.094553002893013 8.113520619156143 -1.075561357930612 0.9481104886740896 -0.11102434826938298
Ni 6.894393126941391 0.9875831554259468 4.767730049681387 0.05674398965926356 -0.11543996083857538 1.3002441496581154
Ni 0.8991096683217655 7.845941714455854 7.079904891648814 0.37258164442573255 -0.8525762656205058 -0.03024414359652211
Ni 5.18350451868666 5.265104207735586 7.055314248982369 1.9432587954632723 -1.8066627693723722 0.634192676638153
Ni 8.210535297294255 7.876838860342676 8.974952833724616 0.7814459253325832 -0.7160123783191218 1.273594408281071
Ni 5.008133262611657 1.0249429240717063 10.464525657981333 -0.840129812327037 -1.0068470832833498 0.21177379697531915
Ni 8.130070197915087 7.60010790153026 4.27397840952479 -0.8527199902872217 -1.3207471547074736 1.4265066550334915
Ni 7.694160846794438 6.482219391712058 7.0586889724960935 -0.8441001098286947 -0.7619780464159587 -0.8263319872119962
Ni 2.3076283142427765 5.4644833812226485 2.921051934406666 -0.31095487275287087 -0.6385751219765649 -1.5106182380724307
Ni 3.4678415571015937 4.430590813835899 9.354430417686759 0.20221649230418726 0.8426682624781745 1.0825964104005226
Ni 1.4995009377029582 3.656827889213682 4.311122152297427 -1.6105189656248262 0.17163373442132376 -0.8611997456234587
Ni 0.32833391233643855 0.29945089003136793 0.5683404727181606 0.5724882576498206 -0.05972132712003263 0.5331143838378883
Ni 1.1837945545550477 3.6902029789392548 8.522475750410308 0.03883497058932667 0.22833941464348417 -0.4448291290372339
Ni 5.299023900502641 3.258586915128966 5.421722058077109 0.8174614241952438 -1.312763622281365 -1.9549421453384719
Ni 4.2734274527811555 7.10246779565747 6.43639376878644 -1.252676170071165 2.2960468022018454 -1.5436358306490319
Ni 8.129271446787579 7.322623575177124 0.12727736148160726 1.1726456990801353 1.1724981177586773 2.6880130218017775
P 0.36708151106624465 5.989480713212619 8.227702092833548 1.42482386801443 0.0002583958677092324 -0.3758310046009657
P 8.798579508053285 1.9754567658073514 8.26658674999546 -1.0136260538783963 1.1745503723020159 1.1266602334889564
P 1.8579586596073139 3.2648044665192346 10.657073693984723 -0.9699268132182328 2.3878552396644097 -0.7898976556443622
P 4.124696362152047 6.346041401189141 3.4757137940662357 1.1999369306959207 -0.00748268153029034 1.9091690528684155
P 6.812121760807968 4.46560878940328 10.612969016670192 0.18495076324520404 0.1410337501472797 -1.6494004731813723
P 6.272901212717923 8.263597786969452 10.434767640122947 1.1124356052491422 -1.1918996622137408 0.350364484898745
P 2.6168266910449605 8.823377099875493 5.805756154152996 -0.4560244835324211 -0.4395545109018559 0.38240043028836723
P 6.896934607801645 4.142214426653095 1.3993302849394502 0.746034892823141 0.7031838590958858 0.19729437241222147
Ni 2.5487694642942555 1.6530426885318372 0.592900254545589 0.838178345027621 -0.11833425166723491 -0.003600829977380895
Ni 1.3808410116810896 1.2116419234095641 7.046679567759649 1.1109320241204221 1.653688816144081 -0.5849246836409604
Ni 7.159197279145321 0.901583073801836 9.494650270449219 0.6444765750626642 1.349932003801546 -0.6564136928198825
Ni 2.9221765396873294 2.114729916949366 9.3389400918435 0.7342885509204903 -2.757307594432542 -1.2523594101616948
Ni 6.834214490857478 2.473514400678611 2.832203578875597 -1.4685092247175227 -1.4953823949592826 -1.5736994828036317
Ni 4.139800019835852 7.485205736494626 10.668698245905187 1.6229258239296114 -0.7535324867517668 0.025632355856123598
Ni 7.356034971772128 6.638220932944971 11.579071212796563 -1.8772315807298705 -0.30390362233304435 -2.3938518235674775
Ni 7.877301772927938 4.137458226757474 8.347556514859734 -0.2981638916357897 -0.27035638250521826 -0.34762214626691745
Ni 3.2378193858137334 8.540210748456214 12.68654963547681 -0.12921901690053877 1.0790346611911934 0.8626467624826304
Ni 8.96786936349839 5.646417103947527 10.246537398566785 0.4536343860336897 -1.4045147241434326 0.13442344391961367
Ni 8.727091282141235 2.619449862361439 5.9839702381045425 -0.38685332385339827 1.0503959144085782 1.0905843137020057
Ni 3.6698892854919247 2.8353032778533733 11.539416850002688 0.8767590335142964 0.9311039268137642 0.716212924365702
Ni 1.33890657748687 3.700831814965538 12.696406950527658 -0.37537231979699226 -0.21386590361765748 1.1733977467548113
Ni 3.160921436356282 8.826880712775703 7.9756116986330445 0.5604503526486799 -0.3258096783775163 0.6992179324696023
Ni 5.524008493656781 8.025388416624624 4.144519005190306 1.2875650115285502 0.7272211025507476 -0.8745136891235455
Ni 3.4823370747224094 8.774154061642754 3.6843766340671182 -2.0669653671860146 0.26341157575626895 0.9337742745570758
Ni 4.149820715799146 3.2381552243559817 7.400756865867007 -1.4699608695623847 -1.1739165953727588 0.15455183923837254
Ni 5.1200128807670575 4.702565572752695 11.89633697598659 -0.3354947668757642 0.27108194781733314 0.10056458638863972
Ni 8.257924838620667 0.3053489409706328 2.841968311409394 0.3000852770282187 0.30442838448826276 -1.0808447178167386
Ni 4.696883547686551 0.7370339878328425 1.8350944085823704 -0.9208714504524785 0.6160975096993389 0.46376170427567875
Ni 6.046927257371756 5.944850493963057 0.5095977733202925 -0.004358791189327977 -0.37927911105056616 0.24145666875173255
Ni 7.8159340868701195 0.2926524287301838 11.824559202790816 -0.03288595209474336 -1.3513450820989887 -0.29693824675880476
Ni 0.38354123032334375 5.295002914713023 5.9526319637541185 -0.06579607255920282 -1.0382070856518701 0.408937043126315
Ni 7.22910615623707 5.997513608074498 2.650734584079451 0.5894703940301138 0.5036217736954101 -0.26100579452825373
P 8.694297102326576 2.169580519944099 3.9373438391644084 0.3439855779555947 -0.5471166116542513 -0.7268318375321289
P 2.0238084391737168 3.576281099378291 1.6725031705475097 -2.0805585324894165 0.35521692789503984 -1.0722135245043016
P 4.788277014764819 1.2536489713426482 8.30303975457715 0.010621227159272032 0.20891807269407892 -0.31357019888853094
P 8.721817709356202 2.0166741393302847 12.691067117705915 -0.7332955908796016 -0.12133344350487492 0.7887941381675382
P 6.897370290234833 8.046110562353068 1.7957849610481005 -0.9749612903183468 -0.3900957420500959 0.1369716642627641
P 2.1077862281704527 3.481647244203197 6.313563998810279 -0.0031850825962009663 0.25007037856267256 1.6383182472252817
P 6.966779947871888 4.305994714661861 6.197907558562192 1.3032870502494973 0.09546068950317108 1.045579209746225
P 2.5824259322579275 8.96259579071336 10.636894335954292 -0.45044338990021776 -0.945079929377882 -1.7075894228172785
