# total energy = -381167.5173496176 ev
CRYSTAL
PRIMVEC
9.23871290771846 0.00000000000000 0.00000000000000
0.00000000000000 9.23871290771846 0.00000000000000
0.00000000000000 0.00000000000000 13.52179020385543
PRIMCOORD
 96 1
Ni 3.167141608731629 5.477263264274978 7.8312660339537485 -0.12333684708814888 1.1151936276102534 2.0894175255419434
Ni 0.3542251825403512 7.781740066304052 6.505873830099258 -0.7438419989368802 -0.14014054890904898 -0.36030771215438595
Ni 1.6520296661346596 5.175157356064283 1.6639642353159005 -0.4591077504434351 -1.1767430090779605 -0.07469800303452297
Ni 0.5931660114104785 2.8989694925960996 0.15715604777397013 -0.7856465936774921 1.4321450842661916 0.3377748211591925
Ni 6.838412058237965 4.2707520449795915 10.514747170095404 -0.6896002068741801 -1.303916199193064 0.792326576800829
Ni 6.918964395048026 6.22590387773177 3.608844467188915 0.7234917174153024 2.0733974959646035 -0.9775398496788004
Ni 7.082323314588746 0.1643345276112701 0.337813533141407 -1.318726010512387 0.9184502426054957 0.19467133296707764
Ni 7.049904671411029 5.788506259434306 9.016721302931 -0.13513898192939952 2.2519256435129154 -0.7425443631713793
Ni 5.470620629779458 7.534955570275794 8.146229458753336 -0.021283334858808504 0.28335767986089266 -0.3250956830296272
Ni 5.181744558283067 2.8986553763612632 4.940064451070906 2.1335916489559965 0.46447055741724524 -1.6524994238216701
Ni 1.264373277494883 0.4915420184705402 6.143598033234295 1.0385382437390438 1.8915258858653552 -1.7284066166729462
Ni 9.146704448649027 1.004746970689473 1.2088680149279403 -0.20730599101195266 -0.8009040340571949 0.45912034884892544
Ni 3.171040345528721 7.743999924559689 5.64880860721831 0.1592145348213645 1.3455025072752826 1.3143494787112462
Ni 1.864603208704074 4.929148911910328 12.773994929793094 -0.10925080130872798 0.06189596617384824 -0.7703408165583572
Ni 4.789986181164833 6.1967465001686834 10.055290277270885 1.103713651995112 -1.06009668663611 0.09266461481527268
Ni 9.048478454273 0.16201283908731454 10.195565349036215 0.21696691114048441 0.16150821595154763 0.34731669921135666
Ni 2.7262702344253817 7.985629218851508 0.2829235688462329 -2.6937316694531095 -1.1185229490938027 -0.664770806535326
Ni 2.7642875375534244 3.02356277327284 2.483709677884399 -0.23296251523779238 0.13644638788691338 -0.5304512351834284
Ni 4.695178510520853 7.365665397124334 0.9364313089688621 2.432069986508411 -1.5076175035728938 -0.1596840182586153
Ni 0.6735899301127694 0.9520123980880466 3.512961410376259 0.910502962733961 -1.462868224381661 -0.5168274737524067
Ni 8.14487691120098 9.39845013344515 5.2263342816894305 1.656931748561411 -2.213101471556866 -0.49407089678218136
Ni 8.349856231857574 1.5938350142747466 12.441574957178092 1.4263107369726016 -0.4551983880866999 0.21919220092657735
Ni 7.265776434446229 7.594249628957637 6.347101007587158 -0.3735550640825954 -1.9851220113559616 -0.6424975969594225
Ni 6.483469951585162 0.31928899012754575 6.831194775806949 1.0969362240619625 0.6446316125832898 1.506051958857987
P 3.4772112873667145 2.3747926450685735 7.39132130254027 -1.0959162674378804 0.5392217822872069 -0.5690108406241813
Ni 5.256374880195176 7.706961924987314 4.5564241308806475 0.20676091714176006 0.7075681042065104 0.25370951797715663
P 6.938615137150905 -0.1463753938201151 9.260709240597931 0.22082510854431 0.8369776398513004 -0.45229381284539527
Ni 4.214654580922854 6.388680758366761 12.388042159791668 -0.049078759804521935 0.4648544231192252 -1.1708091600920287
P 3.6951802382050905 4.096620786326529 11.245545057542186 -0.1329003224068679 0.28184844230521783 0.09955697105973177
P 0.9900943722056148 3.339166440868727 4.2205424125834865 1.649293515289863 0.35113093075112434 -0.18714262869020026
P 4.497100508317879 6.356160489348363 6.362610958617864 1.5811633952808446 0.19333770175731865 0.8726326700507487
Ni 2.7450248213876964 0.0045796299296648555 4.192011419747515 0.2874303072683695 0.9188040264004886 -2.080160782830366
Ni 3.0750870744988656 2.2713837328177386 4.775017618703581 -1.8004286155372027 -0.18773321108634766 0.44021477019367405
Ni 8.552987809956306 5.191038703349121 1.0948539842662477 0.9026500423484454 -1.0055306784647715 0.8633849262002355
Ni 8.080760244443114 4.036328946663441 8.024303394458872 0.09361746564684523 -0.9729866830904791 -1.101661911672406
Ni 4.588961029582066 0.609628473729764 5.806729620411235 -1.8026479917860245 0.575012566733571 -0.3609579441438751
Ni 3.8761573830350375 4.960440432127748 0.5760346662852465 -0.0017082409403583482 -1.204938754785886 0.5115304870195255
Ni 1.7671347887767708 6.981981654983964 3.8822142831397146 -0.5726669493195299 0.7831472242944061 -0.13480396718748397
Ni 8.501833057241853 1.932128960481198 6.972863045460907 1.0053170197920687 -0.9141726982760644 0.452623171160356
Ni 6.060724931771556 8.468490542785204 2.448579472503018 0.6350966765096611 0.8510932533170762 0.822776408650254
Ni 2.732848197931376 2.6098809307055553 -0.09942979865247545 1.3862393228730125 0.7525073879213621 0.18687806217490396
Ni 2.2542089657423965 0.8802275997150469 1.5737879313932057 0.23413365272775805 -0.6073403323319991 0.6014069975666997
Ni 5.042129130610896 3.9974432045332025 2.399455388859657 1.0659557165200482 0.15851519476149475 1.2942213405028034
Ni 7.554366105846151 8.665543047868566 11.752625667053081 -1.1185288626310737 -1.161326160302258 -1.222297814889624
Ni 2.458929602440891 5.652687942718544 10.303901266817592 -0.47719211874897177 1.190843967255717 1.025408648335621
Ni 6.788772454420959 6.14640475417969 11.866276616302153 -0.6825484422337212 2.7395847232314816 -0.036513264434685506
Ni 5.1330657805961515 9.296362357123188 10.244784591421306 -0.5607748258676342 -0.6990060735691123 1.3326498196823309
Ni 1.7524544741545445 6.187553980943311 6.038384800375707 -0.47871189782760776 -3.014917218795053 0.959545984204541
Ni 1.4983529175971466 2.7489050807592097 11.346174964985995 -0.48656173288932975 -0.15255203519952437 -0.18561025120607388
Ni 6.939963989218147 2.2227511486947695 9.440251613331696 -0.06313883744201383 -1.5550217038884704 -1.0970020443028912
Ni -0.14913776894412117 6.424610112404419 11.154989966395132 0.9001635284811659 3.5011621917749123 0.20953462323215527
Ni 4.779814358383795 1.3113706094541429 2.716459645314405 -1.7227625310132912 0.37554329815721776 -0.3824703642943542
Ni 8.654613650638803 5.1890246639610496 5.8591676303321245 0.8989445684724003 -0.09796982907826998 0.6779466817956519
Ni 6.157666745069868 1.7913771711359405 11.967649316254224 -0.5605565392092411 0.10574407370705013 0.039109050186319744
Ni 8.439056003838438 4.5979964906900195 12.178318760117758 0.6488135118751213 -2.3607750956181666 2.2253216677721417
Ni 0.412139901402748 2.131990034252511 9.144921377080689 0.8972363275320419 1.6155004779998177 -1.189562529440132
P 3.5829391165276676 7.835611000578565 9.591519829445035 -0.9792696878857134 0.14347912636397872 -0.06663039553504009
Ni 9.187631946305705 5.37415922954619 3.660686580134893 0.4816285572537706 -0.3357292514840734 -1.106931130491145
P 5.647819141078574 8.170375758499498 12.706168919850318 -0.13273731446644235 -0.10666761396258403 -0.8860422585884354
Ni 5.6707403875088715 4.306690637730038 12.518878962571431 -1.4320759215911532 -1.7907396703842127 -0.6744574376954707
P 8.4298357684747 2.723350801183957 10.721549288785331 0.7307018620104964 0.7980696499321933 1.848292786208333
P 0.8427664670969209 0.31956060828355176 8.143201008700998 0.043225900568170716 -1.2565140557600167 0.8072523448727259
P 6.991737735689483 4.203364873894308 3.8999008749035844 -0.3277063811795969 -1.6951018318732292 0.5562121461976163
Ni 2.6508361445006012 0.8173904946785016 9.857141136979433 -1.089951050993381 -0.6171190089853178 -1.8921159540408703
Ni 7.059318919743343 1.6894556916441863 2.066859880701657 -0.514712484291933 -0.5486649299779777 1.672495664437939
Ni 3.943516837981954 4.213351922419561 6.210004053021354 -0.3272096440488365 -1.4762055649205157 1.4373909060461632
Ni 1.5313443609678008 3.7929350582288626 6.475327874003936 -0.3037061616102576 -0.9136533354374845 0.19984953473390743
Ni 8.565922007861351 2.237570044008835 4.6359454273434215 -2.7934673321825505 2.483955105413477 0.7740604315017895
Ni 4.986059382692526 2.5939626285695603 0.5760078740181575 0.8054235191941032 0.6316755666432541 0.015179021733283535
Ni 6.5611860035689045 5.326311936010312 6.6238919188838405 -2.208330275420468 -0.3445627906153033 0.4417198939842909
Ni 6.433839586480947 5.580043944056138 0.6966386707795594 -1.7763643754991472 -0.16260504856015223 0.7372923707438206
Ni 2.623332496526802 4.698837040785424 4.2608241242161915 -0.29414705716691275 0.6437324978077882 -0.12500112216444922
Ni 3.879095293702041 1.8624321111985842 11.283095805674371 0.6310099080347971 1.6511357107049243 1.5034019228296496
Ni 5.193958136590545 3.943193483034328 8.902868025871841 -0.8554201628272042 0.03705833830487811 -0.6321759033184402
Ni 8.401232713678972 7.805816151833015 8.522000243389655 0.3158003737706303 -0.5163950142006785 0.17690989521859854
Ni 1.792698307064813 8.242936608746799 11.089422821729343 0.6150423289619472 -0.7226453102546071 0.2462638603323888
Ni 6.376614999463912 2.7115437262392086 6.95468957353304 -0.1731725396633534 1.2641654016576873 -0.7847929874279452
Ni 4.957715011854899 5.322782747724793 4.57427240011833 0.858376931462683 -0.0967719521154269 -1.8401403323045276
Ni 3.3887783285473643 9.018323295728667 7.699483186984361 -1.016416729249656 0.23216393059589693 0.28393360696902065
Ni 4.116095992886411 0.547547095399385 0.08452221169563216 3.1810822167923214 -0.3036994767420383 -0.2732905254328777
Ni 7.394896684389736 3.205685518488663 0.5166768604851584 -0.5792101497546863 0.512151408432976 -1.2927820369531156
Ni -0.03620651542133663 4.608112881194322 9.937785860917389 2.1126194175797037 -0.5493308456967507 -0.8856959309926101
Ni 5.11764636895078 1.500893563614209 8.345946408605135 -1.6867107795960565 -0.9468105389157436 0.6088243730766935
Ni 9.085571886122112 3.0483594783993695 2.3685445036091575 0.024061411824577914 0.9814088457159033 0.487997694004908
Ni 2.2674480411694895 3.722018698858059 9.176306208297282 0.9772053491575171 -1.7705878780266862 -0.8274838414282523
Ni 1.6310208332517508 7.227796086169343 8.63293316333611 -0.10299145066257746 1.2246480602893552 0.13063929428683307
Ni 0.3627534383161705 8.657246683783757 13.030381220023292 -0.02782113597732628 0.11221502614337447 -0.07522662184448334
Ni 3.485452219174786 6.131539665301678 2.5373505682104573 1.1574723337738064 0.8363009254992501 0.9085208993069257
P 0.1246819723195179 5.841721245100777 7.970851897744994 -0.47716743615862334 -0.7779600236665117 -0.7609287792158379
Ni 6.321875626187204 1.0504878377093856 4.337641249445532 0.5370977939656686 -0.7922828680470871 -0.2793562720109834
P 2.300014503751835 0.6227853246130316 12.650567574670367 -1.5932694345157592 -0.13989937943252034 -1.4501376641888704
Ni 0.8352341445597901 7.395986852498875 1.7383478835965351 0.4397442583151588 1.2010928986772347 0.5511198192763734
P 8.662346453243462 7.828663488560998 3.3725911798692 -0.2697097500601549 -0.10772742268566607 0.27213481456187966
P 3.7919372772476163 8.510886995775385 2.4127064746133757 -0.7497403666991862 0.5967332462401143 0.7692740658567396
P 0.38735520660284495 6.488135501543768 13.372441789433948 0.628880263286304 -0.004000122298328595 -1.3249640210022988
Ni 7.779005407318414 7.4179657502246625 1.1844057512043844 0.15963696707076377 0.06134215055290725 0.33808283931791455
