# total energy = -340897.2766354929 ev
CRYSTAL
PRIMVEC
9.04303379783469 0.00000000000000 0.00000000000000
0.00000000000000 9.04303379783469 0.00000000000000
0.00000000000000 0.00000000000000 13.23539404700254
PRIMCOORD
 96 1
Ni 6.535409455538185 1.9846836362706308 11.485065990977754 -0.08503100952941484 0.43883408779606353 -0.4525460380655174
Ni 4.481040202028368 0.6744384919952974 6.109815354675055 -0.150823739654508 -1.566551558904941 -0.4562574254788335
Ni 2.522282943207095 1.4681455546845512 4.718418026503477 0.5591907692099659 0.3002313156877798 0.1956079858487341
Ni 3.3005083323025928 4.101115229660092 4.726902200665664 0.17924805643347197 0.3484047900692129 -0.12268584376771129
Ni 5.236377672977956 4.59878050003696 2.745735400178101 -0.7684497701832315 -0.6662453341983235 -0.2224562163898298
Ni 7.185531230072261 6.14811441075232 2.639772749183825 0.432006780461585 -0.12501372056993956 -0.3790682805913407
Ni 5.055535086220981 4.486321333674836 11.331985517499302 -0.086330959287761 0.4806283981240303 1.0628698785058728
Ni 5.615036620636463 7.743341717196836 12.377051838976344 0.09517118328721028 0.951751684971103 -0.04903865059520587
Ni 1.7492934705898595 6.473130082851152 0.39226238316498324 0.7584605201810034 0.3452112228325797 -0.11419837512199042
Ni 2.9868326243898413 1.4467497370894415 0.3443397306867397 -0.6730461591702408 0.9366271706248386 0.4412588951874723
Ni 0.5853447159553399 -0.12359385368454871 4.487804391191996 0.02943938830703962 -0.26096105733324737 0.9868277027386294
Ni 8.57075216626689 2.324249549498174 1.4026604265717084 0.7671583050653175 0.24323921457345204 -0.24773041757558623
Ni 6.9163562907079195 0.7651898561016891 4.762729795648785 -1.0878556019169328 -0.5964175147719083 0.18070330082275976
Ni 0.8264952940655637 7.390446372382145 2.4463639628790204 -0.20523496741553687 -0.11943828336469109 0.47857562936005965
Ni 7.599521310166987 3.852178599584784 3.9578328831318945 -0.32669902296100506 -0.1452714423777111 -1.2194796287145384
Ni 7.839188830760051 3.773178657695148 12.739105968262857 -1.1747879422341188 0.6269956446690815 -0.6897084503172702
Ni 7.932060786255308 8.763196965185541 6.649951232547879 0.3721193600773333 1.2785221845999917 1.82920003124294
Ni 6.941378364793155 0.630647601587724 0.3275721377092028 -0.1313041815643416 -0.10240163959737848 0.053515969640269126
Ni 1.7286120526524056 6.760065540286837 9.17963228157685 1.0650026085781594 -0.4095602785326108 0.04768805010458239
Ni -0.052286820513492836 4.830869958438689 1.5015821715729358 0.39135378282691313 -0.10635856736259747 -0.5884941461597736
Ni 6.229872477902526 2.0973688784737843 6.9306343365240295 1.1500235908052452 -0.03524288236269414 0.3424984518871069
Ni 3.248248640890023 4.266494228890593 0.3491949354487069 1.4028766743193775 0.18371174863178036 -0.07143964399822535
Ni 5.96462221513847 5.7515321704169295 4.762994756534473 -0.2730493559563491 -0.8075143402848609 0.9199358260120867
Ni 5.489130463249856 3.017750756409148 9.312885903796943 -0.3314123692762744 -0.5356075825733873 0.016590043148197234
P 0.16441862905780424 5.601472070174643 12.426393343432895 0.42684349109309067 -0.058769504729724587 0.5146145252614879
P 4.0571751291974385 6.184367932619943 12.724732970593513 -1.836355411340799 -0.7207018133749911 -0.8401933185751206
P 2.480241879809096 8.471305925314473 1.4353916868360783 0.37354709366279537 -0.021327300722866496 -0.6533378821080361
P 6.162465705140925 7.888862214551233 5.720377110916224 -0.5550600348710442 -0.16810952331814918 0.9088263463624864
P 4.905890965526191 0.964394322667147 12.545790325204557 -0.29701743673617237 -0.16952131606401127 0.08358424978055928
P 3.851111521615121 6.249577248206728 8.255748941015609 -0.21394097982996704 0.9078179597026301 -0.26182623354702006
P 4.7483522764626205 1.039668534696603 3.86153180927989 -0.5277145529785557 -0.7825949513353618 -0.17182193917272987
P 0.14823702466021793 5.57804157001026 3.5453385208014256 0.3415229753477151 0.558449005947935 0.8170960704360251
Ni 1.428030657452131 1.0449858384776363 2.50405670890323 0.5171658309284318 1.0493330203617024 0.24164641616503546
Ni 1.9638665728285587 6.263892370460768 4.821164070431575 -0.7400797036809706 0.8699088433616825 -0.17031578694084862
Ni 5.920049102320932 5.586080826917299 9.227531422167626 0.6283495875938147 0.9272202754886418 0.4492288007668263
Ni 8.651397940279226 2.3488556440359143 10.121542005398487 0.0894795322190717 0.3478517457792203 0.7295512933458209
Ni 2.2242155113590774 5.161456139260507 6.984846418899737 0.5203133754184781 -0.11635707333620605 0.18401565302544437
Ni 0.5239814025761617 9.173072464973515 9.326876381143263 0.348472924302987 -0.10825347039246518 -0.23909408205682692
Ni 1.545608180855181 1.3092413675411587 11.536525373913076 0.047956987495252894 -0.9172670209306719 -0.9597727555033665
Ni 4.146511258538981 6.827038247433659 1.644736107023428 -0.2155270933701643 0.3576594758982614 -0.0374602017289871
Ni 5.617523454887796 7.935234891063374 7.9538762006113695 -0.6485803128183927 0.27130434824078437 0.4445550494402408
Ni 5.418052218829923 2.9388864600241305 4.721515265525594 -0.3837340614981262 0.1262373085643955 0.1205122331551602
Ni 0.6742693872662067 7.2050280106027165 6.882881693078241 0.5053418417103103 0.6921142315452854 -0.6714803573450178
Ni 5.000607699884254 4.741316796289758 7.1975792637924485 0.5893472381886883 -0.4110851998175694 -1.0641137782153027
Ni 8.289911713505385 7.114398727450481 8.957555270022674 -0.33895752861338396 0.8036849392364417 0.9393988198327048
Ni 4.676414943846772 0.18470938794195768 10.390260271563948 -0.048117938553149386 -0.14800658192068705 -0.28703050072678954
Ni 8.007316912217481 7.148753212253448 4.967071609625816 1.1784659053063382 -0.6882578339136727 -1.7802300291021407
Ni 7.098112223862657 6.288462292863945 7.104865561385914 0.48291822259947154 -1.6587058097426983 -1.006632910390015
Ni 2.279423231738682 5.269448047003872 2.529284059852122 0.2977309178634292 -0.39275451982918164 0.10734458542495061
Ni 2.2636431380347655 5.256941531478074 11.49324541490623 0.47010255889204206 0.09382752477512227 -0.09489710369021721
Ni 1.01601195869119 3.4507312071504206 3.713547085258262 -0.1528626244614077 -0.688020521091886 -0.3134208177948602
Ni 3.7647415073078965 2.5198503671576082 2.5902196377400704 -0.04781686237296281 0.4535012028899351 -0.003162199778065522
Ni 1.0593913910680883 3.3656995618220957 8.296818782600543 0.12119871769922352 -0.1610284481016517 -0.13695778030569317
Ni 3.6693827175613065 2.8425781517452133 6.922203516260327 -0.98678450820552 -0.30627880743344027 0.06379086920371595
Ni 4.114923942030224 6.891279958420836 6.016095162624254 -0.2671638437098496 0.8055973257678061 0.25101474475381286
Ni 0.7767947811734577 7.539918675437753 11.418266910076841 0.7365742616308734 -0.5378799235473317 0.05296935310817974
P 0.25416712073338554 5.431842845132772 8.009159882473561 -0.5786383364116164 -0.43651135320015794 -0.2555666257905534
P 8.506519498313356 1.5694727466343414 7.93238181394957 -0.39577119516831843 0.19912191253926353 0.19692156245383505
P 1.8654693237785214 3.3163878993765623 10.516976684764808 -0.11497896204175681 -0.06249271921758269 -0.6585284251700401
P 3.9391183250114046 6.129087867971208 3.816690118363208 0.07836542458378117 -0.3609193775964558 0.10285492508471318
P 7.005131751963706 4.0758218645656195 10.560666293195599 0.8123320733884785 -0.31339716364577636 -0.3640612656595472
P 6.5166903759008745 7.632826803067574 10.129589401035803 -1.0377620276946515 0.6136644747778142 0.05464416970744137
P 2.3431314037410265 8.52988669724225 5.93882696167691 0.015157167356412603 -0.7194825962559093 -0.8828260656439828
P 6.962267772504357 3.8461016809778887 1.6437296173791611 -0.6149227726649474 0.3112217532610124 -0.12332219180012954
Ni 5.322051373694807 2.8572007371430552 0.4707432549236133 0.048098655279439746 -0.07047625164369152 0.012279074477669176
Ni 1.4936107374182068 1.1295291599893353 7.0893929308258 -0.3747765951945223 0.5178687705327274 -0.19809681370885884
Ni 6.842610351363828 0.7164659908428341 9.197089858021213 0.08327880272499852 0.07491886079607743 -0.5179284201260693
Ni 2.8188673175379537 1.7020255337472399 9.247530091065169 -0.4117953385107166 -0.1578117409365669 -0.03214727415650593
Ni 6.4610666759737745 1.7211244207974814 2.6281388864044044 -0.5189758875539772 1.3571246648952433 -0.9031966588805348
Ni 4.0677012203558105 6.644595043722189 10.560149935974685 -0.014271679427665744 1.104147139988105 -0.695226551922022
Ni 8.181820332391966 7.28632488303722 0.3138610901023959 0.1908488738971939 -0.1455295811351042 0.24647880455667226
Ni 7.555816328579004 3.7173107958597353 8.299068689370475 0.7839599500036886 0.6843700688234923 -0.589384776294843
Ni 3.101299344220314 8.354270983929895 12.416771555638643 0.3856161090121875 -0.5013072666296206 -0.1775215606606685
Ni 0.24615137571381446 5.0315167888699195 10.196296242993572 -0.9205114960098986 -0.9373465652893663 0.24864058809468148
Ni 8.613182080111462 2.196941721897179 5.657932250713556 0.4882432343568108 0.3750355052828638 0.4901167972304398
Ni 3.791047692170185 2.5349974485066404 11.365550545465393 0.043908271347175995 0.002937999582401392 0.43762309820709794
Ni 1.1542347278971288 3.3819498932753556 12.762863826245052 0.030312792050928444 0.231434251518724 -0.08136024554604698
Ni 3.1389907084368893 8.513464548149807 8.095057850424714 0.46635826135826136 -0.2935742153825783 -0.3183326532741808
Ni 5.634036034316652 7.83619558662481 3.5541003160963967 -0.6478079534287424 0.9287773355631166 -0.17981395623927096
Ni 3.061247748223382 8.231195296072988 3.573450599481864 0.24653099795084638 0.3424454871619844 0.5098492426623606
Ni 3.5781113790205454 4.349997601533553 9.222382318812322 -1.489648320688983 -0.18084702548947562 0.5720082326896084
Ni 7.231940078718966 6.125497783615647 11.599591490526894 0.29397453614479047 -1.009106568741488 -1.0241434084699523
Ni 0.6278985193607953 9.210691484920961 0.41823578438927483 -0.17891407013282093 -0.7218621522316793 -0.49606555861470697
Ni 4.709910340453825 0.2972119608655588 1.5762821509661749 -0.14074218704878985 -0.40473148968539974 0.1796928572803744
Ni 5.807915485169892 5.447641024903971 0.41246904183627336 1.2085969203637636 -0.054870683895950664 0.21046330569401175
Ni 7.990804332788627 8.880765445554951 11.257854344922096 -0.5663389502189731 0.45335747822321926 0.4278742463504502
Ni -0.010552315955931302 4.807113909063222 5.67299432754636 -0.11088550869867353 0.28832479405818084 1.1524715381251054
Ni 7.89413430316406 8.684766734415302 2.62040980555126 -0.12464939525198535 -0.3199318794405006 -0.5465046891018652
P 8.494193843460383 1.5684056686646786 3.4165847121212005 0.5674836053463775 0.1826840786982144 1.6421029110786947
P 1.8954560233327835 3.18298506710139 1.61541949626198 -0.5480650916104496 -0.5264331151629708 0.4624411856920423
P 4.699049657050728 1.2845538857006475 8.269672499912986 0.42292153033086516 -1.0236636406200563 0.04915897822315405
P 8.633727852544297 1.6876923254259175 12.437603992237907 -0.612956392967196 -0.31321564376258954 -0.2917014238398976
P 6.287729807139006 7.740484118566213 1.2852348261338309 0.29924709739763944 -0.5497219104875822 0.9325404021499746
P 1.6238756370198784 3.212601002276362 5.930766905792497 0.7766978691246366 -0.4150488124510078 0.21098601096670114
P 6.820129369731773 4.054010067423014 6.056317671957005 0.3890143360604591 0.5290564117184308 0.23584652165380673
P 2.4907408418665447 8.583475714600077 10.222647643024068 -0.5521780853375586 0.4546301742880558 0.8021654172681217
