# total energy = -340864.1595113806 ev
CRYSTAL
PRIMVEC
9.36286137833631 0.00000000000000 0.00000000000000
0.00000000000000 9.36286137833631 0.00000000000000
0.00000000000000 0.00000000000000 13.70349403972957
PRIMCOORD
 96 1
Ni 4.973795445476261 5.042696743009251 8.608644587768337 -1.2401404994979996 1.6741303718278844 1.9160236138964033
Ni 8.401492214105117 3.1657239047923222 7.494331120605583 0.7767765448813719 -0.19498886420749648 0.5569647080929246
Ni 8.380388324359314 7.021734134074001 1.462655919170582 0.32506482979169177 1.9639114387166174 0.3036007463806448
Ni 3.1704708755559077 2.5601902022989735 1.7114018686131949 -1.168500052342878 0.36619579550404674 -0.3133485697960281
Ni 8.960333326464342 0.5987680987975563 1.9140085730343623 0.28049398515985235 -0.623287599689875 0.40789806033883946
Ni 6.368056597919199 8.27885745461509 3.186884907993071 0.7962814476835189 -1.580040851640627 -0.5226371384556483
Ni 2.786181589519216 1.7320731941592382 12.976784613552184 0.8508973352561863 -0.2971825015591269 -0.2719725779524026
Ni 8.842660883551634 3.240692336555693 4.840457999043722 -1.6419118781138111 2.1541190794853873 -1.8375167786387516
Ni 7.604946774830885 2.5305661086185305 0.7091122300403256 2.1922961047757403 -0.6334704537601478 -1.1695025254654632
Ni 1.0451294112134717 7.815639246414641 9.466963378141006 -1.6495236290227981 -0.7695861977805197 -0.5477943544475663
Ni 5.395966869006972 7.842754093222024 5.29457831475704 -2.103029974119056 0.6910325684453325 1.2579271340574594
Ni 2.2324525995207756 3.9945244018191217 12.214363059179261 -0.5945480656633374 -1.1832874950646977 -0.17072973454981563
Ni 8.558956818251035 4.850617640021172 1.0430330665310914 -0.10701702688220278 -1.6014661113939388 -0.38682092795356604
Ni 8.024983465947201 6.873164248321388 12.403196994383004 0.9639551690158302 -0.06744183569274192 0.4666727072748866
Ni 3.511522467339665 5.783692325201919 13.273259621893278 -0.5106123460806303 -0.36877384064386814 0.6488574777391792
Ni 4.452340238953322 7.586127423282942 1.0329445833007889 0.2067364916617278 0.7953265399694174 -0.5427184825865556
Ni 1.4476294628027746 5.375808628269299 4.520056198224635 0.25387201169694984 -1.5356060183660198 -0.5753475814754866
Ni 6.318227449193752 4.7469894893084215 6.840702271330408 1.6227239923314507 0.32516741680782707 1.0021136823634225
Ni 4.910577404853521 7.678492051651326 9.447051380659907 -0.2510538255218644 1.1490103190493826 -1.2060697830665357
Ni 6.9717926310109535 8.852416985199872 0.5856844361840762 -1.0564611467660516 -0.22174710613794713 0.9764149920457379
Ni 2.608174867315493 1.192173150547022 7.39628323532695 -0.12282108379399492 2.110956942275616 1.3953019472959132
Ni 0.6496000099860808 1.4270686190220374 8.878288444004486 0.0037733509995031794 0.2650619668754983 0.2201715341207111
Ni 3.1658456219913886 6.900634883864504 10.53657573580359 -1.024195087643494 -0.5744173563517333 1.3295241295691556
Ni 4.233108837711993 9.153002289724819 12.445430989886715 -0.9999022765344007 -0.920660105772621 0.34200762829361747
P 7.785032052280201 9.097883124270721 12.483225116482945 1.471339752187782 1.5589994575892956 -0.6272334717115005
P 3.8860931031739865 0.257546102935106 5.071745020709495 -0.16942952768115335 0.9885796524327296 -0.6492536847363335
P 1.019774782361816 7.262799728255531 11.551497747067248 -0.12898350385096496 1.0994993568034483 0.17361065564203648
P 1.8307296654332035 4.308854386977094 0.5112215989399038 -0.3112641764631736 -0.09626647323391808 1.9322711861035176
P 8.261011840659679 8.735053516715563 4.085792639109763 0.003971325942922193 1.2339935060599976 0.5558082258909782
P 8.429908498656363 0.771449225399055 7.673915484966434 0.7161561029858375 0.7069806071341567 -0.5011959378627369
P 1.0106459924318438 8.06745340555987 1.3778592917256811 -2.9033256851682903 -2.3042146827246186 0.045779263117643736
P 2.684126399532861 3.6529391269317664 4.09756362854562 0.8619340526863221 -2.252302824346676 0.4321936996614105
Ni 3.197389102272492 4.269343111587881 7.227263923845053 -1.6701387341699883 1.314507344445349 -0.23239430143914816
Ni 2.036132120288309 6.225357226306169 7.880714878752362 0.5039040808225193 1.4317139102660439 0.027982858366171162
Ni 2.434887027290957 6.22270753651111 1.6697296447974823 -0.419612006341658 0.3712215308534123 1.3960851053188408
Ni 4.583654371022921 4.987530763247819 1.7007403782611341 -0.39390483138354093 0.5208959873948256 0.12252052183444061
Ni 7.595995879268779 1.6191945363174503 10.015911691074582 -0.04691260539113856 0.7666551401766539 -0.7183538819681048
Ni 4.766286346791163 2.2324806881051753 3.3431866447448333 -0.8115679415289442 -0.4816943774946994 1.574482126605927
Ni 8.618298634226587 5.466647110218622 3.2877968925943493 -0.13939672876448897 -1.4203681462359214 0.6712085917408699
Ni 0.8923958609666452 3.427537599983922 2.706604757341966 0.4280632224328047 0.6412359566381796 0.13233802214549467
Ni 1.1976691502279389 2.8745014617340123 6.082555799503153 2.585511880512057 0.02748972077983653 0.6229908943850625
Ni 8.882125344633515 4.509584773960348 12.496805947040302 -0.3505958841832607 -0.638095868347301 -0.8092413502782966
Ni 6.311308294569906 3.7382628834772387 2.576201631693071 1.3373765357340388 0.011532169009315623 1.2620614679408069
Ni 2.723768754982607 7.046704885605525 5.558849761083633 0.8894880510451907 0.12454218025015969 0.46243681481666815
Ni 0.6951550124520083 7.5148105074915605 3.5214826793678746 0.28305583234975773 0.8504584479465548 0.10211264760204995
Ni 6.919388695382181 6.25774336411927 5.167478406633577 1.1762028203037742 -0.37871552523761226 -1.0290490733016857
Ni 4.036413844020861 8.40173564850325 3.2975398862365326 -1.3802741064285131 0.3111641605501996 -0.19589774917501102
Ni 0.9897855370841743 2.2552137157461725 0.6647004329594747 -1.1098940697742112 0.02704491993293407 -0.5683166427706341
Ni 6.591370206759984 1.0183329016959537 2.347997800308262 -0.5942678154187572 0.661385435002861 -0.7096188160879521
Ni 1.9216055988283922 9.214413298084498 5.853612302062479 -1.1688250397824644 -0.29435788762613824 -1.1960540507017468
Ni 6.209243741722085 5.93934053422331 10.710144461672126 -0.6705665872814968 -0.3756821377279272 0.44666206848091466
Ni 6.995901999287547 1.7090499178127754 4.604277945975485 -0.27008410268043803 -0.6658570976209693 -0.6423258472682486
Ni 6.439963373982979 8.171999116696352 11.192356170643798 -0.6546306327775306 1.2290263918627091 -0.754750675429584
Ni 1.2869159457279324 5.308976523120437 10.75333721419002 0.028424059668647823 1.6195602498914883 -1.3526748566540059
Ni 7.179161286774053 9.143133833738982 6.236611385789068 -0.3399494602130081 -0.7537191488412761 -1.196507079078765
Ni 5.402614500648284 2.6210862532779875 0.6971614736643087 -2.7936359965499307 -0.7961513498635578 0.7422970230472635
P 4.35164266387963 6.646386380737948 7.067206743359022 0.0750607856905804 -0.7513825302882995 -0.016568960102274693
P 4.66798566425293 0.9398346711596602 10.43009940263269 0.4481435381224475 -0.5201979328865364 -0.5924652149923797
P 6.454550712148002 4.109687597858771 13.43285053187827 2.1824449230132736 1.6637672834260055 -1.3389431088902102
P 7.931588922817487 7.160660272515976 9.271441550991643 0.4068858170242412 0.45341841336814165 1.2828568074196034
P 6.397914763136308 3.418455624361283 8.837260385057679 1.4593694671997834 -0.38005352732274544 0.9037044517548888
P 3.3894682052605716 6.245150315446642 3.6497744797560427 0.37262303918662926 0.16626809923403624 -0.742753908079024
P 6.187737248933217 3.4829095626976194 5.223498279360765 -1.0961224699114154 0.5621825048484382 -1.579796853950621
P 6.5894601830207895 5.85955022880462 2.805379200670411 -0.6005631615091657 1.6914603784659 -0.4588845786890354
Ni 0.7565838102484738 9.288286275056272 13.120246122088599 0.021239883215382775 -0.5164970869961815 0.3118051365683082
Ni 6.795171612304294 3.5537302468312695 11.150341266098406 0.38712791767102356 0.2626764973624573 0.689975845046044
Ni 2.572361922205603 9.198103193409615 1.1262445615296905 1.015652854500438 2.1691739169359803 -0.5132310146503999
Ni 4.773392758644341 0.5000067634751648 6.99701805237437 0.39981502622038884 -1.1379190942322275 0.16093614549816154
Ni 4.3983539797366875 2.732710287683246 8.34370088798844 -0.1625114604050814 -1.5660594497598708 1.0697012996054094
Ni 6.220404272590318 2.285474484006347 6.96460944369375 1.1201975085827482 -1.5417614964444544 0.07952884876426303
Ni 8.75204711027751 1.9321294551168933 12.285949625380882 -0.8070949933592553 -0.09205294937320276 0.2598287435010171
Ni 2.5879604494090223 0.3192267617050241 9.929866994196178 0.6234830035301326 -0.7631260439774727 0.9268194405057973
Ni 4.707927631269608 5.184965422994817 5.162202434197125 -0.9800453897094734 0.05916828283004003 -0.5433856838569094
Ni 6.336625471975696 6.267387111429907 0.3914294041911501 0.04517351121284478 -0.8789763528805894 -0.11937426289597507
Ni 4.001228210629234 2.6906897654209745 5.920649453877461 0.19912448364242483 -1.1589000673592686 -2.2884412219404457
Ni 9.019534699517894 1.1126450052493986 5.521069678779602 1.3205363242482482 -1.7042194779037811 0.6289872211778135
Ni 2.18620942673705 1.3684477433794167 3.818657093460526 0.29094140574542154 0.3749948818529155 0.45085682328855253
Ni 6.755875682728814 9.290561450392666 8.541141165452316 -1.2525051917109398 -0.24684904341189748 1.7766194289327466
Ni 0.1889359903937291 3.415534411583692 10.402747675430199 -0.3612315095202359 -1.5693257792159683 -0.27649206308931096
Ni 4.6181003383586825 3.9101837457276467 12.385136034613858 0.011254489867896747 -0.7861327892852913 -0.7421923791485993
Ni 0.06024158696249584 7.950764063101161 6.855844827180401 0.16259476414750706 0.8382480219232918 -0.14876942822864056
Ni 1.0550353186451749 6.2904572020837035 13.469479918508052 -1.0269327982896312 0.4720108316583484 -0.25321483772892517
Ni 5.578926544926545 1.5330374851014468 12.281414255286442 1.842814022481949 0.8918583510495802 -0.25655418651480333
Ni 9.196183806808953 0.01679884604344198 10.832119139428753 0.10315882947837718 -1.1216954332845133 -0.2908380473983378
Ni 6.475429893218605 7.092713986852584 7.7733893340464375 -0.46048946128231016 -0.5955425683661227 -1.9533737724100875
Ni 7.951241569035959 4.895147409156502 9.41342372741633 -0.24025982023015394 -0.33022914760145067 0.6382413927862298
Ni 3.0828719436740424 2.5584112586203123 10.343548174948939 -0.23309698393312756 0.8556973277479908 0.3608838963728301
Ni 8.826566124690483 5.796613074025879 7.541238120267293 -1.5568230187632672 1.754309452581637 -1.5124959147111177
P 0.8874485249676738 4.410076282292918 7.5939828640534515 2.0391010366755786 -2.239744270955375 0.2826133454957004
P 2.5143589954197805 8.58484513020629 8.11970379026059 0.06669184490059482 -1.3704650907578915 -1.1588620150324815
P 8.19882371479827 2.7362400864561685 2.7309697317365984 1.4059098047187464 -0.7570055329020318 0.73926286420663
P 4.695531202687779 7.0874426958468675 12.27730302281644 1.6515995377152202 0.6138765907886202 -1.0212709720181636
P 9.07449469632706 6.333479550522905 5.1914314151236765 -0.13824821698234255 0.8827785002354991 1.9275470411549707
P 3.795591684237464 4.691982678191923 10.479583061770017 -0.40938724328985626 0.23624118598906413 0.14312277146582447
P 4.440140430462293 0.7327534552435867 1.1414461034069239 1.7387565924487025 -0.4398908111953521 0.30793382653836
P 1.297280633371501 1.6057494672513577 11.308191620136752 0.1742899410972482 0.5578795065977102 0.06768891870654149
