# total energy = -340894.2807720633 ev
CRYSTAL
PRIMVEC
9.03828220316881 0.00000000000000 0.00000000000000

0.00000000000000 9.03828220316881 0.00000000000000

0.00000000000000 0.00000000000000 13.22843960790723

PRIMCOORD
 96 1
Ni 6.625630234366317 1.9876718975737928 11.516322439859746 0.017295810965970215 -0.5427483073832265 -0.4917702736734627
Ni 4.5810352357547695 0.40500994268851637 6.041322465519251 -0.39887785911810014 -0.9036273186600501 -0.10078467281924577
Ni 2.459614838791221 1.4300189266420074 4.735926988599213 0.7472996184681775 -0.4735540077757522 0.39874750418782295
Ni 3.547444402891252 4.43368412171563 4.813445623192814 -1.0350091475398626 -0.2701386100674573 0.7887686842462416
Ni 5.04431950266382 4.521915832152364 2.700995721272132 0.6435599767856659 0.32711785566597856 -0.234005611790326
Ni 7.289229948766592 6.209570991738351 2.730614171907369 -1.2287520551554 -1.3085562690682366 -1.6097183241004018
Ni 5.139076852819395 4.5394500995409395 11.67941552993532 -0.2296095396051594 -0.6743558791205999 -1.4378768445436463
Ni 5.656021400906779 7.9303966468480835 12.261361595654224 -0.8963194721447274 0.8235958192277557 2.1608885369987365
Ni 1.9262477320208276 6.389514151243057 0.6755962263099949 0.7973302006630075 0.673000650644286 -1.876037560421769
Ni 2.825520653718568 1.6331995095776553 0.4695694883224593 -0.23102056102007312 -1.080591721265668 -0.46571111469256565
Ni 0.36646076545191353 -0.11578310594219436 4.689336451725695 0.2307130570819833 0.5630530803788497 0.6157190433139976
Ni 8.607354942279448 2.63627710187219 1.397902294818007 0.22503580419154792 -0.49628693059689366 0.15194499774314477
Ni 6.750494102393718 0.7411987897050932 4.931390686227457 0.024973382115886022 0.0914633954183199 -0.5986152937541755
Ni 0.8054871868742646 7.451177888492612 2.6312825471510934 -0.21261814725348546 -0.5226996162624674 -0.1449485118206536
Ni 7.614364072874425 3.7952379465640154 3.8789622656880276 -0.16785267011233673 0.03996625598029246 -1.306636940558337
Ni 7.687556081798484 4.14464889655108 12.656376102103035 0.8798109329667428 -0.0004913378141217344 -0.3948455980302555
Ni 7.916459615758815 8.737361592855354 7.01981683416936 -0.2594374215998693 -0.03270700331471786 -0.31983237774815887
Ni 7.049832969219596 0.839025540481885 0.6533331296958006 0.12266270383925973 -1.1921459738965923 -0.7691740499437656
Ni 1.816134340477011 6.478514115663312 9.181303935944019 0.5729307445038778 0.2113891599423908 -0.40649578067467407
Ni 9.21498057526867 4.988779258796402 1.3680054650922715 -0.39604527476531143 -0.23778384788583565 -0.07576501084645662
Ni 6.405475757535957 1.9704449317786263 7.015305827543773 -0.32049392259155773 -0.39228889304667275 -0.7646355386434638
Ni 3.6041957765679844 4.130883592822833 0.5461544683690305 0.17941286414611038 0.6637480216977666 -0.6109527322736058
Ni 5.922704954291975 5.526719736339279 4.8913077125084605 0.1331898286228287 0.6663052409019816 -0.6415115788970693
Ni 5.296053737357933 2.8417895616048745 9.61317294172461 -0.0439694636024146 0.2134172461160131 -0.29069612250383486
P 0.3854971953353237 5.89412590610503 12.161287927932689 -0.8201189164227487 -1.478489475858686 1.7399228448426616
P 3.788269431019381 6.0376357502265705 12.583526644072803 0.316771479434648 1.284547307748149 0.15372754356486426
P 2.342117170723453 8.46469469668086 1.4077043118195065 0.751099451830242 0.2128613736125431 -0.7052317427638499
P 6.2612428508416915 7.762112871328563 5.88542565569872 0.30455256877095294 -0.058583099750531366 0.960835649550242
P 4.653242071923493 1.119499704785374 12.447776165184816 0.2018225992998782 -0.04755769517430519 1.1769656666117279
P 3.9334332807760286 6.140735434814957 8.153812135881433 0.15009560323923182 -0.10701034201398345 0.40154255043445686
P 4.621562892955991 1.0136975738314287 3.8775197558554417 0.22859292541518697 0.47216098408296747 -0.22345508996798938
P 0.14159282447560342 5.491045636657473 3.4883394605403013 1.3812560107258085 -0.25569286695577254 0.5089318730544139
Ni 1.322092799380683 0.9774450240914428 2.5309440577622997 -0.6013463195320934 0.5173352666267607 -0.3374783729646962
Ni 1.6925448702340373 6.516167599137953 4.926800142718871 0.5546882533539221 -0.2017570361692654 -1.9533341774214037
Ni 5.913494944771894 5.521703489741002 9.120731176570436 -0.3397579130274923 -0.23838137226051848 0.8968313787841393
Ni 8.637389153894002 2.4837108990272725 10.161597826571995 0.5410207831691586 -0.13194541469276633 -0.23931725381122657
Ni 2.2248454597096616 5.272111327918585 6.849461484378983 0.43372993380027886 -0.8997608937261085 0.6033432953574641
Ni 0.5614463379539425 0.029973655124087582 8.898903713712434 -0.30196269655658964 -0.9151497174773529 1.4485487224351956
Ni 1.5269545027979161 1.079839722671423 11.258486460880052 -0.08633712993534809 0.45056834551385627 -0.08414243627687444
Ni 4.206624397315748 6.84931867952087 1.7568820741268674 -0.572075338482118 0.9242586217571566 -0.47967708995435454
Ni 5.763595035163899 7.808461182240218 8.260367155739228 -0.5038421172363323 0.22501343559404474 -0.4113492521122335
Ni 5.28147498823537 2.9915538969804834 4.788814496652947 0.689502247843735 -1.0048261961985792 0.5082297047810668
Ni 0.8313872882292642 7.2967317229586115 7.039792341569097 -0.5325507980249345 1.1094932347913664 0.05015425225688782
Ni 5.124895788111831 4.587786832527588 6.962021538903256 -0.5987253369694785 -0.5326382155324182 0.5073442168523198
Ni 8.172893757175638 7.027264378668424 9.23428453830399 0.18129156922606196 0.8244638236550058 0.013896555476434133
Ni 4.640931931622855 0.3586435552125433 10.446035277602233 -0.18772755465939284 0.02436171667381611 -1.1348566532568198
Ni 8.134227986099184 6.883835879086316 4.7808906346841 -0.315437848224889 1.1780547859108483 1.3330118310074397
Ni 7.25448679214717 6.175740701616992 7.163662902387217 0.09185523154009988 -0.7337481050359879 -1.0933510778138653
Ni 2.4973044753944977 5.094030054538645 2.6794999748132415 -1.5964576024357537 0.29774094516575816 -0.24636233358346601
Ni 2.3725942581638004 5.0468411833861975 11.264095618787964 -0.1864725992063692 0.880325153599 0.23219581227509686
Ni 1.1356240001571356 3.1548846938768396 3.6755087266311763 -0.895169160590368 0.9850497849026002 -0.3431314574854155
Ni 3.5125927868859206 2.683312322227933 2.748459356202215 0.403144347703938 -0.5705874410826819 0.27761820627395417
Ni 0.943958188692129 3.4841945043421565 8.066636096800876 0.12755345627265774 -1.078506299491549 -0.07285580761946163
Ni 3.653761715928264 2.495786043991776 6.942523252801519 -0.15857741545799786 1.39683895276573 -1.5415802336715838
Ni 4.106145814553488 6.795468594417196 6.011995047569536 0.0623407670207507 0.8863919286183701 -0.1435493174802818
Ni 1.117927043689698 7.597299796158121 11.301175171345504 -0.5706527471029784 -0.11069473284410614 -0.6261397244266893
P 0.16813735534854402 5.449975682526708 7.878250277931392 -0.09339429389244562 0.49405906970763946 0.8429893932630192
P 8.494837367681322 1.583723953038966 7.913847552214847 -0.8521970279042161 1.290635680034074 0.3567781017345727
P 1.7899323604978985 3.2827402332988895 10.233679934446924 -1.0253274014757243 -0.165643835386476 -0.44876060288115616
P 3.8861269119555133 6.237761393792456 3.7837701741606016 0.843180940448535 0.7212083206977644 0.8463248853941554
P 6.944157374215877 4.097767326992041 10.505179988394683 0.26966347020325165 -0.346553595793087 -0.48526384001351264
P 6.5007302132102796 7.922659877319929 10.402897364513475 -0.41863884379511124 0.36055736627134677 -2.3405852509338527
P 2.2712208854677938 8.41878022331284 5.76902794656971 0.5902959752552027 0.997579799048811 0.6712875246079212
P 6.834983964016602 4.188538794715471 1.4798659565774341 0.762786401249867 0.005951846708060717 1.0708603529105172
Ni 5.701294156241505 2.8508549586104106 0.21121832725969905 -1.3149400611073934 -0.010964469431303697 0.8537036943567297
Ni 1.3717762364090307 1.1527515448485524 7.029103669087793 0.9742863757385091 -0.10531907035448959 -1.4188573660183499
Ni 6.780962151551907 0.7457875255572476 9.267130559498225 0.8638960615086992 0.5852985220406113 -0.2040957116047711
Ni 2.7709926974529653 1.8039055447158039 9.00574976625575 -0.7715572054639616 -1.7100052313476228 1.0386943097009338
Ni 6.217606024577754 2.0735988460599675 2.64220892645318 0.5935358223487391 0.27541194265125474 -0.048615447014858204
Ni 4.055513357898439 6.868741947880688 10.376388082940954 0.4187697129460208 -0.09107618728223024 -0.3582382312198669
Ni 7.9963218769162605 6.945784265004507 0.4041377484601671 0.43824376251023234 0.49781827963975545 0.0520902929373361
Ni 7.370691985866192 3.6220102307034896 8.261861183780121 0.9934629486669602 1.098035370663412 0.4571678531082449
Ni 3.1444274014188087 8.318193181164672 12.129209256893757 0.4931098184204926 0.3612808747009326 1.8775221153870956
Ni 0.07090893885068202 4.979198679707799 10.17581865972106 -0.15860775447530104 -0.8861625862163836 0.004367790050392477
Ni 8.72528644789085 2.3087839861208432 5.59797122608379 -0.16400192890767887 -0.10440067230527826 0.5560835910395518
Ni 3.5083357559890036 2.734071314833209 11.386829163710475 0.8197705319443948 -0.274104793804057 0.4348190530993995
Ni 1.2503559538842313 3.1553727611134286 12.560641713646065 -0.8046383042886465 0.863393667950984 0.08877299307035033
Ni 3.3776964256619637 8.313420968184689 7.991762967395231 -0.9579063917185888 0.3525344959668703 -0.13834154802709722
Ni 5.662673576575846 7.746223571292937 3.8501238188031177 -1.391244489397088 0.500058224713868 -0.9779964776002447
Ni 3.020431208478677 8.396374321840533 3.5573259567757516 0.6405746689050968 -0.5467497152331359 0.17165430324661404
Ni 3.426105464905884 4.121510894223889 8.825353788814873 -0.2932086045130434 0.8464912357686905 0.6190969586472951
Ni 7.151423260687419 6.209887331613918 11.41782324089032 0.6078111013208306 -0.9787474968336561 -0.1354806815395344
Ni 0.5243740160221299 -0.16780655422152246 0.15359385552640206 0.7237786525281018 0.3850226984025627 0.9001604431573723
Ni 4.625313780052 0.4824336753194481 1.6521789982834636 -0.19347962665182164 -0.7532820613038574 -0.37110685965241896
Ni 5.760540095794138 5.769469918567288 0.31304180640722673 0.6513925854562072 0.18131985136083612 0.9723991860181255
Ni 8.18152531663754 8.805727159106477 11.498120243419617 -0.9888231359021036 -0.0017671192027517955 -0.810617918910849
Ni -0.042230469559987584 4.821119124745856 5.641029602289547 1.0710148762105105 -0.4267357618706328 0.8036119199066611
Ni 7.780921536501565 8.577618993976145 2.908232685240766 -0.481299456049126 0.8317894107821416 -1.1446957508344284
P 8.29794742912838 1.5807684347729536 3.4774130812382147 0.5793348482580087 0.2973110567171912 0.02027134865452638
P 1.839254266239884 3.3711979007896007 1.4835300761647165 -1.0824051203253229 -0.9677087225209914 0.12064824451239221
P 4.701181120495142 1.2044957102091656 8.239386591363404 1.5539030169029948 -1.1433834597809085 0.06164194118151319
P 8.666302618520833 1.7177345626113347 12.29098004628946 -0.564877535182098 -0.32879935713345954 1.7914688352407535
P 6.179979655949592 7.858985179509358 1.3928887597043769 0.8057662472455025 -0.04390595735433084 0.20392010525885523
P 1.882104761955983 3.25324831861388 5.80493071479014 -0.6618387204901957 0.07261592369451364 0.5893104714134819
P 7.005915956208727 4.056353918139232 6.013159178311622 -0.3929468383456458 -1.2537987137113826 0.4390099512522955
P 2.4342534190529013 8.65114541934009 9.926634124424016 0.6104400543032454 -0.32848285433430524 0.28465711539860655
