# total energy = -381165.31741195504 ev
CRYSTAL
PRIMVEC
9.27930886448372 0.00000000000000 0.00000000000000

0.00000000000000 9.27930886448372 0.00000000000000

0.00000000000000 0.00000000000000 13.58120649008232

PRIMCOORD
 96 1
Ni 4.942614456525396 0.792486361561389 0.5228556351615464 -0.6120320813807136 0.8541742062352451 1.2290870698973155
Ni 5.389895690571525 2.6635049080307667 9.801746685130384 0.859954303252132 0.5026568386789795 -0.8800839841224714
Ni 0.9057152691212639 5.2688563889471585 12.924962461102242 1.936639747484858 0.26321565769537897 1.1041324847000855
Ni 4.22429389703108 2.589094132216155 2.524094431202788 0.43008616640010444 -0.1254394952534485 -0.9089052792295379
Ni 1.1575566329678963 6.182979639607969 7.659800164916248 -0.8367747798118751 2.0646092082490117 1.5656316181938326
Ni 7.9090887909618335 -0.2685496869457457 0.5000257521665733 0.379814671839062 1.0541677227461845 -0.11545770145038826
Ni 3.3628121641650446 6.194866433948724 12.338648418088919 0.7863184229335362 -0.41131557066082064 -0.03263655508809863
Ni 5.9725063615150615 5.174903389181235 9.885691950550871 -0.6334473138316962 0.9660292779360395 0.4208409936527527
Ni 2.4665144653610582 7.936787527189121 6.696349037568458 0.19023926533765304 0.204823333799415 2.079193276710774
Ni 8.238494967622627 5.71385491307305 6.503401589663985 1.2949615611029375 0.37800538654446514 0.4919947309794431
Ni 4.7957972355578455 7.832200439745987 7.245179313415909 -0.4877323561586633 -2.0836829370510115 1.9477281440885357
Ni 2.1118407313311183 0.19395146909703304 10.769624970620232 -0.7025408261952482 2.0911473637488567 -2.10928109723509
Ni 0.1591327193664971 4.494266101988097 2.1811144818943307 2.66415344157536 0.15375145482426425 -0.2842490813269104
Ni 2.093514096808876 0.8946589729018961 7.910319227284694 -1.294430885410448 -0.9422375748330805 1.0223778319290973
Ni 3.9744392331597456 2.296127800501612 7.461025311199133 0.05067438642641596 1.0522684488409426 0.390541828448579
Ni 9.051817088756797 7.094003601190081 0.2077201072256926 1.593119024980824 0.6700109718883429 -0.43644424740764837
Ni 4.07845100346851 3.4198056777020622 0.038271580467612525 0.03961427195751242 -0.5231899256353248 0.4861264451241241
Ni 4.121933843656473 7.828869167951817 0.6972444658283058 -0.7397305478716679 0.3361707098968662 0.4319170489612561
Ni 6.787517316817863 1.3946429681796848 12.837458580826421 0.14927670688236225 0.6384388535090165 -1.0610986455380629
Ni 0.5282097962346267 7.616911200479893 5.547922316350655 -1.7652399834512116 -2.0787934701691944 -0.84519822798888
Ni 4.507405602992399 1.6352554406666384 11.498120292015123 -0.989418089173625 -1.2820991033179727 2.3650778367585783
Ni 5.973118795883907 3.7509749230004386 11.837297580651573 -0.10991337459339133 0.4298640230869693 1.639956039939021
Ni 4.089753201366277 0.3090445897584363 6.419279089448878 -0.46511513297977963 1.3832344746084178 -0.7396109915746681
Ni 6.003471414376187 0.9638417862406441 3.4542031468213024 1.1253158036459199 -1.046769116289268 -0.26567363231756824
P 4.199481025784258 9.174563783167033 2.756822275156299 -0.5034417964741201 -0.24774995795961205 -1.0267682476873092
Ni 1.334652237958776 6.4538704961182525 2.627881642242976 -0.21260554884799515 1.67159834943465 0.3002853088541667
P 6.600260868889335 8.21947238495397 6.333078952034009 1.4017983536535341 -0.6724077542552935 -1.3878040962569713
Ni 4.522354569177376 7.452194193186568 9.680928231051148 1.1020187807911923 0.1508167976759725 0.09576330834525443
P 1.4129139268502136 8.03087043727571 8.993488282709524 0.4911382965164187 0.04796110126031095 0.24255452980160166
P 0.14415405939393863 4.400424453925599 8.466591508644466 0.09702700554902645 -1.4450854464769436 -0.4480977724861766
P 1.9380856774430264 2.616635120196922 11.78828334459591 1.2974714720089848 0.2267152487764999 0.25806111007763294
Ni 7.857245293708281 3.081018120027605 1.8561029857954279 -0.3188353039422122 -2.1519488113069456 -1.0532997183189343
Ni 0.9135275190474794 9.168949801452625 12.82008771509192 -0.5088583395040011 0.02777177079662959 1.331615207770229
Ni 5.922574401836994 2.163777021670859 5.924773597979662 0.62051055116537 -0.13586583279309505 0.7693103184113137
Ni 8.448745542308682 7.334671749528749 2.4274096029794725 0.639835219635911 0.11001416183731375 -1.1640841826633694
Ni 1.0848810878650108 4.7265735932611745 10.81205275341823 -0.025333079448149918 -1.1709837379966799 -1.6819259566129032
Ni 0.1651809727242679 3.1609222465445797 5.9587265882160585 -0.1029179171121647 -0.044016000569633874 -0.03599750114053155
Ni 6.282249683212497 3.0486518915650325 3.6702124604362196 0.13368502309169233 2.452737285049776 0.9130560681731178
Ni 4.233916540068835 3.8903965349987604 5.537913654074356 -1.0546022391804417 -0.7655392814046559 -0.4167254288224823
Ni 8.575519456659501 8.003951162972404 9.980936630076542 1.1587406589632687 1.7326653919492998 0.5707123966963203
Ni 8.33935177300098 5.9531961202792205 9.334321927934441 -1.085766323488072 -1.0628637078582857 -2.3271538080192955
Ni 0.524246603523513 3.0214449586945444 0.04589917215231272 1.301894540777345 -0.0674696036068838 0.8081463174419049
Ni 1.7432201964470362 4.683304177171446 6.246879742550002 1.4122984818539095 -0.34627925908577784 -2.8956995360816005
Ni 4.285704361470674 6.200647443218272 5.71971108474241 -0.5768334219923937 -0.2543744052546652 -0.5851599395802181
Ni 3.5498830259211953 4.0912842872883886 11.434777875521085 -0.07664869900299058 -0.3121283242356818 -0.6700778205705363
Ni 1.3617570984344565 7.402419981755021 11.399819936161265 -0.04668531987168089 -1.663789909133825 -0.4828796560520523
Ni 8.758052736501032 2.365574146205135 3.9239495870336842 -0.8944538796908983 -0.4527848935492008 -0.4563067906595303
Ni 8.09837740747789 5.077322179745338 0.28736441310133953 -1.3971490278069807 -1.8341278075618606 0.4795405643764903
Ni 6.623143643943436 6.9360419305712835 0.3053440014812363 1.9100697103058137 -0.6128198673893317 -0.13306667278140308
Ni 2.5080115335045856 7.482138522099618 4.541256520833987 -0.7151171201983619 0.8607138071259758 -0.19383161067460167
Ni 3.8043216682502456 6.672027041747573 3.074635811559555 0.8476919409450111 0.0826905343216963 -2.889613734898836
Ni 2.6384878919943295 1.4177113294061623 0.0889969210325926 -0.578587685679339 0.4770201119474817 -0.2758611143735314
Ni 3.7147485021524225 8.463397570617856 11.858172313320553 0.06590174489913166 -0.005172802450191091 0.14571110101829102
Ni 0.672935461039487 2.436616532991102 9.363739192117942 -0.021658458810040117 1.128032945466767 -0.8982979360273368
Ni 6.261547545683828 9.066784613559012 10.46761966438006 -1.2767920892827622 1.381221043722815 0.33534615711304183
Ni 0.4984621886642959 1.3152584829453657 1.81428578150455 -0.7245795511628425 0.3902384382755472 -0.5210163150227737
P 7.934727520675735 8.875872118034655 11.775340564934329 0.9813785066986 1.0594662521409626 1.6473911560608274
Ni 8.870332370789198 8.191736531492209 7.6246250897347485 0.44024150966655146 0.3349010991558233 -0.35957314798120654
P 7.931154986857474 3.1800747395338997 12.707948198363901 -0.7170619026295586 0.5825893506395644 -0.6543886919700537
Ni 7.10351489252441 3.811392501417815 8.091818792146084 0.817549870143992 -1.014109164162402 -0.30016806655001205
P 7.964198604849223 0.2004163634117905 3.0521455512600317 -0.16720012413000235 0.31240420360488774 -0.7422815964282958
P 2.3951287441561937 1.8804054950682132 6.022477294289328 -0.5069264125886108 0.7365621774460154 -1.4419299315670973
P 5.761448486979166 6.17996386430684 11.952710837460325 -0.6206172519465634 -0.3345321458521787 -0.20242320899835461
Ni 7.561485890099462 7.131445611467168 4.383333823311389 -0.8459821573427558 0.7428356691595529 2.9461142410887264
Ni 2.4385930257269184 4.358973782325166 8.269772733184206 1.5872695081785824 -1.280720220692575 1.5648816274016857
Ni 2.8837492980993304 2.441107718362629 9.785734310177686 0.5483021473219202 0.0825951463944126 0.13351635872431197
Ni 5.802759968950316 8.523527490468048 12.604689907914986 0.312922538002203 0.05535919349659498 0.30814362855632094
Ni 7.907353560250107 3.7315533300611716 10.41660852110962 0.8928790790046108 -0.17266526100963167 0.4180194650435575
Ni 7.628937184449931 0.6291426919436547 5.435999935444316 -0.45604273836486625 -0.8492289464148276 -1.1751556099861826
Ni 2.0857937120379875 8.850038522839759 1.926004945552137 1.5454885675870544 -0.9842522287019695 -0.9571414885281064
Ni 0.6208822514111484 9.05325538159272 3.6456844639639954 0.09309990258047837 -0.32525971941131726 1.1901636533592406
Ni 8.524956503995352 1.6800466633698596 7.361122418746799 -1.513748041950664 0.11773904128539722 1.9453485881127657
Ni 2.4842101068972178 4.744501217512805 3.7756161270378126 0.4006033264496391 -0.7626287926260802 0.5257366033165785
Ni 4.971398871861089 5.624244629740751 0.6312110498347978 -2.468258520613827 0.6011982239900033 -1.4936641267165953
Ni 4.070795573857953 1.4008601049543186 4.464427557193301 -1.3705471089487364 0.2910810166470793 0.40429028838292314
Ni 5.919911240263382 4.076372438337886 1.5474564783767404 0.2085727735395182 -1.3289885687806595 1.0801379215577012
Ni 2.820325223689445 6.0583863627825805 9.872436458188837 -0.7506862755522232 0.3542661339459963 -0.07629337254610087
Ni 6.449833996869049 4.652283448458607 5.565469488948913 0.3872315331284234 -0.6058272381215823 -1.5486091154939072
Ni 0.22113891541942124 5.1495801559603755 4.460882861300898 -0.17808437514267395 0.5530610021631442 0.37215072753590106
Ni 0.5773372398554397 0.5331436046272728 6.014124988601496 1.8321187475516318 0.7222897266874011 -1.0363985716882216
Ni 6.056270680417481 5.801692848459148 7.454493605862321 -1.0720795700295986 1.025660616445427 1.2498258451065636
Ni 6.296966666682004 8.372042777265213 2.008157448547461 -1.282948081581829 0.2507488926869359 0.880824976053554
Ni 2.7008448459130463 5.127625311768161 1.3960664141218173 0.1396713225821143 -0.6306787499476235 -1.3239751747264683
Ni 8.073694446551732 1.2249615307752713 9.632090301859241 -0.49193251028293994 -0.6848729766018399 0.6813868178254524
Ni 5.209904941291563 8.110143570806601 4.423561482035856 -0.09407203668576057 0.0900631726366836 0.9538926425735055
Ni 1.754559511579279 2.0943121173500976 3.7206390072636726 0.8108408335549325 0.06849830198171429 1.2831689393433836
Ni 4.112441110939383 0.5035704480589765 9.081223217769953 1.297619824661391 -0.8723261945539235 0.49521992278495996
Ni 8.437443344410914 6.173533303433973 11.527293510381947 -1.1457853843541816 -0.05510079762888574 1.4643751479444909
P 6.2951015256496134 1.2122488779674376 8.516054863237283 -0.3249182769114985 -0.286117759104533 -1.3498852097240108
Ni 7.504028411131501 5.169224452306494 3.2018644120326987 -1.4978169725427042 -0.45229921216203395 -0.3884687479696342
P 2.0153823182381028 7.195370768542471 13.660248380544411 -0.5083181507298149 0.5622622090464381 0.8403265017188754
Ni 6.70873598664377 8.264616221384708 8.503804319998668 -0.14149989115042083 -0.746744774405972 -1.0615614441070942
P 2.3001179032077204 2.9844669138484012 1.8513631149529157 -1.2645089010400352 0.5092504327360972 -1.2564371797754943
P 4.85135245625894 4.021132714129832 8.259885629850816 -0.33473397745033967 2.3811598299221055 -0.6609982268667713
P 5.2461499207568165 5.426409769986727 3.7803829078753193 1.5589434075403799 -1.5348778819507436 0.9954576104994857
Ni 9.326818678985234 1.762595392843209 11.55956230610402 -1.323974660505836 -0.5565906125829576 0.44657979317975344
