# total energy = -381166.0620378688 ev
CRYSTAL
PRIMVEC
9.25446414948536 0.00000000000000 0.00000000000000
0.00000000000000 9.25446414948536 0.00000000000000
0.00000000000000 0.00000000000000 13.54484373834057
PRIMCOORD
 96 1
Ni 5.121744437751214 2.373353636440571 8.531910874231775 -0.6240507031081446 -1.243565723129465 -1.270606786407657
Ni 6.871874686311582 5.892798638009813 6.093906475790813 1.3304715810840892 1.2224294553714816 0.8510202339872955
Ni 0.7951694832744766 5.4293258124982025 12.748393796209786 -1.211002701591779 -1.0538651039041012 -2.2281082293783436
Ni 7.48795362776909 3.1889218098768395 6.7563576868530335 0.32404693005013874 -0.31305597825627374 0.5635780996443842
Ni 7.425606301927519 2.0836056143574853 2.428888751127032 -0.047500102463492386 2.1998137533090247 -0.7339846465268263
Ni 1.1949364275884915 0.6107326374440488 8.337556019034505 -2.030236644306413 1.6724532412357775 1.2073383653663141
Ni 1.9577634091038583 0.03696973389816066 1.4054125595582139 0.5208800465552256 0.5065883125229017 0.23452394618764125
Ni 5.231280276946825 4.551817509648599 0.5903182146929843 -2.882622134072352 1.4500247927600898 0.5605305710673121
Ni 6.888366141655159 8.132850970988606 1.9843598139926946 -2.8077534097879195 -1.3709242897824971 -0.04016603069592438
Ni 5.1759848528851675 2.623770185341725 1.762549739621581 -1.8258437131761973 -0.6869481139633137 1.2197472805536285
Ni 5.244921357292748 8.796072153478764 3.829750890599703 2.216218419919293 -1.863119052587888 -1.0884101888688222
Ni 1.3700216372658973 8.683602649106996 6.385865389389938 -0.3845737837906022 -1.0751664364850386 -1.2423490771135441
Ni 5.968564937054632 1.6205214763455542 4.3109848839538465 -0.461866801245811 1.6598100985504705 0.9118018840510426
Ni 4.987619486968686 6.452749253620635 4.274576896037367 -1.6381449548722111 -1.428260918720437 -0.12550685815627416
Ni 8.464910403751174 2.484879185455975 4.53635792707203 0.27251328094722105 -1.2847319129551293 0.9373501648337922
Ni 3.7469197335249813 6.395565918846244 12.858973538975969 -0.02642528407106417 0.50554907262511 -0.07626714729385575
Ni 4.29771768396476 7.643345337462696 10.851884760716255 -0.004907721714262515 -0.013585966214550795 0.994898395561906
Ni 2.331088498082481 3.0121430332365406 8.685468349105461 0.790625277839006 1.3507053916324607 -1.0909602089841857
Ni 0.5377565593790778 3.531457296202218 7.2977318163184215 0.04130554361700628 2.6141328866828593 0.32223507365238047
Ni 1.5341032889166404 7.198427712828678 0.333458707761416 1.7002077856412268 0.29711899531104313 -0.6827325332200693
Ni 9.032764331855494 7.045553217418717 10.864549495080839 0.12125656752035247 0.09783973125830892 -0.8873692049299751
Ni 1.0998468071309964 5.0959244824153105 9.853155932073511 0.5892230539059982 -0.17827437966629295 -0.013633017402402327
Ni 0.486133306742971 5.539740825800233 1.5315971799901307 0.10301896146640321 -0.9001447594280886 1.3645083589538243
Ni 0.11304143026415663 5.764374437222595 6.232145035944957 0.8528328617160023 -0.36835860748332044 0.8904614707020536
P 8.132388247774703 6.450472655408221 12.671729814129991 -1.4696734202289528 0.32396928273466785 0.38041708130975127
Ni 5.036085116393104 -0.045119215141457024 7.183954656144156 1.3255234930501947 1.0590744160191825 0.8080732981121245
P 8.392596019882086 8.483771001949945 9.08525842958017 0.8286385238579858 0.5669053642454044 1.915498851741185
Ni 6.00181622720585 3.9611420726344795 5.276800210391524 -0.7375008872102009 -0.6102528779931038 -0.7298827085433107
P 1.3273307935510141 7.16795276196089 4.27851837237341 -2.056148993296801 1.8701759594346694 0.1126603412109092
P 8.0463032210598 0.4087595072530461 1.459754773799227 2.4460303053432457 0.7501172904226306 -2.3479442624020854
P 4.630785853333641 9.256870438814005 9.55190553633917 0.3619835571949121 1.4901394013927884 -0.523704146267582
Ni 8.165704319175868 4.614294397990063 10.972109506153073 0.24948056749747355 1.914988744873986 -1.1437362151346366
Ni 0.6829813146167609 6.785373208704165 8.384691781942161 -0.934696786371345 1.7566010768292908 -0.3034259113656774
Ni 6.433120534886781 4.490080978449382 2.588649493406329 -0.3369338133151359 -1.2364458242552319 1.4499857119920385
Ni 2.63295986836988 4.664758991698552 0.23147821320244655 0.5407127650104365 -1.0652628042180814 1.6361986297791176
Ni 8.088670158524948 2.427825413181478 11.555472065494637 -0.055600362973123596 -1.2688422383080664 1.519094393864242
Ni 2.345099756999527 7.174995409276526 2.4070269301628717 -0.10809303355520095 -0.7801493180083467 1.625423907761117
Ni 2.503619475619131 5.413158263404358 7.590490315631174 -1.4870509922754518 -0.23018623804423585 0.649508738169933
Ni 0.24624000917244657 0.530233605367409 10.690308292545595 -0.3976452722625797 -0.37052656166891673 -0.2617706977187363
Ni 6.194401628833147 4.7839009648148325 8.483095426057645 0.4054513985705598 0.9240503624010925 0.06312752458810418
Ni 7.036021119212271 6.516253387496968 3.5199530716581098 1.3300650896742898 0.6971080852154511 0.2568305801046416
Ni 6.740146641777082 0.7803068136438452 10.41254480170265 -0.33111874929525553 0.015826682619611454 -0.7767989134788751
Ni 3.1760488500660005 3.801067604016154 6.268878781004026 -0.025213008930517866 -1.6971121774350384 -0.5057863854468966
Ni 4.161640041219552 3.3443597918918355 4.036187448912035 -0.22227623916853978 0.1644266751499233 -0.5028761537786371
Ni 2.3606657659152934 0.14318784765007292 11.945320074995383 0.17114522482067943 -0.2387528966673243 0.9120129716205841
Ni 3.9235411842725525 5.90309885675134 9.33404989455409 -0.724230652463856 -0.6009285152683844 0.18880433266333937
Ni 2.5650135916400574 1.4853877889567133 4.576084565878637 -0.23340937296722383 0.5151454580642935 -1.113247045406844
Ni 6.532726333911989 2.193095181231706 13.40732275816776 0.7481344556646471 0.46453946298196774 0.09966881404724771
Ni 4.245735358114663 3.7098093317697933 10.221020887128052 0.7783135503511887 -0.40430571500189083 -0.44970111241755456
Ni 7.306408802025569 2.891686926192769 9.150165540241066 -0.5055938098201164 1.6092794367907703 1.6306761572989914
Ni 3.4239852025406226 7.44120007423612 7.2312532976231045 0.24394318261901216 -1.1951860462744965 0.8028254194496238
Ni 6.895057119328227 7.636830194610912 10.674921820236822 -0.5825898648601967 1.18290877156904 0.9210259737524719
Ni 2.7258469263291865 6.05168853520054 5.1507109109416715 0.9535473434189449 -1.179415156593485 0.8922512156126245
Ni 0.7578369743766143 0.06117108343182442 3.694450622853856 1.6029948893336392 -0.18009626336638018 0.46873678889276693
Ni 0.1997964801927932 2.927788591341644 9.781097896864926 2.1252795295458755 -0.9973093189962438 -0.20426977528879015
Ni 8.130879770097371 4.79396056748513 4.538566042248784 -0.8883855620096313 0.8777453086869658 1.8232042186708215
P 6.111472374437078 3.4250679748611605 11.255047167973904 0.48042270987112745 -0.21993524974018897 -0.07587094029670159
Ni 5.091056634205029 0.41848687465575884 12.126183772168035 -1.8587687460389923 -0.06634526019445347 0.12457971835631448
P 4.001176885101548 0.7938053752398845 2.897011944938389 -1.6502196266485578 2.526472152840081 -1.1428643540526446
Ni 2.614756337134854 2.110628650049542 0.4053390572558597 0.569002098873433 0.6672074410012767 0.09413554293384434
P 0.859377881882374 1.7786247440726435 6.473555140210662 0.6645108680057201 -2.6616916102984285 -2.209639995370827
P 8.578342372407867 4.967981513770553 8.488580547035275 -0.8886084766537149 -0.20348198928017214 -0.03094939719366283
P 1.1076298115888799 3.023377952870156 11.94792057945753 -0.14418180885795812 0.43771411525900744 -0.10563814425680516
Ni 5.599459883786824 0.44958280007660834 1.0807566982181283 -1.880800271917735 -0.47558929303822606 -0.40904914322414715
Ni 8.976784077437257 7.7228504400758675 2.2580883584103866 2.4911313114469418 -0.7191506668377873 0.12438611428826966
Ni 8.886950992689725 3.560932764927972 0.5181611567166253 0.0860864473771227 -0.06920766934391306 0.6334154321524962
Ni 7.318782020765392 5.96447446384371 1.1578713727082661 0.6522081393789672 1.5404798015185532 -0.02326257007236639
Ni 0.8936638211398852 2.144018757164933 2.2206096289769306 -1.0069499274098013 -0.35385244344734545 0.6708275542523673
Ni 7.0187615433336115 4.483787942740273 13.043386323199272 1.3704908017895043 -0.09581653018069304 -2.03814921428527
Ni 7.659679466913546 7.8664519622791715 7.259494220814161 -1.0716810490395994 -0.9186027090229599 -0.16874458579898682
Ni 5.631674673938895 7.340853918068664 8.794233291426707 0.2489054117202939 0.04214063792379194 -1.073851574328357
Ni 1.9152206368174245 7.11715500753839 11.04605082484225 2.0688047343875984 -0.2119638014989382 0.37867413047671555
Ni 7.47137888224701 1.0371570661111356 8.121136670105386 -0.5388877959865558 -1.699722361364376 0.660873785473765
Ni 4.627722625657588 7.158809351254125 1.87195138908516 1.172632843564329 1.9449922332146117 -1.4966381217432547
Ni 7.26135806991977 0.09169693385314287 12.678312514571006 1.0845571336713191 0.25259520186705536 0.2894851329148692
Ni 5.817541334500289 5.670645223013982 11.10604103863219 -1.0600018129294582 -0.6790540559272176 0.08200122156415555
Ni 2.565143154139951 8.310407122628266 9.022247558649859 0.8490445983181637 -0.07888787274615446 1.9579778468410018
Ni 5.810072981827862 7.5238609491681245 13.16839192488216 0.5443282502758368 -0.4697528888621071 -0.11978075430577435
Ni 7.763477538256734 0.23161703016661808 3.765439767438319 -0.6165268839272737 -0.6795983584664619 0.379338760643908
Ni 8.324538689580928 0.5433564357137572 6.215227875244587 0.9321344249608076 1.0555957134419625 -2.443529650408579
Ni 8.591881653646729 7.664538060659549 5.111810695795099 0.18916402999560325 -0.23724931553860432 -1.185933931548609
Ni 2.7003323683144607 4.6167005587023695 11.497892639649145 -0.5797768208914338 -0.20285361166755383 -0.1830895416667492
Ni 3.0263116180463143 1.1672840883255233 6.8119187140394715 -0.27353555156414827 0.33653992031082686 1.3433530650324477
Ni 2.5651246452113945 3.7253383228284482 2.353877616367306 -0.1275773675320577 0.5475588413979925 0.20425666266266757
Ni 0.48238802504962325 1.4735235657521868 13.36510389213106 -0.7906106225509868 -0.10298322313246135 -0.2433456582443293
Ni 2.943363854721689 1.4550053827317053 10.062478032347752 0.7565095671022198 -1.144686494863048 0.7384941043614056
Ni 4.443845674915986 2.798485216448007 12.62754622532705 -0.4929180141246608 0.45290367851525226 -0.6144152369009096
Ni 4.788241308561263 5.497956919584604 6.633723078918196 -1.7748692790108596 0.5716421075994413 0.8774925692462113
P 3.5885573407981055 8.543897256364772 0.051866645046620974 0.7207992581848038 -0.4558740739974858 -0.20176526369938158
Ni 0.13204362176638285 8.54917230100329 12.891521489842052 -0.49312781614262174 -0.7962565079828544 -0.5788067436686806
P 9.03819670238674 3.988368706540655 3.0299134555433516 1.6779551448906134 -1.3888207104469437 -4.021808782163093
Ni 1.2820116819811502 4.02286009490514 4.607671903352654 0.5599168487427131 -0.384593324174628 0.3398440449833954
P 5.860722664821912 7.816144694463411 5.692817068531458 0.7754724813579676 -0.007391150257748562 1.3326318219602018
P 4.750955071984791 2.249269779399784 6.199759963650168 1.1722605478265744 0.29410154864095794 -0.4677266024606977
P 4.052826050237633 5.358279290235215 2.4860887439371226 -0.571919529630544 -2.802785781369999 0.6198814022218033
Ni 3.653949385387172 8.478995698382445 5.391958136636082 -1.1781303763437905 0.5315100154652459 -1.8875707578723493
