# total energy = -340870.3566790178 ev
CRYSTAL
PRIMVEC
9.23753383193906 0.00000000000000 0.00000000000000

0.00000000000000 9.23753383193906 0.00000000000000

0.00000000000000 0.00000000000000 13.52006450727108

PRIMCOORD
 96 1
Ni 0.07255898035476242 8.287130119285365 0.47526557058923374 -0.7198446075810183 0.3555503999750586 0.27480953318056545
Ni 1.8341030949811228 7.556311871616847 1.9928842919083398 0.1297538063580862 -0.3874809301350682 0.14848583554995073
Ni 8.591035743195754 8.435023035143152 6.357999590530311 0.2542353085736396 0.4315511809814052 1.2778693815073412
Ni -0.0032968758069734055 1.1561697282174037 2.251496440176387 3.4254948828485845 0.041240751817341874 -0.8524538811100286
Ni 6.75034628662771 4.336116832571954 13.242200512926546 -0.401230932731309 -1.0178447199454344 -0.588198983516858
Ni 9.110295992177512 3.9001791383083257 7.155426923044284 -0.36307730447972314 2.3679677567118635 -1.1176366898341075
Ni 9.337761024037734 7.408936257650879 8.452406226215055 -0.6216413223357036 -0.8809054515825022 0.1682589044118199
Ni 3.9021190204026506 3.8313040864260235 3.781196931929622 -0.45432961232850144 1.9375594310856503 1.0510564308107124
Ni 2.2150128005024126 2.4073567289215783 0.36748479767518616 0.06000080603366441 0.8110668335228097 0.6560871627183991
Ni 5.838435426687109 3.6676334628677307 9.295801374337495 -1.5973790858087586 3.7615244391818963 0.06376618661336761
Ni 5.606758079422069 2.0685794149822603 0.28554510176429737 1.2828028142532164 -0.01519470546256738 -0.5037125336370034
Ni 4.868826930741029 0.25278141694453476 1.5228462416866215 0.09019764133201885 -1.053545001560521 1.0544022073544939
Ni 4.031426018290052 2.5646072665010355 2.007243114419854 0.1972023269190475 -0.5855610316733787 -1.2628019456512576
Ni 5.74745495646329 8.952315689429236 4.607015824524102 -0.6174972182603431 1.6959500388061373 0.615557578035469
Ni 2.957645853878745 4.795527100176909 1.2535056216835816 -0.6072454586253477 -0.8097766539564762 -1.0836184239071338
Ni 6.697636918864779 6.653518457519571 10.276709221606326 0.20764254841576496 0.4437505512610745 0.9447557132692438
Ni 1.3386110204217323 5.425591566879725 2.8876826205168644 -1.2147968785268883 -1.0185826265527234 -0.5578057159369813
Ni 1.7193636878687195 2.0612725257603044 11.405742770584267 -1.0318497759752745 -1.2869759717942997 0.42161206749082225
Ni 6.872725134178239 1.9042067388564972 9.855234733985956 0.19522026349201219 -2.746682767728844 0.4455120140368715
Ni 7.176224306602199 5.432334966540949 3.6774030785961 0.3594713322960197 -0.38242974086440584 -0.3029739114299234
Ni 3.8688638987856594 0.9176566059533149 8.367716516497119 1.1247421905306372 0.5879508720617939 -0.667275832345367
Ni 4.889574431616517 6.574380505604913 1.0180094779528561 -0.29208657509345826 1.00971874840419 -0.6051060436848418
Ni 5.051074234735924 4.7873056951104855 11.48714668953577 0.3671869557727225 -1.219604584328177 -0.113389763177766
Ni 2.865307466188898 6.750743500580358 12.977274510318164 0.3286785152848791 1.0546752585102224 0.4897743262893565
P 1.3265006136328779 0.3939272381275856 6.046970904320237 -0.9209059032348398 1.1323233453120047 -0.2849013701989287
P 3.7050362371530636 7.98960763121868 7.795736738465269 -0.01643577695852008 0.6068705917844323 1.258002210269769
P 1.6748849627059934 2.099876179437362 9.232406027494969 0.5291944799581918 0.2561749487985136 -0.47459401900449233
P 1.3159790626546128 3.0577899576148018 2.655259804275576 2.156150765203435 -0.4292729264701897 -0.24875808750915224
P 3.1597261429046632 3.803785473287963 5.821955666419133 0.44198497472021947 1.314555166964149 0.25153462181302483
P 3.769015396130642 6.039259411118608 2.7171411193311497 -0.5674095575753324 0.8185772829672419 2.3133459556019256
P 3.11318744770844 8.543074467797027 0.5759140436698149 0.6123735238805325 1.2888029977007094 -0.34690789380871223
P 8.896160721565433 6.915716616401984 2.348921937720255 0.8008065892473821 0.35297158350428887 0.7204267053367334
Ni 8.268156224896115 2.8160252234592735 0.8771213839623371 -0.6421648962103521 -1.2776757774392962 -0.38131568186462067
Ni 6.749348632979201 3.9198273726636987 7.125871433707183 0.08733163263813347 -1.0310553050984372 -0.5286386074547218
Ni 3.5496793939990186 3.355765084836828 8.38817211130508 0.06422641407923778 -0.055817621190252256 -0.08427304831746776
Ni 6.779703168988488 8.835922763769767 0.26848522437478073 -0.14042722691153234 0.01763956745863414 1.5561784432007328
Ni 3.27880719089484 8.091091177353201 3.9137481516814367 2.137171910108087 0.35493436365761455 -0.6996766172735757
Ni 8.989727701248352 3.0564689902839044 9.789716601880214 0.16061861425774274 -0.308389683128856 1.488794971549752
Ni 9.050547623672317 3.962384690799665 12.290089753471273 0.4219475964533701 -1.4169133549181017 -0.4883170250175397
Ni 4.410340416514323 7.042898981519412 11.258752361777027 0.3510273152937245 0.5713405171986224 -0.4134608991385976
Ni 8.746272498410628 6.350111660433435 12.434714429876813 -0.7699934605212675 0.6505430929717184 0.849463173912821
Ni 0.9736360606752505 8.730587166047947 3.9743445257878647 1.084276626316423 -0.36626907194414343 0.17792985184268068
Ni 0.04431799207491065 6.317761817127129 4.747394930403205 0.16493009714890305 1.0065326373667245 -1.004114000622903
Ni 2.9776913021867646 5.681868466607557 7.332728451452031 0.4576442785240312 -0.9539430361954667 0.11743050890604291
Ni 5.395865183167648 8.740018688039877 9.603639416379092 0.5245657229369289 0.1785255764451506 0.6760957446298421
Ni 7.948556031089261 5.137315850129322 9.00080719926708 0.24746070885396737 -0.16490592877918697 -0.10216047012084986
Ni 5.4479094484982395 6.356540983946054 8.13235893577313 0.14235786827534191 -0.39853230285322333 0.23215364618325182
Ni 0.06633103507860251 4.890858448812285 0.9566186759411335 1.2870032254878092 0.6245001319407373 -0.1929540931656548
Ni 4.4613038903923625 7.068163636414542 6.028555880724828 0.9179797307269804 0.3094985999223186 -1.7490479470723812
Ni 8.004517010743632 8.579276362690635 4.192288431578466 -0.9528798850382749 -0.31095333009097414 -1.5628157460115923
Ni 2.790686668293883 3.9063036232061217 11.120726055752327 0.26778630778519685 2.318125122158124 -0.3180236066741942
Ni 2.652105186488853 0.608032024878181 2.367201169569061 -0.8106870815858879 0.3860971624136641 -0.07393284273372427
Ni 7.831396390125843 5.873436442188993 6.533273480272799 -0.5410804327625004 1.3805283885311643 0.5940721544681834
Ni 3.76834105616452 0.9515860675364287 12.578310968772358 0.22397008193119491 -1.0264134354510515 0.8853668297879655
Ni 7.567978876784141 1.8990614325396462 12.227910989827903 0.4676515262483882 -0.2828411452357903 -0.14715271856082401
Ni 6.0972434106713465 7.497616581962857 2.96650464877616 -0.11134599327485985 -0.608447706463565 -2.022531819462988
P 4.207844438468192 3.604772045477834 13.472433109908007 0.2638702605602424 0.05125468440991818 -1.555102950748367
P 0.9004470805165218 6.1088734657035095 6.740766040341883 -0.6933285635683608 -0.5889582302803856 0.33237421896891145
P 7.290012247735005 3.854397920882268 10.971532495137964 -0.5078383828799189 0.32148533997054957 0.03127952683957194
P 7.079978442122356 7.879625554004265 8.384724663697453 1.968428866970997 -0.380702473760654 0.7867516538162127
P 6.02491352115439 0.36677627883406855 11.859652086821743 -1.4130394737849923 0.7333858366005629 -0.7631275866393696
P 0.4061549615954777 1.578445110016718 13.17589811420267 -0.8937488832040738 -1.5367223913586503 -0.4396187884808881
P 6.079645908815688 6.365473679113729 12.721866862519263 0.45579179869632475 1.258962003079877 -1.4192769700542718
P 1.6301660616649223 5.17373944583371 12.685078384230465 -1.4940243382694915 -1.3867589428219085 -0.04605359982495294
Ni 0.6643920659919555 5.495741398424013 10.664424218265182 -0.21887698367900368 -0.035753760560841646 -0.612850463516951
Ni 8.643957574235683 3.712795765530361 3.101678404368826 0.044955224554451605 -0.42164317783907385 0.5289337700976374
Ni 2.294769667180497 7.76769435716174 6.05358220724837 -1.8086990830761107 0.3316419687885772 1.1020851152527535
Ni 3.143227907569122 0.16675318858151253 10.403256968152897 -0.7075902156936975 -1.0908162272071535 0.4071871503147439
Ni 8.698440548484854 0.3770992228360096 9.63339720770603 0.4548911412589262 -1.0827223944554256 0.1774014901430364
Ni 2.400400865983358 6.612716270802278 9.643158509653995 1.0194753135703216 1.0242351968528103 -0.7698258245951516
Ni 7.171171375623173 1.4975982143522988 5.987955072243994 -0.02049503462955825 -0.3320698003546152 0.20394273096667453
Ni 3.8671087673669846 0.4947327492824693 5.90127836900944 -0.38965839740236113 -0.7235138289024894 0.815250532586854
Ni 5.509154297476199 5.108005155437456 5.450276104653316 -0.6748711281941216 -1.3173455852250926 0.09346268523653581
Ni 7.9284921077136765 8.501339290167703 11.859786954814966 1.055760521154601 0.12191836947406744 -1.6057541972463312
Ni 1.8153601389364349 2.5060782524551306 6.8285383150830405 -0.5071061326995847 -1.2531209709180677 1.960716585928404
Ni 1.3553679067031827 4.30473693031281 8.731027796409371 1.33585161444908 0.9926875039535162 0.06271229142755651
Ni 1.6702477207471798 9.411846044973364 8.275320856097819 -0.930777653822597 -0.6953923880759251 -0.6785732596360571
Ni 2.4440112629705286 1.858517896768264 4.715163327529315 -1.1755119648843368 0.9775233946185681 -2.1157499927888854
Ni 2.542843636909471 5.998669687678313 4.613072875425285 1.634340493524456 -1.3299023388441806 1.3553740007527237
Ni 5.186847506271074 2.642054749733496 5.557625484739721 -1.0253358861161568 0.015071292510825656 -0.15724712668234853
Ni 0.9314667189581488 4.062639644941112 5.139557799578333 0.40428103241154245 -0.14035883556744214 -1.409763888357514
Ni -0.015083045160062137 1.56099540870158 4.689313012992373 -0.3057532739472734 0.5961166957020378 0.5075897572042226
Ni 1.4755944088823894 8.954209383854648 12.027868500754403 0.047724559769472645 0.3552819768050204 1.8343694912590214
Ni 5.774317704702794 8.824957811169941 7.035340831378572 0.46751551489115606 0.8183674809492809 0.5652629435459748
Ni 8.612319021030629 2.002235447356362 7.812176777337979 -0.2296920720166367 -3.1830897341406534 -0.12499649417875892
Ni 4.434090115869124 2.1536201509839334 10.694722405318396 0.4980370805187809 -0.12946995656908025 -0.3876994739037774
Ni 6.235021227037297 2.7548727498191394 3.2475196639735207 -0.1319418151483405 -1.2596104352971533 0.6513681599761749
Ni 7.337982760667516 6.213165222107908 1.0383154247135424 -0.3655013405401834 1.2889912024521157 0.547905940324766
P 5.485053571837662 2.2507066310379833 7.75163398092749 0.28391740901910456 -1.5429670867167815 -0.5118084232712605
P 0.7769643476789848 7.79905578435332 10.484336649668634 -1.2890109999464574 -0.09261422119331146 -0.06848596068654011
P 4.048903432206537 5.181822287893396 9.451715240778624 0.282434653825991 0.18239020160687944 0.8895577279408614
P 7.815212230938908 3.5082490549845162 5.067536443689713 -0.4289404828314355 -0.29531228111960756 1.497380399225918
P 6.891154014074322 4.191420103402911 1.8975270781783733 -0.5371075641576815 0.7084800744978185 -1.3791505343470314
P 6.512849293079697 6.9111163245783 5.046512740554126 0.19545577654158597 1.8600805228718804 0.8877697828025032
P 4.30625188585314 1.2605908100947572 3.860316408776714 0.830308455361241 -0.06263824365651148 -0.9776046414784646
P 7.351561935327787 0.6745330305783814 2.526534771016472 -3.6709701858414068 -0.7874221975206761 -0.17017797581140368
