# total energy = -381176.6388908007 ev
CRYSTAL
PRIMVEC
9.14409956844383 0.00000000000000 0.00000000000000

0.00000000000000 9.14409956844383 0.00000000000000

0.00000000000000 0.00000000000000 13.38331401816636

PRIMCOORD
 96 1
Ni 6.434803479741187 7.726883042650377 12.85542263216935 0.15403581883390247 0.4000713652055691 0.5480699767064561
Ni 0.26933396751463146 5.634411296891656 1.7327108628036476 -0.496129836193739 0.0846106341625446 0.4613852336237022
Ni 2.9318635134393762 -0.08771386108653886 10.1340599493622 -0.7182775202042146 1.1330003167743712 0.5655547637547809
Ni 2.2295875193912473 8.382066923713676 3.785055556249489 -0.15495730220690732 -0.272379326472518 -0.20802255746300302
Ni 5.118190297581841 2.2284445069401593 0.9517425763429277 -0.43446064131871626 -0.7762355847762373 -0.0067442607023690294
Ni 0.005989385243701573 2.062305361149604 12.225349363041515 1.3004128140254958 0.2634244312720754 -0.8402419124248691
Ni 7.160607242082513 3.244335685268033 0.05316470953496994 0.7871411759451475 -0.6531661324168622 -1.3271481731378112
Ni 6.029354103091221 7.64229097717025 4.569718973362087 -0.9934812034994052 -1.413061071051547 -2.018639426387117
Ni 1.6922527940849337 5.036789522865153 9.408670414733148 1.0120365979040895 -1.355562462614446 -0.45949778679300224
Ni 8.063001856067144 1.6112086392529839 2.020371434754045 -1.8804223197530259 -1.1817995976652615 -0.3615708951375257
Ni 5.197186174101442 4.114460771733546 10.120649212876074 -1.111537261804589 -0.8503584320335806 -1.1396319631582759
Ni 0.3004028747551274 3.706469335392359 3.499575852055768 0.15280117509585298 0.25862238189774167 0.4680952986540261
Ni 4.422918683833981 4.6445808024485915 1.2276273768172352 -0.7529683867181807 -0.32044404319022873 -0.5224995844365194
Ni 1.9130096468382822 4.681495532568932 0.34781320240633945 1.146499893922703 1.9840460046829635 -0.1324472940298493
Ni 4.276485072700184 8.891512145213442 0.3656606560226093 0.715001163445788 1.1684136632766586 -0.11946065196219427
Ni 2.3692453527149944 7.23637525144024 0.48098786910751457 0.5940646982690155 0.051792559191259184 0.5212328019089539
Ni 2.8613807936554805 6.395355834029235 7.959511679925707 1.3684341763707917 -0.02034385376367464 0.023419664475520956
Ni 1.5245591513608985 1.0757301661672372 8.275023350464297 0.35043261913251905 -0.8867261720293373 1.4372813770514925
Ni 5.185509158901126 0.9870781204608453 6.748509190607058 -0.022327716962922836 -0.8525140449240028 0.7858872489333885
Ni 4.96825449629791 3.4961459002925426 3.106280812605692 1.952068937555735 0.4574267631965864 1.988371371531195
Ni 5.020458160964006 7.413386731665546 6.700958043821871 -0.3911025860480555 -0.30695886421960034 0.9099782005787425
Ni 5.916845101505718 6.258240060396707 10.448473413537783 -0.461019108533535 0.5433072652104901 -0.18695905192448448
Ni 1.4282809265808467 3.8063046149201973 7.291095372318651 -0.21742611016509006 -0.3610751864480297 -0.7078108163449358
Ni 6.044332138250279 1.2868034174349676 4.098840820781955 -0.16160668920262491 0.4209777763409331 -0.6213153064548526
P 7.015810424778674 3.4641141193632503 4.276437523382219 -0.46438031169628413 -0.41522364746597523 0.18966462378110563
Ni 0.5481247628445853 8.196057649473406 2.0909821719324624 0.1138286504873975 -0.4056048934292886 -0.7610074549725733
P 6.703813746129669 0.27567814382315076 8.277660508791447 1.0230566031636767 -0.1719623214053361 0.15339124327136808
Ni 7.175777303333354 4.6641948961092625 8.05960573747247 -0.0835161155467852 0.6089063912675384 -0.18141163974369404
P 3.280125691136503 8.86243390845776 7.606447021114088 0.6804103128447959 0.0056880515237127845 1.1545348484120375
P 2.151853528617649 1.8324318410863765 10.7635708563641 -0.8364130255970821 0.7135016960821261 0.5496028684112148
P 6.487025432606499 2.1137592096477853 11.579671687931425 -0.4719236712611808 0.2783527704471335 -0.8168155630811288
Ni 6.704225230612062 2.8008102778474204 6.5406400318422175 1.5067250736656115 -1.0454506545881608 -0.5997787179346573
Ni 6.709245341297241 8.89392618751014 10.586616069556369 -0.28066187819628435 0.07849732217595513 -0.1491448092901883
Ni 8.383475115053418 4.431386120071641 5.624123270421903 0.7756493732554641 0.14281758152057986 1.636820836744149
Ni 7.219367226168049 3.9652107779202677 2.1816806671312827 0.1475520108817717 1.287812351652666 0.8828376356082086
Ni 5.026337817012403 3.762897574077676 12.460655392682275 -1.20389051602703 -1.4076548124343111 -1.2231856168112158
Ni 5.879098258320986 4.893199726709662 5.850275141944388 -0.13039889614125286 0.9179208524645869 -0.5293875698056044
Ni 3.2853744043119 6.094057751922415 10.41948570336823 2.4200608778626775 2.381906478280143 0.4781259434171507
Ni 2.988502066415693 3.0097986744043665 9.094470922488407 -0.446820705545966 -0.4946175133142708 -0.1750360752346534
Ni 6.030195360255222 5.560773862742757 13.236646545725975 1.6151425804397668 0.1977599991947304 0.40498011536109607
Ni 8.814729140799148 8.61479340285482 7.63385554528122 0.32837666777374414 0.9331839492712445 -1.7850382491240613
Ni 7.1813277717958375 7.416998651010983 1.8938189249894937 -0.56918027632251 -0.23657388673813445 -0.3955788766518542
Ni 4.882446265569826 1.1612092093094086 9.141459707147657 -0.3424922812395198 0.3464067858025776 1.0350893659584948
Ni 8.908300712095023 7.2702267081916645 13.337596490996114 0.14135950891781462 0.9311640906277383 1.2296375430841466
Ni 3.907566373986993 6.4977423173479005 4.679757239233317 0.4851563679013709 -0.5597055040628554 -0.723469091707483
Ni 7.954836301795776 8.740835671861205 3.654501588496169 0.14052775704513862 1.3663585247886856 -0.1103635747569325
Ni 2.989992554651912 1.6887048834367562 6.657891163484795 0.19918876122145696 1.068095131460554 0.07225108415592718
Ni 4.537046191050224 8.674403788203966 2.9138148896317153 0.602581220380459 0.45921522255557684 -1.43344554824517
Ni 8.381920618119938 1.9409540152424838 4.947543110684195 0.11405336490369389 -0.5202246723594138 -0.5434147373226318
Ni 1.8406340984353846 5.5000021767433065 5.359816728872137 -2.959660098093961 1.6151806327665537 1.1970194999388093
Ni 4.89279738632688 3.172188739355353 7.8441478904423665 0.08776666329302303 1.0104630827693823 0.43229422979501675
Ni 2.4368019606241043 2.601121430592528 13.203602512969999 0.6074154085443086 -1.432894046617074 -0.06758864568325133
Ni 7.960624516848086 6.5652714929581855 11.377288988931808 0.7773853821099643 -0.4477735563775385 -0.8944698205304983
Ni 2.756644276737377 5.988928038721138 2.463935247393014 -1.2940336499720293 -0.2619933552525036 0.9885277161488717
Ni 8.689738443247764 0.7201517943731858 9.621064073984376 -0.46753454105454967 0.061421083419958736 -1.501925081173807
Ni 4.635171523951234 8.123947279959161 11.559810703581318 -1.37633671904732 -0.33177875147675767 0.38619177900999935
P 1.5899394635631368 2.5766609641392426 5.25618939123657 -0.9471023591245495 1.306481131706763 -0.8471545803843022
Ni 2.7952689534845456 4.063738451204061 11.166287976050986 0.654101242636622 -1.7482840723231632 2.0784718251637173
P 0.9342435129217496 6.623821162752721 3.7038861272529005 -0.17072819188791888 -1.2363429801287804 -0.7712599859385169
Ni 2.858957607259174 4.129155339804734 4.1403824653043015 0.7398141087244098 -2.196591132606669 -1.7504386567723211
P 3.199803920173641 2.997646166024398 2.036726571314174 -1.5535749441396145 -0.63925749275557 -0.8782790697032486
P 0.42174781979252124 0.5275843718935519 0.4661223063736433 0.14869332357506648 0.44745191137206164 -0.08980606232055502
P 6.1056341820270355 0.32276477034821466 1.5514610924097076 0.7419887477782253 -0.4643096063593487 0.05503137784353103
Ni 7.791074621903484 7.114758726644467 8.877914869095298 -1.1545865275855793 -0.3968469447310004 1.2381100993315324
Ni 2.6868382203245256 0.6907955769894002 1.8508855485067035 -0.9730674157297435 0.5396478140810319 -1.4944136032881101
Ni 0.7799359176148971 1.1758946332809883 3.218566698160742 0.8599206218007189 0.4473094722569264 0.8385493552137945
Ni 1.3630834963707823 7.665169514391229 9.383884418333794 -1.4394207919919986 -0.725274520347338 -0.2697233769069097
Ni -0.0094348819762615 7.6650506410963155 5.315196266011541 0.4741638734456091 -0.2187384012186104 -0.12088889976828858
Ni 7.720765640012154 6.047541717212934 4.036113211876202 0.5840119420187039 -0.3516628919951944 -1.343659540529273
Ni 7.355230258154183 6.768654556454995 6.31471584839999 -0.43223303753977815 -0.6584973148217885 1.6056192143303638
Ni 8.872154086341814 2.057138944870686 7.257342671843 -0.7074819722506074 0.21463800589699167 0.3135727699916922
Ni 3.5907050343461577 4.581047598367311 6.464569352787442 -0.0862178307486644 1.3784331965650323 1.2477098272048253
Ni 1.1267542419838095 0.5123347569761152 5.6234274044416805 -0.4496849144676384 0.6884961751767239 0.2648997302660212
Ni 0.44626772289326283 3.082018773113916 1.196666369952122 0.07591130661633379 0.12666745412327862 -0.3539313763143969
Ni 3.4245567444559937 1.6725198271293487 3.862076307253609 -0.9891725488217222 0.4907238346868194 -0.17284523823092168
Ni 4.0966663538950066 8.973836473990609 4.978713517430347 0.058986248726221 -0.1191930001231044 3.1481150178376813
Ni 4.640511678122718 7.949121239540336 9.275238798832968 1.0229907829227478 -1.4757041998040648 -2.2764742793865564
Ni 2.2543588852312286 7.719119702082587 6.153781524106709 0.27190855748368653 -0.315481814088947 -0.040830146642484515
Ni 1.5064721223348805 6.787893742031709 11.843644469845472 0.3310868676160556 0.2519053748888823 -1.3160219813176626
Ni 4.174180886277996 1.4680943362771468 11.822953201250895 0.8783307488767905 0.2755469255672222 -0.43121436646727673
Ni 0.3720011746912851 6.1992697620201715 7.265907949946474 0.47484830110714354 -0.2501498256503563 0.4089524697452828
Ni 0.05964147528781548 2.8780504872421493 9.780659702094942 2.3087562793487137 1.3220283354127427 -0.4031806002585121
Ni 4.629840513879359 6.929133504587762 1.486899177122448 0.897384423074132 -0.3721725819127719 -0.8108362055692422
Ni 0.5398795282274162 4.658891318336214 11.761524054489579 -0.5023444496448833 -0.7858988188976143 -0.524184171227794
Ni 2.1795784386312413 0.13776226147486226 12.499640346954026 -0.6480257258665034 0.3185172584811611 -0.08327237496709529
Ni 4.586506625833708 2.9005083958811277 5.51626770112727 0.8367524112143719 -0.6225589490539666 -1.6535823724732037
Ni 7.468013582727947 4.218054276200561 10.717397725389947 -0.025347220515536992 0.0884415778728606 0.7710221588960979
Ni 6.973034326809154 -0.03589150537412678 5.815692157224266 2.098424099915928 1.1349029331137228 2.090954016791128
P 8.954697873509591 5.312987051546078 9.203156776027509 -3.749493219048975 -0.16223121016050127 0.6821123831375672
Ni -0.03049100014522579 8.667783460087264 11.32328759428264 0.5934779725276101 -0.6309592573025197 1.5123997554528856
P 8.171935514705643 5.1487955989721765 13.198704933219577 0.8531807319737242 0.3426133801984164 0.4911982032200766
Ni 6.98901821292517 2.46280777991126 9.092704282444005 -0.5719858640921052 -0.975250025203359 0.27129817759319724
P 5.0947539702847315 5.618610292767815 8.253837386080889 -0.4266208335593233 -0.00966786210706722 0.18706138183030363
P 4.062028504577233 6.10532328264034 12.602063406671126 -1.451484922245384 0.2787340650459522 -0.25167294716310207
P 5.737767054768845 5.876208722844635 3.0508200196589765 -0.48906084516209963 -0.060383900404695996 -0.06653269361491122
Ni 7.489749107497839 0.5802498135898866 12.952772545423542 -0.7133057780212361 0.5746559547251007 0.7879305046156624
