# total energy = -340891.3178314149 ev
CRYSTAL
PRIMVEC
9.07893853799155 0.00000000000000 0.00000000000000

0.00000000000000 9.07893853799155 0.00000000000000

0.00000000000000 0.00000000000000 13.28794426352517

PRIMCOORD
 96 1
Ni 6.356001293301576 2.2898081113139375 11.167002429926605 0.14620038194988372 -0.41964491646212243 0.679674463120036
Ni 4.805790733926163 0.3651785042608608 5.76403090993702 -0.7590883835729895 0.4283079914537592 -0.6607202906150363
Ni 2.8900984337501763 1.8551539394929035 4.500639446121264 0.17630568597569637 -0.1521910523156798 0.5895590970891782
Ni 3.654617671362826 4.344444483459619 4.683375777052395 -1.3098531335027892 -0.3845439589939313 1.3185236646935938
Ni 4.301346763279265 2.4688175380668422 2.008446365575307 -1.2956449603232072 0.23606969340820633 0.7285758168064291
Ni 5.164054718766474 4.658058249667744 2.719736695742118 0.1977944519770916 -0.21135804959413923 -1.393442268379355
Ni 4.859247522723704 4.763401170934364 10.899382565221256 2.266773250048709 1.6293486967368196 -0.20630403210999954
Ni 5.845156671142744 7.847144280000902 12.223008245286549 -0.9905408899241585 0.920680417487595 0.4261351521721564
Ni 2.0067994461650023 6.28010136898985 0.31204764934882173 0.9598851127115147 0.9201047474897831 -0.46761707346602693
Ni 2.790611427696601 1.4297966005062248 0.03941802648136569 -1.0766491916781522 1.5335699617725975 1.0783227227258332
Ni 8.187622624682518 8.988158010589979 6.960504243115882 -0.40106843901151573 -0.7111442515935431 -0.8356208687130898
Ni 8.980431834084085 2.600616485582789 1.2342825717908452 -0.6261034718721152 0.18056266147983743 0.9235788220813127
Ni 7.198136374567448 1.0565523674464958 4.6329213931555575 -1.0145403381625497 -1.90138452382699 -0.3615600965042483
Ni 0.8394277418603988 7.631864494680372 2.469458511111867 0.5837954551325236 -0.06216284668198972 -0.2880885096776587
Ni 7.330934005298023 4.0078519243767365 3.5180895048787004 1.9010222553915648 0.5924667576542764 1.7060788997100231
Ni 7.6400355391636925 3.982993791270815 12.546994698519331 2.0929291382396276 1.0589844274085374 -1.0695300641348675
Ni 8.400659912239293 7.285866155503358 9.062643436312259 -0.033282416202213644 -0.2134794668125162 0.14124020973113094
Ni 6.983573825373788 0.7558606541418255 13.310931976186003 -0.5360750091281091 0.31730729733345997 0.7191172424966906
Ni 2.0445496716779394 6.486783399726265 9.13403929932601 0.22486456872100627 -0.150985719153669 0.587867311209052
Ni 0.17260877524097115 5.147521972095222 1.3838862252359458 0.24500890487936514 -0.9738464599876131 -0.11491802689683434
Ni 6.6217962914056505 2.036741784727212 6.886503632699613 -0.6314955894219639 -0.060932573819314405 -0.020658556790616033
Ni 3.9541409253063815 4.477578034907841 0.5195703897731865 -0.5609416904628017 -0.38320852801195937 0.036162308853169976
Ni 5.874254668441677 5.611782561760819 4.8124147273206415 2.280700915873395 -0.2908899836821958 -0.8142424030373139
Ni 5.295308929983531 2.9113794651600666 9.091319262979553 0.2531772996227704 0.6256967233519999 -0.33024174600694095
P 0.29181160373896475 5.757390574453575 12.438897227368 -0.6598594852766377 -0.3797308538760041 -0.7244929049863071
P 4.216041058873407 6.196502504987175 12.644781219426545 -0.404458181419355 0.26366354386607493 -2.5849328680801356
P 2.3962949788082226 8.447026050212974 1.0413042905467897 -1.1513824188259847 1.063369958070743 0.6386468557547647
P 6.480264722016239 7.997582287877132 5.589427491948287 0.21525789886917768 -0.3235890165771137 0.5124164891689046
P 4.696934263531716 1.2842975350732453 12.461952283324603 2.0484541957557045 0.7195345325397673 -0.11368518293099776
P 4.205709227071165 6.25477113109156 8.22983514837718 -0.831704050157187 -0.5296269395099201 0.1011921926703096
P 5.120475814855435 0.8787222947806833 3.409088679365047 -0.7268992004349545 1.5307486902737188 0.6217500799994259
P 0.3680238435287191 5.7764745027912845 3.6201140741912616 0.6952039262142027 -0.9947680406316286 -0.4417636027380327
Ni 0.7405326825849491 9.049395449523303 4.823244992836366 0.09710413864386502 0.7119952867399285 -0.4760451496287221
Ni 2.091106467356232 6.7612033892294 4.714403048743222 -0.06965966927966712 -0.6570418133221846 -0.06067160684844389
Ni 6.2477621907125345 6.1729608179369 8.980178531705102 -0.3679505734116244 -1.0784787886877234 0.5389682715155041
Ni 8.638664280161766 2.367360402398956 10.031852785595055 0.7306635525733932 0.964384800354081 0.6803740602902217
Ni 2.5302183978898327 5.500629119972727 6.8355707887535875 -0.6775404474961687 -1.6247168543917634 0.6006490363547526
Ni 0.5013108290344614 0.14426614560982956 9.076356264742932 0.8836758152387878 0.3918831729678218 0.7438322287448673
Ni 1.4020967597077707 0.9953240074514869 11.385296422767647 -0.009665805224538191 0.6819128655322514 -0.24998990303372434
Ni 4.10264511932156 7.2315287096892815 1.2499319377640656 0.47948297166567744 -2.372099262381734 1.1470082010176892
Ni 5.674590657022603 8.172469876635118 7.634680781345623 0.33694641172062617 0.01501421402064511 1.0649221330492111
Ni 5.46554810232434 2.879230944587361 4.568381944357141 -0.09944461385158357 -0.7729150050434366 0.1455969440379299
Ni 1.1689768605986601 7.545451159800109 7.159823254878994 -1.1429625701934059 0.12380221676034162 -1.0373735340069812
Ni 5.373015563019902 4.633799326490599 7.136396870345316 0.002287767592912189 -0.4587562806412873 0.11625191521690946
Ni 0.8162310544660858 7.628296471922657 11.324597364876391 0.04444537479756862 -0.9397142941905946 -0.06734207689008402
Ni 4.533776663076451 0.634176551802397 10.311988874661187 0.16051756990350421 -0.21131022707533928 0.3931327291042068
Ni 8.203274714337233 7.235450811041275 4.569710193032597 -0.0193272395737022 0.6184953205075542 0.5625949097955085
Ni 7.2747716928826724 6.2572315233748705 6.820302738189588 0.8753937777356536 0.1946926731233163 -0.21258986511871128
Ni 2.5327877374329204 5.263786856154547 2.56805487331676 -0.8239169500126005 -0.18265142568806608 -0.4045725955100322
Ni 2.491306068272601 5.242660166696009 11.190481472302507 -0.0527693212822317 0.5940914377418929 1.1062233057908433
Ni 1.0266372656992309 3.5502371175575744 3.7476786048771853 0.290264691393371 0.18157567612538406 -0.6289563679398781
Ni 1.7157196048542105 1.2952648925575232 2.1863182013573677 0.6384568512311456 -0.22882046804496076 1.3796984364307012
Ni 1.0863312851190385 3.525823852429078 8.020084436490363 -0.33570508311435737 0.4090046631394568 0.5482301564334042
Ni 3.9997807482148793 2.7229824161896587 6.798856470102369 -0.8485098088606161 -0.5377266857989191 0.197893182338485
Ni 4.396702852399606 6.631356413451136 6.060391969665531 -0.9478400086215225 2.308409951752889 0.2755991189613963
Ni 0.3937535547128613 0.24954642220207793 0.36664384490486956 0.7660118501657001 0.409824587937591 -0.08922910677116246
P 0.24726942447272615 5.617502292899142 8.03782377406365 0.4080055324509812 0.5365182673131147 -0.7600985700050588
P 8.542763454742538 1.7879334802101268 7.936357559457449 0.22835715525529704 0.2168175300468137 -0.4075496758604852
P 1.719441969563278 3.196212996910276 10.529739039097175 0.2993103465354071 0.10417724344056252 -1.0607284066828377
P 4.072820806957443 6.219009193069564 3.7084394334806214 -0.30403603414585056 1.7103140208372931 -0.06316069181888477
P 7.0802735973647195 4.144135867420194 10.228182102971104 -1.1778547540849005 1.0486197963447617 0.21861113161212675
P 6.56291029749586 8.085965752371708 10.133890973315088 -0.8325959658438371 -0.681270346852246 -0.7208835903684939
P 2.677106540884976 8.6011410281067 5.812571453637096 -0.40449906195961954 0.5528488861523383 -0.05507688636948578
P 7.152224183509507 4.0926038135453915 1.4694742846233937 -0.3144567152585423 0.4581479576333271 -0.9897687876448245
Ni 5.788721990577949 3.034626052783472 0.0997176110867706 -1.2055079970257947 -0.6467129205923507 0.5881041098102064
Ni 1.4359339628070291 1.2779785940061448 7.12499553960959 0.8626534473508498 -0.5621485662867093 -1.389678944682181
Ni 6.897015227480488 0.9428114282386856 9.203256217144212 -0.6234945734943586 -0.8749194092023965 -0.9583745896042589
Ni 2.588359918857809 1.7352393222310296 9.191350097438185 0.3439536962763947 -0.350356514478945 0.054533355161189956
Ni 6.75643694661413 2.0138991759271754 2.383418320596342 0.08130625237965998 -0.2865113949985259 -0.7220958655090401
Ni 4.306494521303756 7.271403406767882 10.260166294760312 0.27093719470935274 -0.9187742016038178 -0.005757985529699761
Ni 8.183119471278378 7.52025710597654 13.18449686542644 -0.0033151804161620324 -1.0035725262971362 0.4421441260059031
Ni 7.762174496312692 4.0411897858686805 8.119092982494749 -0.5819005521026558 -0.1702268267714681 -0.1491805476241302
Ni 3.508982421855124 8.5905277492167 12.314256114819441 -0.8989677084008518 -2.2448347981044052 -0.5186568136516616
Ni 0.24780145025797345 4.85192081950366 10.325051651108522 -0.9722482622625578 0.34306409458258985 -0.12590872158038316
Ni 8.837048161278453 2.337399905960117 5.5768967412862 0.6924358765507622 0.7939594844185616 0.5880244056122067
Ni 3.675599097808328 3.0277169807259092 11.428548484899352 -0.46127133375365725 -2.030643135716213 0.7140562830340155
Ni 1.0854687859791325 3.401660292035878 12.640436039549082 1.2633413630944952 1.250206368374434 -0.3968772837483036
Ni 3.070569569571764 8.601131949168384 8.162318715705341 1.0615388183992749 0.012854487365164959 -0.8296643940193389
Ni 5.668943557390797 7.8705860987297145 3.355976890223469 0.043031010948545244 -0.5834159603059178 0.5046988088096728
Ni 3.181514195778616 8.647452692450493 3.5503787489952847 0.590080516810287 -0.16054199538353642 -0.5873505194736336
Ni 3.2225691548381397 4.085159084127255 9.02024207070065 0.3726376944746486 1.2982602864588673 -0.12618922893527945
Ni 7.192262301477773 6.26990572126233 11.250623083381235 1.5059154332801226 -1.7542534025327208 -0.32831470418755715
Ni 7.852364669531911 8.87160260050458 2.4507086877041426 0.26756159336890045 0.3508815337444796 -0.06752668209706435
Ni 4.824411636409818 0.2670261021395617 1.2244264763562989 0.44893929455086556 1.0946800810379342 0.05653907273730907
Ni 6.23733049058883 5.752379000503806 0.2351354234149964 -0.46742244095671753 -0.34042948517322014 0.6024174411090851
Ni 8.026979890140455 0.09876432256371663 11.258795035758386 0.5984060059568468 0.0876044266835459 -0.055879327666123114
Ni 0.1925515711432601 4.884940918154587 5.766117249961761 -0.24518811076970676 0.19111164064027733 0.2364365898293218
Ni 7.555456149823019 6.372179961378549 2.4429489191264837 -0.6573601158935518 -0.47752970459404864 -0.08831276560448016
P 8.984617224647208 1.639964943555522 3.370260783874143 -0.8478698612837721 -0.4891858007757382 0.2674011565316362
P 2.2683182643228066 3.3414941678237007 1.3169789893250297 -0.7726938901715661 -0.3314861599370033 0.8032141702476103
P 4.733295411482488 1.0321391023179993 8.18886825501931 0.2988912567201175 1.002658499123299 -1.49492499570689
P 8.554411732600425 1.9903302520619557 12.360937291952647 -0.6181279098658065 -1.6400704540296982 0.20035758471857754
P 6.394005729087327 7.752214900981357 1.1386069040418236 0.24014823435295415 0.7246829095099262 0.5389777845972007
P 1.8676465586140678 3.2893629040201207 6.022694401994819 1.19785228025275 0.014942480242445233 -1.4587400611459007
P 7.113829353376219 3.910217021739381 5.807602550697406 -0.347025393223183 0.6563165051203859 0.21234998119376333
P 2.469661879330119 8.471502867909674 10.210961172775592 -0.5272139591930532 0.6804334527732475 0.6776065248474136
