# total energy = -381161.84274218505 ev
CRYSTAL
PRIMVEC
9.26627318450972 0.00000000000000 0.00000000000000
0.00000000000000 9.26627318450972 0.00000000000000
0.00000000000000 0.00000000000000 13.56212745478594
PRIMCOORD
 96 1
Ni 0.18534400048045968 6.559909990807606 8.679924928570008 3.876374331844956 3.7034046522210287 -4.158383982318387
Ni 4.919770333321263 8.723677491667127 1.7377561412110436 0.22033197095797538 1.6953453153426028 -0.9986426930956865
Ni 8.735566120435072 7.07619894565061 1.9276257896184432 -0.5067484922498499 1.6464573313926483 0.42036996755360506
Ni 5.170932673738364 0.6872294599556594 3.866440604363382 -1.197428048231138 0.42057051360018544 -0.4065603153640224
Ni 6.8960440582722935 8.78138784238167 2.901820617141309 1.2740528359747283 -0.2289431096657541 -1.3454276881732894
Ni 8.87442122728437 6.119900998566099 12.632402881421593 0.5979498922560348 0.8471252698082636 0.6574153946115194
Ni 9.422224777949495 0.29023914195825445 2.205988348964169 -0.6549849307931558 0.15040979204554097 0.8454291130527634
Ni 4.635323538863275 5.0099033746508015 8.889500233982794 0.6417275515626174 1.240484770211296 -1.76243748100541
Ni 1.179216686188522 7.9726089677723575 11.576496201832096 -0.8015987461313743 -0.4145916703089311 1.160256581387163
Ni 6.8939313479378495 3.676987011631493 10.841714080059337 1.311176480299903 0.6950535166792675 0.8384956191577237
Ni 2.090943858234987 1.734488853211373 0.8527908933615398 -2.9223670180704575 -3.2438384740839363 -3.9658212110538793
Ni 0.25137361145054565 2.6718558037464604 10.13455749916411 -0.14375269174033953 -0.46365063261911116 0.1887148582733266
Ni 2.3161513668679783 3.803267785481493 11.478971454214022 0.36349433741248366 0.21088779482594 0.37367821992402095
Ni 0.4439221394969266 3.9542709767538446 7.937940132486006 -0.2542358227942718 0.3524637906299349 0.7894749662846468
Ni 2.9713046948336785 8.902321976481785 3.7227225572355027 0.81717808862687 0.9221971112424375 -0.007086731643452311
Ni 2.0794166141295127 5.660961009775169 2.340403057601778 -1.325152482864021 -1.1816982962007068 -0.09943355810799004
Ni 7.828194096885048 5.0926511960831835 0.9894193147136163 0.9723467355136352 -2.0878722925420106 -0.08195519881756853
Ni 7.4915596506569395 0.9538053195408037 10.016933277921291 1.3842955688830805 -0.5396133612986707 -0.6872720729616357
Ni 0.5694384457917004 2.969303179779995 4.550771574000558 -0.58539159597505 -1.2787638682971525 -0.06624832960527301
Ni 5.766049816366953 6.456628107528173 6.808066352134824 0.8596203169514808 -0.4628111674369514 -0.6266338904542885
Ni 7.132834408651139 8.464333031840756 11.749535517869099 -0.6098384161635046 0.10199309130505015 -0.40264401102875175
Ni 3.14823491906995 2.0114577650382373 4.675692985543265 0.5822257966525585 -2.453750299695322 -0.40246403380746176
Ni 5.084978721710729 3.488705602484285 4.433893287766173 0.3710173852624062 -2.4522657447299956 1.3316344910439388
Ni 2.5258193350147313 2.9008717507454884 9.265360668753742 1.0487110705069873 1.3185365202094004 0.3443226495800393
P 6.540849266430628 1.406314514594437 1.4557723222218943 0.6785953711232442 -2.005353250801172 -0.09869076640469455
Ni 1.1798653253262898 4.035230407420666 13.668047927601904 0.9847705630992846 0.7865819610075678 2.1867924013486917
P 6.14630061147325 4.2584271347265785 6.783478295676725 0.516714088102994 2.6728735950571774 -0.6392870604419247
Ni 3.9234884165300628 2.034113803493128 1.8434861739218795 2.865563121707536 -1.8793164882833568 1.6547663654789757
P 1.311094289170119 4.631681893418378 6.105588312677582 1.2657877677524587 -3.286698763782572 0.08376679810501057
P 1.5386276324256778 1.2176439219645676 3.4996388784650314 -0.4306289262774519 0.05647788048207048 0.16042963817538822
P 6.810738745382427 5.361280461853033 12.678866756114582 -0.01244002553556567 -0.5400568765939925 -1.4349216185700642
Ni 7.002541338420375 8.227468551274736 0.44645461201624015 -0.964310752583036 -0.1768939543789986 2.223560719216977
Ni 5.191855919068075 2.5834648218154985 7.298513523729157 -1.6444624124498064 -0.26246952355797376 2.3435862425437053
Ni 3.94227115270514 2.5533216344560876 12.840785617448226 0.5623845935569153 0.5422860230348274 -0.7712730985646394
Ni 5.992128354699233 9.134571852896256 7.540922942295751 1.6153834928059791 -0.14972819259748407 1.3526044084273867
Ni 1.9871059985517536 3.1207696847221804 2.2676553984190964 -2.41311658533436 2.765560578469953 4.279445660219114
Ni 5.955322716767607 1.291662913857274 11.69376830468584 -4.010650708663745 0.23339651745141737 -0.9297906073189792
Ni 8.994892047714652 8.901349017775132 13.628718156797023 2.5683657077500732 -0.11876953943244062 -1.2724582377940987
Ni 0.007822588001480056 8.84427803992496 8.440132305610637 0.9555003533802576 0.3392318653206932 1.6077025792219537
Ni 5.508391818298777 5.558049777431603 1.0080658366697621 0.145613141987846 0.7517985347797955 0.2408079794241401
Ni 4.648073931057111 4.830814108713104 12.421092003001608 -0.7216909167611377 0.10802772753490426 0.1791560109402979
Ni 7.224301793349801 2.955135047756466 3.690092302096422 2.2200812453088083 -0.3572761244169137 0.3952826855676741
Ni 6.350890661798621 3.2101892230001745 13.059976534764752 -0.2919271666974585 0.5057308496186129 1.5074352123587587
Ni 7.398118549724786 3.093369314288188 8.778670044394424 -0.0979996538749409 0.39835335407319783 -1.9813180642288393
Ni 2.7372849602004417 3.034889862881719 6.648507610635314 -0.3999489806950918 -0.03006468059586435 1.0914024387279269
Ni 7.7899336540301425 1.5123948124396673 12.660951343129435 2.5940672262812354 -1.112899432259438 -0.47231987825833494
Ni 3.251192482780498 0.873668733951607 8.28582290799035 0.20527687639706582 0.10944363404582441 1.8896353537108619
Ni 1.0994062734228887 1.724629538317302 8.050343735297133 -1.0469650343501582 -1.1142778006642036 -0.6412994628862633
Ni 3.7597996969776517 0.48160251363719964 13.492717062153902 1.0280861951677842 -1.6755457641181724 -1.6041786252290955
Ni 8.260382354379754 7.698206813676375 4.476465327632555 0.7443670182024148 -1.7611753264635346 0.34749873331517567
Ni 1.1287896263637713 1.5909635445701453 12.308716199010673 -0.01153474011247691 -0.028887372458311536 -0.7274841264041472
Ni 7.986860496256457 7.816175740289551 6.905699515151637 -0.7515331969335509 0.5260371652761328 -1.204908672878899
Ni 2.356672780431674 8.644617647046624 1.2776365558167146 -0.9428572106949504 -1.013251701258113 0.48737857236367027
Ni 8.945465745416742 5.815633645312605 6.515300297421293 -1.9202903595925573 -0.14683415887914067 0.41706198622629465
Ni 4.246946221988087 0.6388937980365402 6.449971216719996 -2.54174116318401 -1.131278191876942 -3.2240309524397057
Ni 3.5041895453301426 1.2315896634265762 11.02173738635542 -0.3086205681927395 0.30342488292441294 -1.16438165929913
P 0.4059007664956556 0.39622677706951825 10.506526099108452 -0.14212518343924557 0.3863517016266314 -0.006756859107859331
Ni 5.043104432231118 5.684738267311057 4.4845612706992375 0.037280481618013214 2.758180483955798 -0.8856200834493522
P 2.24644119210473 8.092931527828291 7.34943910906265 -0.2598516263191525 0.5482607525610236 -1.011454243038058
Ni 8.99204730178187 3.7376718361063723 12.23596853982799 -2.1977902951210924 -0.49162963433054035 -1.892507018831702
P 5.244655144882376 7.6340842017713255 13.124599525433222 -2.1016814305109612 -0.001070350246043318 -0.7728964931006754
P 6.374371398585817 8.474442536116536 5.172216052603805 -1.0242436814932425 -0.4658939201273331 0.5323350824697025
P 5.506084516223003 1.5052597819242213 9.31951462373864 -0.659893938058999 0.6705920412027935 0.1819384587814415
Ni 5.846629329824512 3.2877571976038102 1.9703738886793625 0.07204642434428882 1.3803869778572937 -1.147567415955269
Ni 2.679926727874972 4.090587124692453 4.250005018836332 0.25563373158306296 2.7825393724161365 0.3937294821479413
Ni 7.087967112864398 6.095669693633773 2.869339549003915 -2.1539475869045295 0.08793275655724211 0.9514950888756064
Ni 8.48219840694956 0.937561542276418 6.895094265249133 -1.2680634511605129 1.2898190976700497 -0.3979669172680565
Ni 2.2145837441669323 8.289737908500447 9.510211750360362 -0.03658448399225313 -0.02309673391846345 0.06727291421504543
Ni 6.184931705264023 1.3326569073642012 5.726025075057319 1.592395259440922 1.3338163291866059 -0.15088827434385627
Ni 7.989223395972611 0.7529375312388805 4.576133364287281 2.0512122181168153 1.0190929905302384 -0.8180126687130234
Ni 3.5586289015356574 8.218054017503706 11.473939867759624 -0.30505521943898434 -1.0603782224322706 2.0069553051809694
Ni 4.065883239816895 7.6081757013542 5.334364717517687 0.291760044991975 0.6537248331338097 0.6358674932374145
Ni 7.793232447359363 3.076625158260381 6.106619648906633 0.8093177120421867 0.40971557316355245 0.1381404877598847
Ni 0.8963395984439324 8.963544244813672 5.768501672307716 0.578837596906616 -0.1519910204897318 -0.08937360276882672
Ni 4.2891540973099795 7.606785760344697 8.150173931736301 0.6666608244691873 1.1093505385659153 -0.14551415451613647
Ni 3.7505519561277616 5.174111005513427 6.216919807656713 -0.0001246985033223659 -0.5865056549748351 0.8986856583840587
Ni 6.822849764711893 7.246411121674287 8.817498509808546 -0.45127591310384213 -0.5338360924952613 0.7237537128274374
Ni 2.7375814809491352 6.091629598432819 8.152791653970866 -2.84211054711155 -1.4277045319963346 0.6878641980196798
Ni 0.8160028613493675 5.256932957132982 10.316588806905255 1.3242009175840292 -1.228432467032452 1.883103980350247
Ni 3.8070762238475306 7.049947593117807 2.512234978215194 0.86892411085091 -1.0441617605734081 2.120386720229948
Ni 3.3812724287231384 4.041207153761528 0.7669574028880624 1.1260313416557057 1.5651071131489305 0.6314518806682222
Ni 4.70451480231631 3.6347884025829975 10.496205323799224 -1.1346491652317041 -2.8202451144970264 0.8179707597314946
Ni 1.7114714300940117 6.507953995872403 5.579920035902455 2.2111636311042044 3.6938360346959866 -0.026052217002361582
Ni 0.2185042864578306 5.320870243570097 4.298516739949989 -0.6229687828978755 0.0896854775822907 -2.612233098556985
Ni 8.314719781577907 6.949510455771156 10.58701758296874 0.1476502270225328 1.6065859491190073 1.559622435885275
Ni 5.153410150745235 8.68589889502885 10.003452703383797 1.1722137537490391 1.6478128169792783 -0.7893350982726728
Ni 7.188682238412949 5.3012072114223345 4.9375235865219675 0.40414527816462653 -1.0548359524578028 1.6168863026037508
Ni 8.591151249547762 2.365132888042846 1.006971489781614 0.19846011058554852 0.5093725601362582 1.0951886452432364
P 8.144516871827626 5.377848558686303 9.306982915596965 -4.486391439678171 -5.566656373732038 0.4417690020546714
Ni 3.419384611203697 6.376808428489143 0.3789525902034212 -1.3498682404431461 1.4043062076770525 -1.5927045631512247
P 9.181236805721953 4.025760276009256 2.4464175649058917 0.045918874019301566 -0.1276940956155801 0.4940505850672073
Ni 1.1275108806350291 7.673753118182528 3.41809011281018 0.08025441407637791 -0.4111749313178983 0.3096754918198151
P 4.415703593088484 4.659350985780875 2.807537211957396 -1.9431798625962213 0.8280875364505221 -1.5166099368794914
P 1.0263417076900407 6.809293206732544 0.7145779392586306 2.1566922395292014 0.12534642131900992 -2.0757055752724898
P 3.057610765250387 6.008307268049842 10.535318263806625 0.026727902913147517 -0.43106858491803185 -0.41175805751487793
Ni 5.208961459758353 6.57115924671118 10.968980785398744 1.1034370012949577 -0.2791066178940225 -0.06593825456402191
