# total energy = -340870.6775699424 ev
CRYSTAL
PRIMVEC
9.31658576117776 0.00000000000000 0.00000000000000

0.00000000000000 9.31658576117776 0.00000000000000

0.00000000000000 0.00000000000000 13.63576499640698

PRIMCOORD
 96 1
Ni 3.0479863188444414 2.153035069786047 4.824988140357324 -1.9718458630723459 -0.03038426871881219 0.938783297735893
Ni 8.887976440198447 8.10361306670036 12.040053247542051 0.594621342103434 -0.9215353092887227 -0.2289978741630895
Ni 7.728667064010841 0.8263243450849501 3.138775517542642 0.7594568226560018 -2.537552836134275 1.3971546842339357
Ni 6.766105350509216 7.168330316942675 11.623194719512759 -1.8142930322241204 -0.24360353989140626 0.9217003741116772
Ni 7.739306605197857 6.246603199783158 5.564850840930911 -0.7106346589469761 -0.3978188217259665 -0.6766747570617636
Ni 7.5412639370609185 3.5114398883261178 10.534515313283894 -0.5594730763370752 -2.49416778428042 -0.9449326051667403
Ni 8.601892034568255 5.8556419857972495 1.6819167450201702 2.3094301654872877 -0.971291040555611 -1.3131307758127966
Ni 7.066015569730941 8.499912684451733 5.342028849067963 0.9760085006359384 0.4587277413961971 -0.8051926341302197
Ni 8.231427309734213 7.537527986083692 3.1851916805442437 -0.17973373782063884 0.7969751313164339 2.096877324254099
Ni 1.454421553630595 6.641095399854777 6.359884500349741 -0.9835549455246287 -0.26773848526639693 0.008376911209785573
Ni 7.591284687177455 2.881545510345293 3.6076830164559106 -1.2549526248101677 0.9286822047461489 0.4057018240184691
Ni 9.17696762065381 1.708196039088659 11.472887442951924 -0.3518719226822069 -0.1621957289368755 -0.22912951464494732
Ni 6.107935134084792 1.5297741010216455 1.753273408685204 -1.2300314360884559 1.270089480451606 -0.33681939922445864
Ni 3.483434230875883 6.153148525836618 7.8559465350095525 -0.5476624568553923 -1.31593713491334 -2.7750420355978274
Ni 5.374878199568222 7.939650470071391 0.045477051135006656 0.18062256818349537 0.2590990644238441 -1.5406957741841016
Ni 9.098289052068571 2.597007657987471 7.052240997362286 -0.19633792203622316 -1.6248011865754532 0.5834059330035888
Ni 4.120194932722583 1.5066782843818811 0.041744826792171 1.7596380638834017 -1.536327984133709 0.2575126937733307
Ni 2.737315442817987 5.276979514110117 3.335335916850461 0.3426092664333583 -0.5955055444806002 -0.33409891496950206
Ni 3.358666511456874 3.2900498557280056 9.6706078603632 0.6728612968529444 1.328961057976834 -1.041632052173019
Ni 5.151680749290355 2.8436456385862927 4.736205734278811 0.8245782377456832 0.38592824093596756 -0.7768598486237975
Ni 2.489019109915059 4.725568056408992 11.801495541962057 -0.14457210231784134 0.028982246164962987 -0.5605161728896089
Ni 0.3807064477997905 5.87404224310404 4.042813232905499 0.4542974735389853 -0.45380767838676034 -0.006918324386388086
Ni 5.133429557359214 2.627463577549951 11.306953456729985 -0.42376022418207665 -1.1450801307570406 -0.18706600981599397
Ni 4.4076488764915585 6.003449622340154 9.72332296714461 0.9690557234671892 0.2779102835930762 3.32759241667314
P 1.7415307837183793 1.4193632405949224 6.769912107539876 -0.29060536256224145 -0.13939235788911478 -1.4562432628659758
P 4.914545686389217 3.6557351719552704 13.413106534215524 0.7672380092633173 0.1577253518703477 0.006217184554305422
P 5.505748282802902 5.140137499263462 6.315200290681473 0.5903862209761639 -0.6652438895170028 0.08009911944543624
P 0.25295648920918457 0.9513724937419006 2.178654749567285 0.9100447921506198 0.2084205642323701 -0.3445530204232905
P 7.746666708120573 4.969634659277852 3.256425365274366 -1.6531766523943527 -0.28457072633238734 2.342411248398998
P 0.35652059060058594 3.774279411940894 11.695232425612792 0.8343139769762082 1.2549857920409484 0.5430015610446133
P 4.258425118879979 7.9842396505626825 7.2041292985636085 0.7242442793106108 2.1967158311099912 1.433647636953647
P 7.953373801217165 6.834768589167974 0.011408159530210321 -0.6383460366848942 1.410022027114907 -1.646344459963868
Ni 2.8843311695527514 3.2377558586328075 13.776622949227082 -2.1743163803688685 2.357144955064747 0.8402748225453335
Ni 5.46438264106004 0.5493580821515475 6.291296726037405 1.0891619794331824 0.5379719690405057 0.3349162686644748
Ni 6.99358843033702 0.6420124613625681 10.43426512152491 0.387362659389649 0.006381735156627719 0.21802594853261809
Ni 4.348451289186571 0.26229264001786057 4.327637104452849 1.2543620424140203 -0.6221208330752834 -1.0363510062797379
Ni 0.4741490101845602 7.992764326732664 1.1999436659311833 0.8088685403199102 0.10861111084220006 0.5670670866342491
Ni 5.954826360120335 5.58364425816598 0.21585411720991174 1.1687605050931162 -0.6176489133468589 -0.9939535151501333
Ni 8.77524574986317 0.36849985685125514 -0.0007425319024563191 -1.1066480520330877 1.8537023872596783 0.2984030042297893
Ni 0.0341965288326966 9.023970645721093 9.821119170156955 0.43856926417045117 0.5174807910656894 -0.2732380749283875
Ni 8.994306635966751 6.994473506004941 8.457215702572597 0.48906470181684164 -0.5855947131247914 -0.3833303983018043
Ni 7.326991776150091 5.602575560873523 9.771703066470398 -1.134553263083788 0.7747335463094142 -1.1289935096078236
Ni 7.0503543887017175 2.9969593774422676 12.77045309173766 -0.2822575048181784 -1.6126655796541838 0.2947679785803633
Ni 7.166392467059226 3.7967882836640365 1.2636225310916467 0.25363238488231804 0.2196287742433637 1.3414836159238768
Ni 5.450053731825688 5.214213674375509 4.0892293959070996 1.2429653705413044 -0.17922491650502034 -0.419338183854981
Ni 3.7261871951218284 0.9862072087140986 7.574462659535358 -2.353813576698669 -0.6775088229272849 1.5288013367393607
Ni 4.803846011797173 3.998268772026902 2.218253034950097 -0.1888012473395458 -1.2814239316278189 -1.0418302842267542
Ni 8.923780080112369 3.9007427500079213 5.185504614683927 -0.4858389957906923 0.7436424813315644 0.36948192245448624
Ni 9.233202533617755 0.9796855985294132 5.079786518614384 -0.3701208415900658 3.17138941498459 0.2418423342259254
Ni 5.523822459600458 4.849963112388876 11.666828949941292 -0.637927718200553 1.1740927159393069 -1.1623504878017143
Ni 2.1910653737487413 7.495929429691378 4.12256879882981 -0.10092351238995521 -0.6116299608462886 -0.5664263677264567
Ni 7.457051316404674 9.481582715794485 7.889748972255374 -0.40293300302408025 0.19304202489377076 0.7362559590595062
Ni 4.233521884560459 9.024995470178684 1.8127793749860668 1.7075523989317558 1.316902584150403 0.027119224814295233
Ni 2.366655069678405 8.159670964530719 8.571223696845474 -0.21928938862607397 0.6286277809558657 -0.4041190529123814
Ni 0.26549195564274763 6.04802016965949 10.710130163995698 0.19372722388625346 -0.9606171057815327 -0.21376845880784476
Ni 6.20199538611991 6.8884134912300015 7.675994813524932 0.027347281664701288 0.3449070613285995 0.1397083464676368
P 4.012010736344632 1.8649662313425168 2.5744186636249164 -0.8431189768623479 0.16107961305456128 0.6900169826966245
P 5.47821777123755 4.173933000644391 9.280228933000924 0.4012152490020252 -0.8854228798368815 0.4492915356839617
P 1.9176049421189059 6.078783536559247 9.232080816665988 -1.1423483336481746 -0.5721406445024146 0.5182192118936108
P 6.895084166790337 2.1412589051097015 5.723802977620846 1.6092493548837832 -0.37829797808421944 0.4281889493773916
P 6.637769378660587 0.9507110161374539 13.346045748345002 -0.6850498684993364 -1.2742197005698959 -0.7153791156104969
P 2.9251284995509477 7.430601528812787 1.994108087878254 -1.6259496983575996 -0.8438697389854434 0.5072079483847717
P 4.100387870933097 6.88802219461892 12.11556883518772 0.25365809591393085 -0.2170234754100327 -0.5108085212518364
P 1.5907697894204098 4.72542830761932 1.5195016333221683 -0.8560552253080418 -0.32757088404299717 -0.41950170601603887
Ni 7.065242293094756 3.815756852715493 7.437519093901542 -1.1611528679491874 0.4313557771411475 0.24481118704626226
Ni 2.15247607462736 7.5604561041758505 10.88556799957392 0.8981742659652789 -0.12598405490300885 1.3687537644937395
Ni 4.317147560300081 3.1887133500439737 7.173707850369247 1.1250316967465979 1.1263059354733311 -0.05533811045067245
Ni 2.347816932830643 0.259834924636832 3.054452029513258 -1.763521715208524 1.0655528246546746 -0.3616601124172223
Ni 4.951495266378449 0.22086457714894572 11.760834234119141 0.20268828973428316 -0.5104745349511853 0.4269275661664647
Ni 0.8852154167112567 5.977540196734997 13.244827563302891 -1.396411121199692 -0.32726260877395896 0.11014554520885546
Ni 7.9189583326139825 5.018351087357452 12.220795947176217 1.0814131887256988 1.7483941155384664 1.148587629689667
Ni 7.076915975325342 8.65356182040292 1.569844737313548 -0.16316940570405447 -0.5784169644294296 -1.8443875376166556
Ni 2.0439751143261518 3.8730911228248552 7.431819206600126 -0.8650268326790328 0.3578350822441773 -0.2736476516619803
Ni 0.34079139849372264 8.868728373567647 7.207634198208578 0.6605613964396687 0.8102780190729272 -1.2475018249590772
Ni 1.700416689796927 1.0664043808137722 0.5604792908336316 0.5454726482929251 -0.0896289133127424 -0.5476650279585534
Ni 1.4144254500265176 2.012578219579881 8.753247427051628 0.24351663660455478 -1.0498935208508628 2.0785268467713687
Ni 2.9179081454179028 8.393228458416258 13.571131670600634 -0.7204763276277463 -0.36957319661671195 -1.409231927113444
Ni 0.33347974181809253 3.109084489688965 0.5915007271649843 -0.5612453377461495 0.4381077511530004 -0.4978635310553941
Ni 2.370661201648998 2.0360094333148577 11.504999851501314 -0.9144974286053348 0.38886778318026577 1.3875685832073974
Ni 3.045834187483495 5.92478968692687 0.3740795601935524 1.5024400731370124 -0.3159924351767784 0.11776552364795848
Ni 9.241699260029803 4.054503684990846 8.965965581421305 0.6563118771346955 0.807634410802493 0.03756278874512241
Ni 2.709756981494702 8.743420292161906 5.945711944057939 -0.4855001243940347 1.044253548956266 0.38389964054171305
Ni 4.961845993400142 8.637667724724244 9.447307927639573 0.08331531238988878 0.1404933042627774 -0.8040407799139637
Ni 4.917117064119179 7.051174248267792 5.4159894985138815 0.07747530866934399 1.3553907129232723 -0.6355823578968279
Ni 1.6287814602111474 2.7621068781057696 2.8121173799777304 0.3149076867530319 0.10944106294266313 -0.3124653958601264
Ni 3.3959049056114274 4.975382992826354 5.843375768698454 -0.24148880754124863 0.30375269857747683 -2.046525611274424
Ni 5.548446196340635 1.831733969158556 8.697027420625249 0.890072462793751 0.42474161425873946 1.1288014482016753
Ni 5.0151461817809775 6.504532882587465 1.8928079168795364 -1.0753016765113221 0.9925463503899614 2.9020524748828214
P 5.7031574230933275 8.166527971810616 3.2108271985216437 1.0074636338214262 -0.4636231218152854 1.500049461417649
P 8.794847846761138 5.273746658775709 7.107465060747605 0.8482591263023906 -0.5753578658881318 0.43263747206704845
P 7.381540387051996 7.833814053359926 9.73106877672682 -0.14554680752628482 0.7972522962372205 -1.2074746338338624
P 1.6935876322749637 3.9356706308399008 4.92968327528647 0.533071960635727 0.5381308632158733 -0.4114387265022462
P 3.6284096252814386 1.203237079074449 10.103147134252271 1.760124773711833 -1.3637537401759867 -1.5881251713106586
P 8.51663595628246 1.8805808294418491 9.22565889395127 -0.5660836396750573 -0.6290697535892907 -0.1640104135481111
P 1.3467404528954616 0.0686138607530747 11.835243943009203 0.0033645455968587218 0.15920964972535806 0.8907414638363176
P 0.2621091032740916 8.381144846402634 4.945146944692956 0.1916518294144635 -4.27914175582545 -0.1511906360756235
