# total energy = -340855.60869115026 ev
CRYSTAL
PRIMVEC
9.40999162392114 0.00000000000000 0.00000000000000
0.00000000000000 9.40999162392114 0.00000000000000
0.00000000000000 0.00000000000000 13.77247391814272
PRIMCOORD
 96 1
Ni 8.800873411617207 5.9624247325451565 4.494192215880366 -1.3007851097632501 0.16745440623265354 1.5993452083961939
Ni 0.6120945450640275 5.046089162832194 11.476932925057103 1.6169896609508347 0.5751316088099385 0.7755961514200256
Ni 8.700280601666073 3.0907399632254533 10.858094239030308 -1.3903410037462118 -1.3588388193728729 -0.544534452749372
Ni 7.931296090047106 4.77224899796896 12.135752783293475 -2.350509194915784 -0.038787662291159 2.3989253814356424
Ni 3.0111502544727213 6.176765520671157 10.605507481141409 -0.0754042850729282 0.018248661797542767 0.0940201004019026
Ni 0.45680615907538363 3.2148671621090283 13.02236971761002 -0.6712487009501859 -0.4279043282574373 1.2782293359499213
Ni 2.1224330100363344 7.691030775128273 2.45088029701626 1.055875963686543 1.1165141461938901 -0.7050659066099471
Ni 3.7321343990607483 3.114142612275825 10.582094481100304 -0.33971574693564716 0.3171810561682408 -0.5111077976598101
Ni 1.8580310667241748 1.7851412719738013 11.368322802282922 1.3090440073379326 -0.02171322330737551 2.7497310676368643
Ni 2.388246452084946 3.931560350538241 6.701121304277338 1.3620159315492737 -0.5995367771271803 -1.0994893295011194
Ni 1.8134277066522966 6.143096570810993 0.7009625055110357 1.6924893339510465 0.6413105186298569 -0.699409222544802
Ni 6.729320226034173 0.8302633177632858 12.271164444075403 0.9934840317128826 -1.2793156270355646 1.0645138418671989
Ni 7.852835580283536 8.397495302713999 9.009414821934705 -0.32734796939891364 -1.483006389892433 -1.053433158573005
Ni 4.534289130986331 9.107074537511494 11.65706274780814 -0.6267452192211722 -0.04168323867139918 -0.09482716968423023
Ni 5.939709012879858 8.139492153673753 5.676999927052282 1.6128864374157386 2.1278889421442644 0.20034858585751303
Ni 5.730976579733359 6.987869154585845 8.07956650431811 0.5862367175841645 0.23678574563862448 0.8002419749931637
Ni 1.9556879593034897 9.23869208968984 0.5155630874772434 4.511423957166766 0.07449128634035558 -0.02142320287078246
Ni 8.944865102718447 5.6080726797547085 8.403385016441632 -3.270017446472149 2.378361184131046 -1.6668837175678
Ni 3.155076075632928 6.295284364575231 8.09822839961232 -0.9423866988164351 0.5829225656092671 -0.04732552455884108
Ni 4.073472433501109 1.575684269475924 8.0545011097562 0.7598584289697946 -1.1800484193021095 1.377511970302344
Ni 1.8710921350321426 8.699414882441047 11.298648401654185 0.8999948641137854 -0.45751392359375403 -0.0758359732937081
Ni 4.058011817341174 8.603884647957987 7.103456786113886 1.3293048144694979 0.8716502515328215 1.8501833183628265
Ni 7.53996277036162 4.855574473377501 3.026721908533258 -0.7430683539956493 0.1634486275073701 -0.14162433254342705
Ni 2.0129007080876713 1.4108776770078066 2.7478285781935265 1.4735719839524106 1.7637564569271493 0.7340718069239939
P 7.9544823092912225 6.986241226043138 0.3545449576177627 -0.40587203104774616 0.9355195393829566 0.4201825341331473
P 4.073942933079927 8.954453884134745 3.0615520513539445 -0.1060063262295013 -0.19808781484779434 -0.5551960462282761
P 0.7599678576905109 9.342870106431564 3.0076055106459125 -2.0474625212663966 -2.6208041280554477 -0.9566018139745525
P 8.53005385404998 2.456233641224043 5.728963782535178 0.3354927099932351 0.6873417498573066 -0.8543220446670191
P 2.9310806361495967 5.97346265266421 5.893420323316656 0.46335161332145364 -0.3024854018292791 -0.661197487361771
P 8.884979916326584 1.5583698849754481 0.7425828982532124 1.0381039844151025 1.6073328545873609 -0.02354513430979171
P 8.884434136815155 8.920681424367238 11.479342823899804 -2.5062635391026906 -2.036286192934603 -2.4840528073336055
P 1.8767287199863736 8.660523387256012 7.003330711744939 -0.4298444827029436 -0.5020462016781742 1.1406825159099774
Ni 5.209164316850265 2.966509254434538 0.2908788366105234 0.49316484002814426 -0.6548221799630464 0.5117557156564541
Ni 0.8480905468046726 5.650436461831417 6.641279403846726 0.655609194640716 1.2441632475041478 -1.7135860067203457
Ni 2.3372442977411527 1.3610988215689381 6.646389029272681 -0.12078245609741134 0.3504701572386738 -0.8053720971308775
Ni 4.741026645918645 0.8226195816058203 1.067242663623659 0.01699524900641589 -2.859376790391166 -2.129417720083965
Ni 4.899735563845291 6.6881985628455425 12.430869880109983 -1.316544943700668 -1.4167678304791729 -3.1161922009871557
Ni 4.879871071627625 4.917520447924584 7.234639596681407 0.06762824067193514 -0.20026528211508737 -0.38593595424545146
Ni 3.2860161084177775 5.286749697397234 3.626127079956584 1.035211750468972 1.7243851542183783 1.306863454746846
Ni 3.192904241769838 8.10484456468965 5.279154893195965 0.040034904434698794 -0.5883403941907287 -3.527968513334479
Ni 6.08993011840464 5.903339395437282 0.4213342548291911 0.27796247698725035 -0.5830220673016088 1.1914543471462062
Ni 1.2007243351332795 2.838683928861459 9.618874569357356 -0.026607832395515466 1.9736556625875754 -2.6377196728638634
Ni 8.826619148570089 1.7062667225808723 3.5683657286635015 0.6655768473763892 -1.6614250084460742 0.7069762362587825
Ni 9.921518718435784 0.5829677981377648 12.761836221834898 -0.6106645116092256 2.780765825455482 1.4563041980108984
Ni 6.61587336758975 8.427117956196334 10.926681785631976 0.2644698418174542 -1.2346902750167057 -0.5967422451011788
Ni 2.4883687624572635 2.2555185209005906 0.5818668291233324 -0.294197450788874 -0.9027464587169937 -2.181457105178708
Ni 5.159178441596716 4.155725169869947 12.176588382738183 -0.2188672134869908 2.4572809385564 -2.3359487806031063
Ni 4.725575439750286 3.984190433424742 4.941398301549562 -0.318033119755891 -1.8676650200873577 0.03756767384112884
Ni 2.8831084990933866 3.806821502202203 2.027887060672159 0.2591558858037085 -0.17874874819955022 -0.11226310577249052
Ni 1.0306481473824085 9.21693618916533 5.103128767771371 -0.9388262351586865 0.9821655213762698 -0.7864950577207165
Ni 5.24123356814245 3.9947013940155203 2.481069431991492 0.5514247521113019 1.8041991383232283 -0.018539967785716458
Ni 0.227869533015313 3.538994321956254 7.4183640362146095 -0.6065764575827811 0.33454371581640446 -0.5369329862530301
Ni 5.322027755816953 1.5076029804210633 5.720025231536808 -0.5882812588180191 -0.6696150220015048 -0.38379062576767453
Ni 7.551226530278506 3.920889420090665 0.8802473110185185 -0.6901167414992824 -1.473013026125147 -0.7042611513204645
Ni 6.904317839379472 2.6971200155869153 4.194131109489644 -1.0842411450927971 -0.12399196417364454 -0.11126423219433094
Ni 1.0845768091064454 8.264419201841319 9.097421768152477 0.5574863849243495 -0.7249551893347063 -1.13556524928807
P 6.609578083225175 2.2401990546143002 2.1800720314389244 -0.7487340369218589 -0.10209670676244997 -1.991736431348686
P 7.231155076800686 6.1536639913512285 6.578752832819381 0.023215775994830986 0.8859602403975904 -0.26476731845321494
P 5.684557091287246 9.444338045599297 8.516167529480766 0.37194812460679166 -0.35746844293337793 0.6057580754465438
P 6.645110211417456 2.799011404375586 12.107009964023526 1.8416439134332476 2.1103162233678234 0.6375613360000698
P 3.412599315102779 2.0855364330654833 4.848021073139169 -0.4906207334500518 0.8294479071331586 0.3084822428426623
P 5.603217124101315 6.313163348570288 2.647317635169106 0.06607040926651202 -0.8786940457534803 0.44481961595553715
P 5.598418028397378 5.90486381407265 10.434053670623761 0.2872680706588923 0.36976320114033095 0.04901936732149622
P 1.3617010610298244 5.1841431492487615 2.703866979547155 -0.6206146808434022 0.821988879751952 0.6961560057148268
Ni 9.246737632487616 5.419054178960654 1.2059449984598358 -1.76019470771782 0.26236102300456754 -0.2310431867278924
Ni 1.4220661569920816 6.804317858897648 4.310219352569547 -0.09361669431589684 -0.6720154039128813 1.5331871245118822
Ni -0.025689277003423584 8.78443415633333 1.0192488835868234 -2.2149045862038754 0.1965027297488616 2.756644764037562
Ni 7.948836314345415 7.808580389899983 2.6182021802327347 -0.7948966515208503 -0.611950834520817 0.7137647199355256
Ni 3.9243805269654897 7.548403532805603 0.6532472612248599 0.17861196551136982 0.3333738638780194 1.2133927990905102
Ni 6.14199560179656 0.5081442501184525 3.4876722278988646 0.8837385501559232 -1.6908541123404686 0.20471354769442807
Ni 9.205738299189477 7.970121715291108 6.641445019698469 -1.21251682424346 -0.6371682143267091 0.6031386355458258
Ni 4.330402843501651 1.8673375483931807 2.8661479302761816 -0.8024862909426502 1.3036480331333418 2.2894611785645282
Ni 7.236396442108711 0.28547561944738575 7.0953717213514915 0.19211051421843686 0.6313860604272933 -1.0702749127206923
Ni 5.043426135216089 6.3118835897159045 5.131995798930126 -0.43685999478882825 -1.6490939976845471 -0.9353115371372085
Ni 5.955395468837626 1.9281260939763736 10.299840842768658 -0.13592034018011429 -0.260818361107796 -1.811530896097951
Ni 6.0734061731965765 2.886223206305157 7.440344835537795 0.4700231118043583 -1.0320840034732677 1.5837470968476208
Ni 6.971157009546255 4.131917891181793 5.785127317258598 1.0132373030804098 2.4123308562082717 1.0230740866651735
Ni 3.729066741806859 4.921472644386649 0.0007255103505362485 0.4183637357568537 0.8983390736779173 1.5542442022924974
Ni 9.367938323990948 1.269182023851194 7.327520918535726 0.4740332614050158 -1.174480438296029 -0.3782005332744067
Ni 7.91400993552136 6.275749222062736 10.406935956899046 -0.0895864901105812 1.1648861097393743 0.5646088549017438
Ni 3.927259984387851 8.555790181011284 9.40410656761379 -0.9827293642995398 -0.3863205912783798 1.1397733738321467
Ni 9.109878715001244 0.6808166545452372 9.581261892027547 0.5972796056618875 2.051402222640435 1.500039691225636
Ni 0.33378087020539843 7.576586457576758 13.033842379339902 0.5885954476243281 -2.1237263261261425 -2.3973071291059296
Ni 0.7445429994985652 3.8707718049550484 4.526750786734521 -0.13768797360349835 0.03234473487929268 1.0308781560906246
Ni 7.213586622527648 0.27080167858323234 0.8676247483180085 -0.8681265546502791 0.88706735741884 1.3600508374031028
Ni 6.9577195415752335 4.628003237095157 9.086789418670365 -1.2326282502813546 -0.7176799958295317 -0.24517834057769386
Ni 5.982119844914447 8.300120709881973 13.344838836941493 1.320531696262558 0.18904858746366154 1.2911272749585119
Ni 0.4070404776247221 3.295774269682448 2.254388380912272 -0.29099848423560204 -0.5896843098131328 -1.987790045106428
P 3.6179912012396755 3.5718351925577 8.38297474471254 0.6874654199193644 0.9835094369986739 1.3610337701416626
P 7.904731683827083 9.188028695042794 4.857055606051618 -0.3474894773437951 -0.6537286897885516 0.15239596923763432
P 2.0958309638500054 0.905215782667194 9.469264172285879 0.6886077610539237 -1.9323920279520979 -0.9343633142913262
P 2.4702921686391033 3.874328781770907 12.57487474519943 -0.6275273488028354 -0.8881539056147996 -1.4911058790711158
P 2.706755846961093 7.1127209228208 12.624882263433605 -0.18359090678319995 -0.15144851772270043 0.20260215777838012
P 1.050042140021257 5.126986860414038 9.47068319901559 3.6121397459667604 -0.13396270223311124 0.6879295040399765
P 8.076247600289134 2.6929137493522886 8.677746494838196 -0.4232647726028968 -0.5345398034305052 0.9323462838612976
P 3.6529963699036814 1.1006208447441146 12.868201120618963 -0.7979760617771224 0.5852185607322954 1.019480198666328
