# total energy = -340897.8792416568 ev
CRYSTAL
PRIMVEC
9.00033766482357 0.00000000000000 0.00000000000000

0.00000000000000 9.00033766482357 0.00000000000000

0.00000000000000 0.00000000000000 13.17290394054663

PRIMCOORD
 96 1
Ni 6.07742389980229 2.1987284510166707 11.284330655726475 0.550103205086401 -1.1725294852172452 1.0736582273706285
Ni 4.606525741991204 0.3351599683006107 5.914936306613635 -0.4831102840056196 -0.7375705641058716 0.26342186016891406
Ni 2.730072376099645 1.3900661266577186 4.722090975619125 -0.07175923212117319 0.9246846535509816 0.2955195120344072
Ni 3.4761643541076106 4.214372036459151 4.899595631938768 -0.3206566734216671 0.676125569426513 -0.4223821128876274
Ni 5.114594794280213 4.57625760695404 2.5481530542326554 -0.20577772729288432 -0.024366344659506423 0.8449498594234998
Ni 7.189514602545996 6.020712773168578 2.5523949132998616 0.32644988306467654 -0.30282247345372365 -0.6969913571319287
Ni 5.0638958931013995 4.422702848741413 11.515199213160853 -0.5772458269394639 0.3358130694471313 -0.21521470433606804
Ni 5.582981358499385 7.868608068149366 12.312238501662833 0.21402376935176043 0.026201598096032293 0.2322055824671098
Ni 2.0062382327473167 6.524524665816618 0.3539418726109155 -0.26338380784212706 -0.276942006142536 -0.05314907321915363
Ni 2.618837204846503 1.5450339378589968 0.40313681739225277 0.4664179109516032 0.6081494584968559 0.8345096379267822
Ni 0.6017688659766114 -0.058745202910369505 4.576820128048249 0.010306524132330637 -0.17917889375843335 0.334704666874301
Ni 8.584215903019992 2.2998922445991052 1.3883578625988267 0.4767511745568112 0.3760225517864814 -0.028045336172990404
Ni 6.831643182579379 0.6524776675266823 4.889689860478195 0.21921045575902245 -0.2549680729746061 -1.0436609096775897
Ni 0.5690283382261823 7.359935993247367 2.2644876169465054 0.6995190086497888 -1.4176941989481842 0.7349521526464181
Ni 7.621494801548002 3.7427543510748458 3.6671254150344685 0.22480003403165802 0.23997468488956733 0.5029152345466887
Ni 7.662023321343527 3.671309671941628 12.485910814271852 0.18310496828571693 0.29740644464447485 0.2905855650678995
Ni 7.831913692131965 8.76089252828896 7.148170652172306 0.024285612020242046 -0.1112539477816858 -0.5138789326470441
Ni 6.788774575031946 0.7694217528607261 0.34279225450683 -0.08284891427643151 -0.020412759328397104 -0.2804626177012847
Ni 1.842603096526476 6.521599556126734 9.232941329839866 0.5458701408416599 -0.4929768923870542 -0.28380736580380156
Ni 0.1507133516615613 4.84951685401421 1.232112003471507 -0.38379782485652614 0.2604607206580611 0.6735369827637304
Ni 6.426817001837 1.8625568447802354 6.91605104782441 0.005062502124571926 0.6688182371318223 0.5404142599334112
Ni 3.4066547475384694 4.451296921002213 0.617505956108185 0.008316747395811484 -0.11652316660042512 -0.6228839364935531
Ni 6.1578149144177985 5.587967545478449 4.735184666624794 -0.7920776940148165 -0.11513914176870492 0.49946918497961723
Ni 5.33840618707509 2.8272850215163605 9.11856054062791 -0.7022472062142293 0.49552614117146915 -0.3580222585543189
P 0.2430379137780435 5.67469479769912 12.308866975232586 0.21881630564439736 -0.7580946522011525 0.4075465905366917
P 4.1080690501600285 6.147707535397062 12.501954815912427 -0.6553651969507099 0.48506509373914525 0.20943794975329091
P 2.3390617134310236 8.373445999273242 1.5187565524725841 0.9867801373301456 0.6977973979729918 -0.5147780474225457
P 6.185679959340504 7.670087623750098 5.7166975727783464 0.7495873860610897 0.07162450631552181 0.7406168071313631
P 4.747174016218314 1.113422752694791 12.71359055212738 -0.648928697296747 -0.7077534807444391 -0.7750227954150588
P 3.9739280199507214 6.103092862373208 8.155739535409591 -1.071647624698503 0.05060753774422252 0.03208891011474473
P 4.691254919285248 1.0306376483023323 3.7772382442004453 0.5850678940870441 -0.3493874656974564 -0.5822571641111263
P 0.02733762514477652 5.594978808396662 3.5312599201587562 1.2548006726133356 -0.4400013686312874 0.46971097988057814
Ni 1.4498103670314022 1.1179769234735022 2.648583320308242 0.11132311045672441 0.5199457076664143 -0.5864442056092803
Ni 1.7151043153975813 6.4027771003549105 4.771515429006899 -0.05252429515096115 -0.359120119604188 -0.2625361151298511
Ni 5.808763825208368 5.432162702888988 9.186084672742934 0.3064425867048142 1.5093180312037684 0.17402897412637772
Ni 8.382860352305913 2.2849606846744384 10.264299905176538 1.0271176606069279 0.8118757025773501 -0.44929436389743915
Ni 2.2723872131766925 5.1970018844973636 6.8838964420457085 -0.2076461479601908 -0.06963807201311233 0.8076056144470865
Ni 0.7709752111144921 8.967513276444828 9.004153650437186 -1.0184931521627105 0.5530882558566539 0.1628806708190421
Ni 1.3177664154613038 0.9760506013203512 11.36137894499176 0.9663707204358584 0.8834061065171689 -0.1769831716586952
Ni 4.203094613562461 6.78815355174394 1.6215188059963215 -0.46250392060917767 0.37139276632395396 0.06567960158599656
Ni 5.565727711497827 7.900577266975417 7.935027858852241 -0.6148548955414895 -0.08182150145318168 0.526611292612048
Ni 5.385657958988594 2.8541690296507674 4.828067249666732 -0.16826276106656182 -0.21444285916705005 -0.3900633461502637
Ni 0.7511996695433776 7.3827698495034735 6.962024771811872 -0.07611031000101731 -0.47523499502260086 -0.19912499786305707
Ni 5.035346822528137 4.428985084321533 7.126461838104617 0.17270022801262516 0.514624809674133 -0.6984417164252101
Ni 8.312990732236479 7.06985511538599 9.123157913026658 -0.7659357455121261 0.38757143296634544 0.8766253361499097
Ni 4.658367686033448 0.3671795690167024 10.406725746061344 -0.4871201764959611 -0.38326457806087544 -0.041591707398857404
Ni 8.079890991134034 7.270472638424466 4.674655596820471 -0.2858832744962238 -0.5279636928748842 0.13594348010856586
Ni 7.201719060205941 6.202294582379043 7.07251921528816 -0.010825886970910388 -0.3563620972430766 -0.3331072404801941
Ni 2.3757110877608882 5.342411337265853 2.590807453747413 -0.6180088677894389 -0.0621222232520414 0.693204893506303
Ni 2.4412965471768313 5.165194691746445 11.430563639376885 -0.4836234761966122 0.060421952731483035 -0.5859400122793522
Ni 1.1137467648450552 3.447786289946986 3.884227956251378 -0.11267139695450273 -0.0012279588698301432 -0.38526515343067197
Ni 3.630763151471088 2.7296043585492638 2.8089900354652024 -0.06411045732666379 -0.1731126329596954 -0.5002883384468029
Ni 1.143411877269228 3.2364223639247527 8.155054609725282 -0.8894235163558424 0.10427288847816235 -0.02004689134854612
Ni 3.5890015854370576 2.649384350346395 6.9291186378513085 0.15052934834254075 -0.9127750465975892 0.34011992435260135
Ni 4.1009857845417566 6.748831077174398 5.905228542578223 0.025432066919859428 0.6072323459992252 1.458551085063546
Ni 0.957914921243073 7.500521265111924 11.43298743026761 -0.1618234331991213 -0.015078234489361129 -0.40897818077689563
P 0.24682705586863113 5.463348872351901 7.985493651289613 0.42198539166984095 -0.021454313219034016 -0.25909700754131504
P 8.486157225877587 1.6421565799006388 8.022206027982028 -0.006802367633814092 -0.18241951218291808 0.18187623808493839
P 1.758872956695747 3.2079362957140405 10.461656605936106 -0.6963547519891943 -0.06470721037039824 -0.5359227998209609
P 4.0092453443295 6.136493114862924 3.922785402132797 0.10727490852927977 -1.0684761689490567 -2.1858009839697
P 6.861317295341059 4.008399312603811 10.36069982011634 0.7903617397649744 -0.03020711971099959 0.15976552222882806
P 6.3471910159096145 7.594241779575794 10.09534466945511 -0.2496147790824927 0.5969260789772107 -0.02735550919481741
P 2.3465859955871546 8.258052672091711 5.73918401600667 0.545490388904738 0.4984697971808254 0.48481415407060374
P 6.955244817567597 3.9083515608722856 1.49284548082272 0.2799810500791759 -0.07190347100852133 0.10004522355005996
Ni 5.167462776798294 2.977464653163737 0.5231842190988254 0.5184632095836168 -0.43843093882037404 -0.049579096479708165
Ni 1.5066744994027388 0.9307519026459388 6.758476738881008 -0.7411446546103753 1.1318831724507925 1.205388440728795
Ni 6.722901104815768 0.8885079185215154 9.23627325478508 0.1922400978177657 -1.34820833624222 -0.7287498804904481
Ni 2.7216210591802583 1.6160736018043844 9.23176858586266 0.3621751043804279 -0.44235675623734133 -0.34780495170168485
Ni 6.4242519056474094 1.953199243816597 2.545347649031619 -0.6321100830775114 -0.3549060815228404 0.4633462140048149
Ni 4.098114676876917 6.854621044235603 10.33808197196041 0.35374548555583596 0.28576397530954006 -0.04645597746969419
Ni 8.044411660680122 7.426106474601287 0.006700751274210219 -0.15247464499436966 -0.4717030706099425 1.3788715696540317
Ni 7.563415623613175 3.952201205208017 8.158176826806576 0.5754000319799768 -0.7166024464946369 0.04247976643076555
Ni 3.178712199827727 8.441992569729099 12.504483910751988 0.1756053174745621 -0.3278737599953966 -0.41520719240574294
Ni 0.06145340446632633 4.813821515460123 10.165371795430923 0.14695551494835335 -0.36577156348243456 0.5345043222068795
Ni 8.673868264930546 2.269408101461765 5.779282319669345 -0.04225633756604981 0.7993269193780622 0.6445534510471868
Ni 3.55239721279473 2.528257808172693 11.432144098643175 0.3303165651089343 0.14437412737442235 0.3590640695552719
Ni 1.1676677868514935 3.4133869999939552 12.66298075428989 -0.09217353411146707 -0.29609261092905775 -0.5122611945379629
Ni 2.95719589309722 8.443756635880536 7.999864490187574 1.4913473056579607 -0.7635232794158915 -0.5277616041664072
Ni 5.746193478857381 7.791061160186176 3.3991889675761358 -1.0104072898307825 0.5894377410199655 1.6874111480971907
Ni 3.032645722421202 8.19046913774914 3.634865505306931 0.8941944553819244 -0.10346376231330569 -0.6558022844881286
Ni 3.3034388770043623 4.117285395767539 9.118652344070487 0.13060484150447185 0.9248746580746007 0.22840420644314857
Ni 7.176491114172884 6.097017634555757 11.55695717905988 -0.0977163183065672 -1.3474889415776923 -2.178132154570533
Ni 0.535211370109876 9.076750372771343 0.4573602507389376 0.766049645382171 0.2675528516181521 -0.13264732585579736
Ni 4.63527281998963 0.25670312621542885 1.6186602988039922 -0.5913269876228783 0.24619675453987921 0.09400878754799294
Ni 5.965378698173488 5.550058123897558 0.4086207230354714 0.27997642209348556 0.37849209637289655 -0.1266967646993173
Ni 7.887904791765091 8.876582866608231 11.19521651399886 -0.34168186952308255 -1.0035642987670201 -0.7823702369190655
Ni -0.10673950266822847 4.904616920234109 5.757902917954423 -0.03762603788289004 -0.46858535091656717 -0.009302251237532368
Ni 7.907813538331314 8.832832225985081 2.3511392663321153 -0.4084793867636062 1.271032818201482 1.044093626339634
P 8.519386471954665 1.613391501227199 3.71595764621426 -0.5756142048733119 0.2361206012507998 -1.2535914827965828
P 1.8293455993781726 3.3363441109311758 1.7208024290734747 -0.3629564626311427 -0.9264638569385915 -0.7449578577088783
P 4.659987746784769 1.0274875301747652 8.038066422737453 0.05823651504439002 -0.07136970999223836 0.7920555825276294
P 8.504625918442636 1.4965671203820028 12.33675362096531 -0.5122640227514403 1.8322197919058705 1.2273590314626155
P 6.32627423154257 7.669700609237284 1.3807840785864047 0.03308521258974302 0.14590239109349065 -1.5288620147739669
P 1.782660848727631 3.18437341211984 5.97297678309718 -0.4586153841880489 -0.27288146291991716 -0.39818160438202393
P 6.824289906835886 3.8978301663262123 6.044650070803084 0.9475926684974068 0.3688494310768099 -0.5765110056559684
P 2.550020624265427 8.501385796939996 10.203296517585576 -0.16198412714670166 0.013381820623544694 0.6021783285150855
