# total energy = -340851.06965136575 ev
CRYSTAL
PRIMVEC
9.41798501653818 0.00000000000000 0.00000000000000
0.00000000000000 9.41798501653818 0.00000000000000
0.00000000000000 0.00000000000000 13.78417305621138
PRIMCOORD
 96 1
Ni 7.642967785199293 2.241527471866511 10.055871501040988 -3.6853753055231433 0.7235444250301087 -0.517454051592812
Ni 6.409795691708579 1.4148826921848268 0.19555032735488878 -0.7813088855340867 -0.3471043260902345 0.34330346428690556
Ni 9.348470652283206 3.499242833741015 8.908490656471404 -0.2881448168368908 -1.2853862587096767 0.2821114661586174
Ni 9.133109593905559 1.8455294650617329 4.077151100517626 -0.9636515217324823 -0.0028680655764144153 0.23227268825961933
Ni 2.940888187002174 3.3436765608463657 8.13226223301079 0.11371655038956544 0.23739946796322342 1.607501004734109
Ni 1.2508496509567053 6.133142388265044 0.6605953479082944 -1.0046009675616505 3.1603822652408087 6.0721280561519935
Ni 3.5895613079545816 8.36435716677766 9.630850090483973 0.0542271367746808 0.2767607433696653 0.8487365801594415
Ni 4.598039120132754 0.5659624948587287 11.194374953139901 0.11689032013185674 -0.01874025672198063 1.8658125402596513
Ni 5.838830363325113 8.895418493571672 1.4758302390071074 1.7128966939628048 -1.3560872247696645 0.5076802600354998
Ni 4.481209018712599 6.264843487681365 10.097416115582268 0.8066057124276624 -1.3941662910295731 -2.5322553351807615
Ni 8.76695718092589 6.669703818181134 11.800023894139251 0.28289796661565475 0.5723846421924207 2.168116936426376
Ni 6.979932237429817 5.464569065434298 9.668949606186118 -0.380112662695455 -1.381185562499189 -0.4449944509705046
Ni 5.987333147621204 8.949976879506936 9.659507134627564 0.3657551084222024 -1.160400306053879 0.5436175973620573
Ni 0.9157681116243745 2.57108159592085 12.498508736688692 -0.3212544549066661 -1.446482069714154 -0.6023184536373756
Ni 0.04391888850887629 8.2186421059818 4.004081665461739 0.6422440861877197 0.38754366505220356 0.5088989629339494
Ni 1.1384930923156371 4.925257583957169 12.987585629051352 -2.2437922157725034 -5.26696756081129 -4.252357031532438
Ni 7.934633356410965 6.441374194736535 3.9351467257322086 -0.30798730548411474 -1.0413839407179548 0.9958373624364075
Ni 3.6812077180246767 5.233979125638161 0.27314604590473174 -0.38415032309993846 1.0122446001498373 0.2716876997221321
Ni 5.959785542086825 2.850522622864617 11.755763132782205 0.5787818039680162 -2.9243449677324347 2.4313624189184253
Ni 8.01662633206303 7.048231463185478 1.650612968083755 0.9161809869553448 0.4939413131828525 0.054147946797313204
Ni 9.403688297154336 4.485701397461282 2.710450818559765 -1.1238849847366645 0.6176931363212329 3.3101909333672412
Ni 4.040588599934528 1.2628952535134468 6.989596031631125 -0.23674049422298585 -0.22511936504428973 1.6070382061650774
Ni 1.9772682364172454 0.09332846215503193 2.626670309393025 0.9204343629150601 -0.285417904824031 1.3049407838028364
Ni 9.087696071209228 2.466749160327744 1.3366700956307098 -1.2757916730427061 1.7400555137657838 -4.592973693015799
P 2.5582731365954645 1.3021965040758257 9.103481555529287 0.36344857177621276 0.19756202425131136 0.6325597690204202
P 4.175096258820676 8.46489415449714 6.734367701804736 0.5770594219602706 -0.32421739418973194 -0.863357672506726
P 7.258478555817766 2.0226346691895865 2.249411266940982 -1.917974052754555 -0.816156075120259 0.8682646228900401
P 2.962116324737041 3.8698216995757813 6.098076405466362 -1.0545263916371836 1.096445657578789 0.202050141929652
P 4.163992454743742 2.211163888877508 13.434454880742948 2.0783759230158014 -1.378071956570872 -1.4668560053848156
P 6.819223744835417 0.43425197745761046 11.75157212954706 -0.9809835852530266 0.7646666489917153 -0.1105371242203193
P 3.92440833946544 5.733725652978563 3.356376713346574 0.31904099219511506 -0.4898555731492531 0.23799442123474499
P 4.947662969791796 6.930374801422332 0.4134683686052123 0.9815895942681417 1.3660744178893633 -0.14841718709554438
Ni 8.914395732939798 0.4600101658803533 2.21605370658467 -0.6702323438705295 -2.0570213685994254 -0.11544201772110442
Ni 0.8964056766780064 4.585428438488128 7.253163045197732 0.7882431507600747 -0.2508005718604777 -1.0094001887225068
Ni 3.442216935788654 0.46446958168224317 4.827327494429797 -0.7400892167626674 -2.65970311911349 -0.8234448954721882
Ni 7.863584079094266 7.5649680351016135 9.677329729059446 1.2484035108377405 0.27535589260233867 0.43508079140121847
Ni 2.544692402516636 4.844959845568758 11.05170849402318 1.5909148182406536 0.5496000401977373 -0.40089514665844506
Ni 9.499921265821094 9.22385187743504 7.264134997487492 -1.039682898866448 -0.8655857905062962 -1.0407576199878656
Ni 3.825368811328854 5.7536070188873065 7.338362844673542 -0.19917204905090863 0.5768179953734259 -0.6520847264272253
Ni 2.6022645435872858 8.784568812498296 11.806571277170875 -0.7288211000480158 1.3863606789422251 -1.900056806154502
Ni 5.078412852743511 4.240833792711259 5.035730545638622 1.0775534486599765 6.179035811149842 0.2533948149502152
Ni 0.5998559385500513 6.828933687162236 6.630697350542935 0.4214544588670354 0.30257590466055634 -0.3596104289770452
Ni 1.0375228772954448 4.849810107739768 4.813088443213584 1.7641549779171488 1.3619226005045189 -0.1970012666518349
Ni 6.995245880711492 7.776354703894469 13.493175074160485 -1.0507628108296938 -0.34165513005020515 -0.00702116851283952
Ni 0.7713470819397704 7.722031767579156 10.269071131907472 0.9976314782223529 0.5870216753793052 0.06310129933585908
Ni 7.714101824379175 4.802936797399735 13.204851945753651 0.10598164363915295 0.16809126848570408 -0.2507743466082326
Ni 2.3818366093882744 7.914563630806261 0.008957445341451813 0.4694425567105399 0.6659928518678853 2.368477863579063
Ni 4.23156649566995 2.503243851420295 5.085643039672996 -2.1637699723115897 -2.990828039056333 -1.3872145423020883
Ni 5.758617386799884 6.832503103400707 2.9027952638893884 -0.47289889069025653 -0.18253829714896952 -0.4865753597360846
Ni 1.9480065576496177 6.607667552316196 3.005584091774089 -0.5776353490683988 2.701385329343625 0.9209354709211947
Ni 7.030732847430649 3.161156015459617 4.12259758616075 1.2347815491789316 0.6331608929395288 0.23291006473330214
Ni 7.042590090291429 9.031291760253541 3.5597901162093772 -0.43893641770188274 -0.5922669829386445 -2.2294853122315277
Ni 1.2060012073482589 1.812849057812403 7.402059501258382 -0.06635323061425347 0.80034250512677 -0.02875136110107952
Ni 6.225287951529438 9.330228015729329 7.27188128998391 -0.022847594022134845 0.20897746517710464 -0.7386254877329472
Ni 2.483626189085899 1.1792541305217177 0.43411353308107875 -1.7136250874883971 -3.88421079717024 -0.28977541046177835
Ni 0.34054491231369577 5.2569025006366825 10.40436236712882 0.09065786879788902 0.5962506501767408 -0.8475441025132371
P 6.76109594266168 5.338951984197536 5.674144655750483 1.2502899292271756 -0.07656693792246168 -0.5244983600341032
P 1.543805486085714 8.58381504854247 5.672711238464217 0.30441372920024345 0.3880506865956091 -1.1030824461690165
P 0.43536518326074325 0.48804750662423096 0.11001430582178641 1.49949616001734 2.756489726516937 0.8539592620109615
P 7.979086244657893 4.862401953414799 1.52192468200434 -3.8173158351199037 1.1263640424047763 -2.7052414698649216
P 9.0501088938801 3.4227405432262294 11.066526751304476 0.20519228710305953 -0.3348663892631458 0.45469676585993307
P 6.056997981172585 2.2210245189610958 6.993565712223514 -0.8895890953994292 0.7888270482880028 0.6598294033696507
P 1.746781894453887 6.658995569465719 12.131381562282423 0.12996900769268582 1.7469103319040882 -1.972775059754835
P 5.725004599055544 6.799050421397934 8.20046633711999 -2.5121115132430347 -0.8321077133535089 1.8629742994799077
Ni 3.3555149677375495 1.9795662247079764 2.396364792737789 0.9512516054062327 1.4053942985349084 1.2179333672733412
Ni 6.542551605422285 6.841403099034891 11.484062747543977 0.2894432239333402 3.5848274313050523 -0.6454050004142047
Ni 8.005776813575645 2.4203561672124128 12.677344966422433 1.0134237080596031 -0.6050142553019838 0.13291806301868078
Ni 2.417154052381066 8.927967049033828 7.824626584977017 -1.5151204968181584 -0.3825485258304573 -0.4588185013377904
Ni 5.463335309425749 3.9220632612507185 2.6340172793340053 -1.1408190414878419 0.8519656286197006 0.21939274697315767
Ni 7.488569342419606 7.14822220778667 7.2950532997811015 1.881825627858456 0.47352881096477156 -1.3850021080318018
Ni 4.340862209251643 9.270367304352746 13.702446463567691 -0.07227988051133358 0.05494524588762795 -1.8641076417534026
Ni 6.0848563802052995 1.1967527462765464 4.980111694615094 -0.09395736548476723 -0.6045506854020041 0.6063417158641558
Ni 9.283985710370766 0.9678768797136592 10.192913539636297 2.773007007445669 -1.9290902172723745 -0.14575146733792316
Ni 7.495086587899875 4.458436331470846 7.510444495710101 1.8506972818847673 -0.317941074262717 -0.6836061940742743
Ni 5.25265498949275 4.155064205155164 7.920689088118931 0.35869177381751777 -1.6806123800078023 1.011642190679148
Ni 3.027618409007672 2.534558650873904 11.340335823338991 0.4758739141581805 -1.1470853341125276 -0.30099081956162355
Ni 2.198816910807228 6.276559460770174 8.893534896612056 -0.6338247517757729 -0.02840760460841559 0.10533526830440568
Ni 8.63663110729009 9.104403576241019 12.614433769769754 -1.1486511359377507 -0.7759172822048701 -3.0566883891945675
Ni 5.921736883502591 7.290085312800115 5.4596622953545 -0.7857710350704983 0.5047515164244791 -0.36841182931875904
Ni 5.196081154810695 1.6309312634527318 9.26696176104976 -0.6484792684641542 2.217267687119414 -1.2201928527314791
Ni 4.006448405041496 6.9385684481966585 12.115488712935665 -0.03336520572400706 0.5472562225559091 1.6941016727434888
Ni 2.457792656784772 3.2411994682584813 0.070922134521925 0.1419187238553943 3.5597195804938306 1.6853797194894586
Ni 2.059016344464561 4.57100950376227 2.406151020741472 4.974744460139968 -0.9876178027400926 -1.5549484274483738
Ni 8.0986004717455 1.7729733101773415 6.517749342456547 0.6530977410727721 0.03337394747475543 -0.16160360387883138
Ni 3.165827335919464 7.014194866125225 5.381134196309647 -0.22304859855819004 0.16188076879961796 -0.8159012787969755
Ni 5.432077017880929 3.680915760495936 0.3909264219910131 1.3665325884727046 0.22586061408568844 -0.9773760704074265
Ni 1.8267876753135581 2.4128688692979408 4.691774439231063 0.9587797954624778 0.4474668237703971 0.31590990276530106
Ni 5.654925374173046 5.091974750852743 11.916113741954279 -2.176771269667264 -2.2413041592433274 1.021481288256757
P 4.772695648213107 3.6337410746423644 10.458189917443754 -2.476431800453238 2.3055938224603323 -3.6706863360524005
P 4.5548576598335675 0.1463545419636495 2.8559982392262193 -1.490500384276633 0.9904205622962103 1.8359916002434769
P 1.1793200564153044 2.73708299597177 2.5360532850613593 3.222054288329309 -2.5235727198050992 2.5252711905534446
P 9.045786038857782 6.151102485274978 8.50429711929534 1.332406593323273 -1.0742565230762597 -0.19361229557494397
P 7.920157913776319 9.456504355901956 8.663834956379338 0.48435984014200456 1.3942315970498698 1.0067668648647177
P 8.96127846126463 3.662974499455598 5.516426373329473 -1.1108014120798289 -1.4075517111975437 0.8823591533098932
P 0.7156905589770497 8.221768876934762 1.5503199061705444 -0.2599084476990169 -3.1087897378754974 0.7702372011009574
P 7.647403656039189 8.825188580932405 5.451336796792998 1.1270199308212203 -0.17834945587860251 2.0720042151615026
