# total energy = -340894.4376387524 ev
CRYSTAL
PRIMVEC
9.04372544639408 0.00000000000000 0.00000000000000
0.00000000000000 9.04372544639408 0.00000000000000
0.00000000000000 0.00000000000000 13.23640634458171
PRIMCOORD
 96 1
Ni 6.3390997511109335 1.820384329594824 11.331528215692297 0.2027847061028314 1.2670805184219534 0.8571919100156464
Ni 4.606882699230119 0.5679233380085698 6.096807498501272 0.26600221930158063 -0.8515311121854432 -0.38257706507554756
Ni 2.8821900267787908 1.5038358574904256 4.6818488511590095 -0.3399276058361371 0.9529235937920167 0.4977349758973299
Ni 3.907775604233082 4.33789517835128 5.269770578870009 -1.2235900513384863 -0.4607396296199032 -0.8462832335229427
Ni 4.906022000178556 4.728511760464679 2.4924678690951714 0.973484448662504 0.09627187255055678 0.19682746007813198
Ni 7.210562162414629 6.043252366162896 2.6591672396143284 0.17842530342186044 0.072058765639463 -1.9169512679169953
Ni 4.913645860586076 4.64073336293753 11.584912597352755 0.9570854384791904 -0.9426026714819831 -1.0122695398505017
Ni 5.594376105822639 7.7827315294401975 12.5411237582162 -1.4091599362249279 2.293890675090791 -1.112436890800723
Ni 1.7954326915588252 6.18352054519093 0.4294051198214085 1.0926977605005825 0.9212787131932263 -0.04396097896198235
Ni 2.625972245989416 1.3590910344508595 0.2929741934279075 -0.0008788030605275188 0.6366462803849682 0.5625280611133151
Ni 0.44766711427088024 0.09032239744723895 5.119947704088067 0.8853794281934558 0.22538393155958603 -1.367930754371812
Ni 8.854123575416537 2.078799735626225 1.5689642450642736 0.012010908417947056 0.4949224461491993 -0.21852602809748817
Ni 6.852385422865611 0.7371377685269335 4.97042960284792 -0.7530108099203419 0.23971937434565166 -0.47349744350620393
Ni 0.8003054764609826 7.433915045551658 2.490654602177369 0.13995954324649443 -0.010863167966749035 0.12382175714436738
Ni 7.8105409846633576 3.8189029159475574 3.754334334968283 0.12508853967193298 -0.18491785312473963 -0.6685747536624486
Ni 7.407905291658388 3.7443102698725594 12.668616770919602 0.7997640069154807 0.09039278806196045 -0.42309225158077457
Ni 8.078388996157443 8.867010883934588 6.932501071966555 -1.9268065634445202 0.5277896291908653 0.8386635121941556
Ni 6.954299162998874 0.7304426987052408 0.3696052951800762 -0.758685748817932 -0.7562869095684523 0.50586120454889
Ni 1.9254543298493498 6.365796828125167 9.011835291756581 -0.47253893624767646 1.2899006016402623 1.0113154034673486
Ni -0.048673329434485796 4.691649536240419 1.4073610137380435 0.12727552002092274 -0.05658226727041868 -0.056834235380224696
Ni 6.325145283010337 2.1550292959761466 7.1119611388498996 1.0509430451612998 0.03460422033743073 -0.5432231901371161
Ni 3.4984204233481755 4.2101796900060915 0.6004337216301026 -0.5387420144373108 0.7856507074425502 -1.4413231512210338
Ni 6.081652023684046 5.484241619413652 4.576434284971475 -0.8573793434361041 0.22009645790840157 1.4210744282743268
Ni 5.425385055318588 3.1689394240993485 9.42355359805606 -0.8992682703604061 -0.7326384169115769 -0.6225473790897407
P 0.2688545781172843 5.541533619035998 12.386271667808373 -1.0623695418306864 -0.6639369977801209 0.10453411255934901
P 3.956286146612603 6.1216976392053954 12.68116493973981 -0.5613255561647816 0.9161966706846286 0.041935721001837456
P 2.4705286959485493 8.355217426850421 1.271113674967642 -0.28540942018359877 -0.05624211032218056 1.092414682042525
P 6.359927450421157 7.878703542067244 5.823105483636147 -0.33359652141178675 -0.6348701623211517 0.602369104369653
P 4.703352116747336 1.0557554449744404 12.40739690568017 -0.7440957668188991 -1.0638556394579097 0.7695324617244489
P 4.059149477899827 6.098708489554251 8.029919150541662 -0.46988761466775847 0.3807618662436797 0.2213637546565994
P 4.78804660395543 1.0545164546116523 3.593181481160789 -0.09161509050483575 -0.24684467253652326 1.2297506716232434
P 0.1591804173248368 5.6200150669796 3.5536576885878546 1.2250118713866773 -0.32683811964203063 -0.2988069245364273
Ni 1.644827534540525 0.8505614578187377 2.715978113052001 -0.651220321544401 0.4489464936397171 -0.3419294667575144
Ni 1.9664043178982815 6.5448264136853815 4.8892241848512406 -0.9416570197392621 0.03773299577439953 -1.3039352253564573
Ni 5.92670587853335 5.802499355595181 9.16382866060472 0.07168698412234106 -0.5462054126938916 0.6400545347355686
Ni 8.50844526419871 2.3010673717301557 10.136333901297617 0.3468266469488156 1.0431088938288615 0.8008778088049497
Ni 2.252656310328669 5.38475159765431 6.8840565487815475 0.19818834498140064 -1.4348326584006836 0.2279259812551494
Ni 0.280630412798935 0.17472748544650613 9.065084746180634 -0.06647355824220164 -0.7188578181877169 0.3513774995442916
Ni 1.4205250602495332 1.0170121258928095 11.319615820758981 -0.8145805031030229 0.32968253106936124 0.7229929234020129
Ni 4.099638235959692 6.897269431409526 1.723526031890747 0.0957314266660545 -0.16548134166668274 -0.5843685540271742
Ni 5.5408372521897595 7.956624279043745 7.947800316292123 0.4289358548457451 0.2880697406245813 0.06423104206492809
Ni 5.770086644206627 2.937420057038249 4.64715621662842 -1.4503649497083277 -0.3471529199399827 0.29120417248850494
Ni 0.7016040675456926 7.406919525603323 6.851071369583034 1.0763013214204304 -0.7365650056594928 0.48258963561545926
Ni 5.293536584522347 4.439673262605406 7.077414108296252 0.0954069534471002 0.520894958953561 1.0403891809048533
Ni 8.31209694473529 7.032156593898444 9.268211337738284 -0.7188202800815621 0.7601381649937424 -0.0391779557510422
Ni 4.455463606936995 0.256413125255333 10.224382706210514 0.5850211000095086 -0.13268434974131987 0.5200284971882077
Ni 8.063186493968782 7.159347546177636 4.586017920646265 0.4960007668150426 0.5515746474256049 1.3106913131333686
Ni 7.270522060993343 6.254911712518286 7.071153137287799 0.22370243009210508 -0.4934132085935245 -0.896820580150862
Ni 2.310246752885117 5.1454817580318295 2.5742828341754427 -0.23168467696663322 0.6599805842355343 0.6585448802302722
Ni 2.3444501218782845 5.181557178157092 11.212506460454756 0.5736961619149926 -0.08639215154299959 1.6512704365105755
Ni 1.1358014573907604 3.35664194219908 3.7638121590573466 -0.19304793843104173 -0.9099000390426394 -0.11125703310547935
Ni 3.773747595645367 2.7232194238803533 2.4449494233784086 -0.2959838532653354 -1.3405166240249171 0.8908800462967109
Ni 1.0563251996668173 3.2048339697190946 8.203659965560577 -0.19880669529168987 1.2036588596321982 -0.3392691463165319
Ni 3.55580286022328 2.636146436924718 7.198552999620861 -0.11968562348880678 1.640574647359626 -0.4521040654320923
Ni 4.150852852196684 7.037836053371662 5.985291130870139 0.9080534727522038 -0.4067958284135962 -0.3583246202860861
Ni 0.6508018451812778 7.379091982929612 11.281203502022445 0.590672384758015 0.05659769388938639 0.10725125438019595
P 0.19459926299507466 5.5709438136329785 8.009508366966655 0.1677541968612595 -0.8129583941185677 -0.8939332313007379
P 8.46187912275349 1.7113350902189362 7.946860673235966 -0.6458914531323199 0.9800675011966605 -0.2146657738111335
P 1.6845656634024964 3.0937408484308704 10.372775768026347 -0.23527496542105286 1.1430330184200252 0.2283846660591228
P 3.8901041650441215 6.0240706248528735 3.944819607335385 0.47536792105603937 0.9467205503050985 -0.833069820156462
P 6.971681202979008 4.190717593212518 10.45456360193079 0.1868549222464524 0.11700987642885653 0.9714399074286494
P 6.2146942662166955 7.75099709744733 10.119179763194433 -0.03154640734771341 0.8455147307880341 0.4152205621421816
P 2.48962904373109 8.55344684117121 5.835944860410233 -0.6589953375041295 0.3728678082075836 -0.14242471695753534
P 6.8055479696621175 3.9724653711310522 1.6448745619119591 0.3919420512302153 0.6192746218757399 -0.37536537781845675
Ni 5.336991684472682 2.7302463984196685 0.4743017895807101 -0.15953386583399623 -0.16530933486519275 -0.556561559117235
Ni 1.683616072248535 1.1625437530313725 7.104310147266553 -0.8392443243982902 -0.4920258413276945 -0.9506471390530145
Ni 6.775106790383694 0.8122232976294638 9.285285891059038 -0.5150554694536484 -0.6010550135439197 -1.6197312282517136
Ni 2.6843585363701363 1.5624934596294215 9.32729851682788 0.7074547185570977 0.06762901200288353 -1.2214791756430705
Ni 6.508217413768846 1.9724003077561532 2.5548777128511064 -0.008404164903295203 -0.257289264908615 -0.06565491899564821
Ni 3.915453726992257 6.9400100770630715 10.319698144382533 0.446764912607366 -0.44832557222626657 0.07193535268772126
Ni 8.204747925711258 7.186786208664487 0.4155438020911527 -0.23046803095071275 -0.5898028376688681 0.05258111653082557
Ni 7.565519335765452 4.0124838554765745 8.334197096191822 0.8848880903793342 -0.19559590166387605 -0.6297963473426702
Ni 2.8662188079416855 8.179543063367536 12.286799733499581 0.7708560656318788 -0.187310007506 -0.2380383870988029
Ni 0.2824066004431069 4.882246046428414 10.196254911857645 -1.6216001631396524 -0.8389838716480519 -0.05726566649068847
Ni 8.662288074865755 2.512166007118444 5.8841515336204875 0.41709052547138487 -0.503071814729211 -0.14132299925292435
Ni 3.379160818135882 2.6842047930404473 11.683285719040533 0.688977999909149 0.47946857348797417 -0.5572146193202017
Ni 0.9927206798019458 3.23967039948157 12.623599819614133 -0.10274873852415209 0.5766817269058778 0.06927606068800328
Ni 3.1326107796663627 8.279431009039014 7.950619245460598 -0.2227457226057906 0.2949351002858469 0.5099101778072831
Ni 5.676990536217293 7.711656892497495 3.693896927695005 -0.6612170277457968 0.6419175560862364 -0.12630004348153084
Ni 3.220814232281476 8.312476781196876 3.736028930637487 0.6142218899431808 -0.18638723858141448 -0.46110652604101876
Ni 3.2982466080930832 4.365587065145854 9.114893967509762 0.36489121776001027 -0.7637652202233686 0.12306251038083967
Ni 7.278462451785516 6.4043864038771074 11.464262971565569 0.6533008582225136 -1.4905721180548328 -0.5722038936401823
Ni 0.6464680920291028 -0.16222543962520677 0.2688156900985983 -0.18869737477182988 0.6782117625315804 -0.23631394820852852
Ni 4.460853667201386 0.3239715618107949 1.5393017305320982 0.9735939776571749 -0.15761916530978662 -0.3590059626238269
Ni 6.167856813013203 5.835111028939803 0.24817338715652956 -0.7205629738042816 -1.9590201720625875 1.8772236103100703
Ni 7.839417599469064 8.954915893615597 11.234479095384899 0.41465749054986006 -0.70909096860894 0.40564345997670787
Ni 0.14405930866365874 4.892682505396715 5.644387002225419 -0.11313496685448256 0.3425655576796165 0.6804573640326474
Ni 7.771689140878417 8.791604302584766 2.8074942822356483 0.44655613903066965 -0.6633315029856383 -1.1977180686677307
P 8.454363787049282 1.4863091179058785 3.755168166438714 1.408174175272891 1.7155572715141036 -0.48401351254617936
P 1.8206194664519955 3.192208929234044 1.635781096147118 -0.4826513420913301 -0.8122559687349042 -0.8161830717034524
P 4.73515889854241 1.2269350769952407 8.184824598928618 0.18181761693286108 -1.1431744290938957 1.5657609446828455
P 8.548716972851956 1.5557016219472777 12.508429786971568 0.3387014467385199 0.6100541317187365 -0.4025637926101196
P 6.304380889777045 7.823591080236371 1.4512655868345874 -0.25275872402811306 -0.4010962069256576 -0.09977011551180237
P 1.9641433865793254 3.327611584063684 5.768995066565835 -0.3003400733515021 -0.19941244719648885 0.9485318924822245
P 7.074797758573956 4.119923311753366 5.932199941638413 0.3147372226134386 -0.04064425588392355 0.5231765558988861
P 2.0676849972622366 8.537719802916554 9.926629808346862 1.8267438563929637 -1.4923942588652361 0.8285390221656441
