# total energy = -340892.2230993252 ev
CRYSTAL
PRIMVEC
9.10150648727166 0.00000000000000 0.00000000000000

0.00000000000000 9.10150648727166 0.00000000000000

0.00000000000000 0.00000000000000 13.32097473849709

PRIMCOORD
 96 1
Ni 6.5321968405599415 1.8365202177522324 11.35209537707646 -1.5853224117545408 0.40819836518807767 1.2315483869536146
Ni 4.664012481122326 0.3825863833906095 6.0755369350305966 -0.05559882031122682 -0.1221615958331251 -0.6311402629650743
Ni 2.702783419054737 1.594684084172951 5.05240562576481 0.36834678040877855 -0.27530292787721616 -1.2738006107546063
Ni 3.35325899885142 4.0157121614184295 4.8910095182359985 0.8301055953218154 0.6191288403264951 -0.7291270613242088
Ni 5.067100008274454 4.457462888880851 2.8857491872274657 0.4518832076705379 -0.3145713864595357 -0.5232236070867375
Ni 7.417655119417627 6.561922361325811 2.7901050942941463 -0.5933159930284492 -0.12534282177458414 -0.3779953592421361
Ni 5.141950799082328 4.277180244872782 11.86942865648257 0.19544857745273436 0.7625935685127705 -0.32668822432772765
Ni 5.5337706609839525 7.952942030869897 12.310672430023788 0.6671225945969543 0.37838796669486446 0.7802675887537659
Ni 1.8232593225422287 6.375159444572702 0.8077760093265224 -0.4816339565704092 0.26601816014118057 -1.0053116204754298
Ni 2.523665767899709 1.3612395397382293 0.4507848829774867 1.3399792634642085 1.1034969079986154 -1.4658702444327787
Ni 0.46174127670006915 9.25868968447539 4.47723318165722 0.7162026399530569 -1.1901333143419375 2.118566636302074
Ni 8.690154969178135 2.375247498723639 1.4806130808469247 0.24940369151295116 0.7216428371320217 -0.15531468554632608
Ni 6.988892241965277 0.5464135033494769 4.942454874505749 -0.03782864081199937 0.27818024942501124 -1.1589352914725783
Ni 0.6609668865287156 7.613483136808459 2.8017340893592264 0.26369748242780394 -0.7872751304198506 -1.1907573210791815
Ni 7.592112799160491 3.9777861831479515 3.7112367285228745 0.39689810968391 0.17177463087456224 -0.42275055197063965
Ni 7.900280713309785 3.8414456133155164 12.670525070068106 -0.3828364893845213 -0.18189037915232545 -0.14116307663629235
Ni 8.451295028278107 8.924236619079364 7.089396539457376 -1.2457789287306997 -0.6347902010128358 -0.7676393584667941
Ni 6.74499006637318 0.7884635223353713 0.3151515002128739 0.14409747667426798 -0.43521448876560526 -0.2576829008026078
Ni 1.9414878941125446 6.479289782319891 9.090326373594996 0.7342006191923742 0.052569032345967534 0.8889753730748302
Ni 9.015743167083055 4.969641074912256 1.4029253504117631 -0.3661556862947307 -0.6574274787963774 0.23779850317385492
Ni 6.488718943224191 1.866018200851493 6.9249223023746715 -0.28937071882419196 0.07113214006013556 1.2698542245123485
Ni 3.4871330603778077 4.384851068712415 0.5390522047593251 -0.02967155892250374 0.36356555697005133 -1.0170438213106936
Ni 6.034617471218203 5.863882307701069 4.762407959520287 0.07378346164005357 0.3334345419126258 0.7589773119164219
Ni 5.507749453430486 2.9277544607849197 9.112266465560154 -0.655323287969181 0.5189854006356739 0.16712247681453155
P -0.06414195806656234 5.900852627771788 12.668127733212707 0.9044163902202488 -2.228053464881008 -0.2833291406158024
P 4.217729203341041 6.241403702632951 12.723342933542844 -0.39750591847123795 -1.1822873359349575 -0.2881587007939618
P 2.503105464344871 8.350250101290143 1.4724472090676413 -0.6648060306486357 0.41874554457630464 0.3340459502443795
P 6.508551126245878 7.874687276569544 5.970794065884894 -0.6445958742493479 -0.7292021375365183 0.12616326079335047
P 4.596888869472512 1.0422499341649858 12.587455618742295 0.2695464850094132 -0.8613889788161295 -0.9748314496087018
P 4.258576765250786 6.005046676065628 8.256672960520305 -1.0155860058182444 1.1323490563436178 -0.2310637555531827
P 4.696113495127598 1.12327154649131 3.8146343949835813 -0.23244083840636742 -0.007532560931619285 0.4047518014003739
P 0.12650548173090453 5.639866924170647 3.525076331510948 0.9265589877555591 -0.4749215775472402 0.680802406076892
Ni 1.4664165507518223 1.0446345289110537 2.4585190034973983 -0.6614949639975317 0.5856571909316107 0.8038433191911769
Ni 1.9629856528538137 6.447279783381261 4.574928754192691 -0.2401667462957154 -0.7305259985542645 1.147726310130636
Ni 6.140012918391741 5.507376291657246 9.360276151109886 -0.10923614602070864 0.6792893118664752 -0.7335318752601238
Ni 8.52246881039357 2.377277134709796 10.245268432826354 1.2606100802062612 0.23350398956355917 -0.5482913486886428
Ni 2.6263853721139183 5.319894355877651 6.84349112224845 -0.43067083525898087 -0.15700724275740055 0.8630326850671395
Ni 0.5805068371635836 0.34328334716181075 9.307644868521768 0.24016751762666383 -0.3516325529778912 -0.07974636409170782
Ni 1.5250393551771038 1.05337197530886 11.587969113639904 -0.4589079757278032 0.45695136622206467 -1.1613912092122385
Ni 4.125976914657411 6.712934559901229 1.658115214569025 0.6969353070830127 1.0349135025022627 -0.18306048820102666
Ni 5.351904354816281 7.986189834714882 8.06367915230476 0.30518428881768084 -0.4393202834038627 0.39992455521505965
Ni 5.6220279711084595 2.867957561999933 4.998402746122368 -0.8301829855269702 0.41272736340668276 -0.9367742377256639
Ni 0.7969497671492406 7.10929607362838 7.110456515728089 0.8558868180509775 0.3796758322683526 -0.5969451051406043
Ni 5.114373233889252 4.627861296651402 6.931769365838286 1.2008692127022027 -0.6619845020394406 -0.5880220916193615
Ni 8.50489380102465 7.288240796156785 9.340667865152142 -0.7987700184333275 -0.2569275106938221 -0.15831336316333383
Ni 4.5984270240987914 0.1886988072206228 10.419027116857395 -0.7063977380474931 0.07813016864452352 -0.30621992917104685
Ni 8.566055925809295 7.175236489411824 5.114655380595848 -0.8260594502769 -0.10654625789337134 -0.5387466424230012
Ni 7.410565045726073 6.302775162070875 7.22838746803048 -0.6848848036763817 -0.46558333086544973 -0.7301717005386392
Ni 2.5847732836443664 4.854534320127823 2.621874665411051 -0.7612982467401147 0.6175288428292268 0.7320421780884747
Ni 2.2929334724509727 5.707345494580372 11.674875760175418 0.8193046480515696 -0.8451576045589316 0.4809281887526363
Ni 0.9724231750358507 3.3666837211813827 3.8038045122036337 -0.08145949012807262 -0.45657289983672333 -0.48454238846645586
Ni 3.6049065566149046 2.4600007287823598 2.385480322666403 0.9249235090346652 0.4074591730292079 1.3013183565589008
Ni 1.3401149427702 3.5740342460093224 8.229151824668548 -1.1014942757462902 0.36016398748767003 1.1038311514095829
Ni 3.6107679269067665 2.7206860826635753 7.193632454681873 0.7662278228312482 0.6861235611794894 -0.9845826154581948
Ni 4.049569766209928 7.080289571888996 6.048694771576002 0.18106582636850108 -0.05445673628698363 -0.5622280133743931
Ni 0.7087461559140529 7.373148751828801 11.396587182254622 0.12961033880168646 1.3650290073439846 -0.3145104513146132
P 0.06905950211732768 5.38067421738239 8.160828634440369 0.8852087069435464 1.2104404013304055 0.761352754127134
P 8.410092507608452 1.7274477618862842 7.949212233438833 0.5569855340285311 0.44214078357179337 1.7988250184955084
P 1.9560685077888837 3.261497608661126 10.370432352474928 -1.8602959813167963 0.416302996573083 1.2406194960169472
P 3.982100297306868 6.198754042403659 3.8055092244018724 0.39240819223335643 -0.4947784643721672 0.9666579126589738
P 6.921932457435422 3.8402351129291534 10.538903061133965 0.12478154995447543 0.8440707992526559 0.2821135230411464
P 6.476905187573823 7.841330254644586 10.159241901985286 -0.3385068142292106 -1.2805407576919172 0.7428616373014819
P 2.1252109076397496 8.536084664363486 5.783580624551898 0.1713506559632662 -0.307226001838058 1.478677423499776
P 6.8898405449368125 3.770517571879991 1.557555397886273 -0.3915458442330611 0.5897020504249456 -0.5879986945805937
Ni 5.13609853029713 2.727311979515245 0.44757569172762574 0.8232638898096337 0.4120303373396581 0.3838047668350616
Ni 1.3718063889755763 1.2915311001957313 7.061102685689813 -0.22532633884877326 -0.05008560380248148 0.03970631745068645
Ni 6.6823170914822505 0.6292363038446823 9.244836281181536 1.597531552226223 0.7689868736336241 -0.9713954273439592
Ni 2.8314969263024206 1.7529956910932032 9.158849796969792 -0.47956653251841924 -1.466674999722261 0.2565503298600614
Ni 6.505301888366693 1.9096417222938735 2.586440679665281 -0.8781065486811265 -0.27188567466555114 0.7673485666992527
Ni 4.142141190493353 6.7929732095078 10.427925659923162 0.2853911653511537 0.5971600493648876 -0.08305871629439245
Ni 8.019446740066533 7.436467933692902 0.2866765264626899 -1.2732761057097037 0.6644977553795975 0.509684177839406
Ni 7.601032275691585 3.883458168078301 8.047373803115521 0.26942024384419405 -0.7404260312767957 0.14967574209299384
Ni 2.9767933786926073 8.263822194005177 12.596207627550765 0.9494063246673778 -0.593285654011146 -0.6141288160087424
Ni 9.410138755370701 4.94442990145192 10.35206278157421 -0.4262752772944465 -0.660773769560791 0.3489362370926507
Ni 8.544876719801277 2.3654633790594293 5.8065865029474555 0.7117703152133161 0.844534883373268 -0.7502106214673855
Ni 3.7649747543213827 2.4617755225819145 11.175405097748824 0.6573567734594421 0.06102693330533361 1.3857374435359295
Ni 1.3383310474639811 3.4763386734738515 12.501588364267853 -0.4032039972972798 -0.04995884841663009 0.4656995447283399
Ni 2.846250468605383 8.676502709181564 7.93280039662162 0.3719450392829981 -0.6213677569593428 0.16271226356197785
Ni 5.338170181259729 8.032662127743214 3.659058700966642 -0.12479234858775283 0.3977483734993472 0.3363149487842143
Ni 2.6984602033891556 8.51241164552943 3.695877936026731 2.164770645661962 0.3983181299598882 -0.2535521664636859
Ni 3.580742056420972 4.457198945187584 9.657040787559376 0.2617231323102525 0.11244051189061925 -0.2248352581449676
Ni 7.003900626454842 6.052456424280391 11.54618136609173 0.8824874513576415 0.07063206049526545 0.11352680297626255
Ni 0.763274192491029 8.91157642330921 0.24928844723607702 -1.0077577680230774 -0.3663050673884014 0.07418018285783999
Ni 4.545729300512023 0.39921301576510165 1.3491081415052752 0.0897978347904389 -1.352463254863832 1.3252280732969628
Ni 6.146757134830048 5.559709954977439 0.5617832176536179 0.005324497536706959 0.529160798506779 0.04104714774929705
Ni 8.035137737555926 9.018655649215658 11.48723636833053 0.02698475611895998 -0.5639635080082609 -0.4513587026256356
Ni 9.40413176097221 4.79704920403559 5.670592700518933 -0.6998576229361301 0.8441242781984107 0.6351758664870286
Ni 8.055825462204066 9.09751110295586 2.2552013562724462 -0.1495117057113038 -0.229850709081688 0.11646403122771555
P 8.547880217000523 1.642348674574317 3.629206669258137 -1.2437050769208065 2.027988985922817 -0.7285328793836356
P 1.7602586934113795 3.1423406834110423 1.5425424626433757 -0.6825983216350502 0.17457070556246065 -0.6497640487138487
P 4.758458815778612 1.166804052867047 8.14293871294086 0.11937529133723958 -1.592089298164729 0.51392701227616
P 8.652511137614253 1.5829067345492411 12.735837481891705 0.2109063067687013 0.28946225009673376 -1.01957172993887
P 6.202385543562747 7.995737315205819 1.5757511300097045 0.4338795720042657 -0.345905677796443 -0.6210386557546982
P 1.7812922753127653 3.3086616161959506 6.170502055566753 -0.13090386080212937 -0.7784467334949432 -1.5888908458320894
P 7.190499716087992 4.250958804172699 5.871898914771057 -1.060754889045399 0.0006656586084569182 0.6400900159591943
P 2.430630166776401 8.472419625246136 10.317694582258838 -0.15976577933914418 -0.09412371585930242 -0.695196470015035
