# total energy = -340889.75122959603 ev
CRYSTAL
PRIMVEC
9.12141676539522 0.00000000000000 0.00000000000000

0.00000000000000 9.12141676539522 0.00000000000000

0.00000000000000 0.00000000000000 13.35011544309153

PRIMCOORD
 96 1
Ni 6.591701420868117 1.7647843885596595 11.769381630110384 0.6749387482072634 0.7954630655472816 -0.4848828025250101
Ni 4.475386744208576 0.6065559847963337 6.230685771274812 0.22875901867940604 -0.265071222846879 -0.33627303980268536
Ni 2.353827252798849 1.6425574013379254 4.832261270503474 1.043639312411035 -0.673778152240259 -0.15497761392188147
Ni 3.435025290361612 4.739752771868838 4.959567974828475 -0.6604585523132174 -0.9216047290740772 1.0326753572003635
Ni 4.912904629960643 4.636242932242552 2.8098251293054854 1.7863983626963815 -0.3550446639832337 -0.41854191320593076
Ni 7.2541716916099155 6.100522239158926 2.72756180619678 -0.502356019609109 -0.533669742120726 0.25355242357400204
Ni 5.4800013650016615 4.599109643811233 11.307427468330927 -0.46110678315133496 0.28042507959512997 0.5788129143162677
Ni 5.710928278098128 7.662884142612263 12.702902102858424 -0.3844655403475121 0.4569279691832969 -0.6350131156569192
Ni 2.020184063351343 6.125861535465044 0.18904136643062971 0.4786679319635498 0.04280372542908757 0.37089114409718704
Ni 2.795513626100194 1.6472914167385284 0.2852066411232638 -0.1567503895515881 -0.6454052575245207 0.38735314630795226
Ni 0.4472814504626746 0.2452621319858446 5.0155716506601165 -0.1890799549222292 -0.7527475289566262 0.5839232389596395
Ni 8.749801308606967 2.1008721177516008 1.4193572405456039 0.11599634756267764 -0.20430757050526105 0.32291821576233415
Ni 6.807495903233175 1.2335895506607861 4.968059101873603 -0.26479688613956975 -0.5007758196061827 0.24421263423031492
Ni 0.9427166853239296 7.141120849846769 2.1902729496290383 -0.949138672828288 -0.4217575919297511 -0.21785574150334092
Ni 7.382254628517945 3.491231461649696 3.69338942566427 -0.47933410479263905 0.5006932871947055 0.01104983005625839
Ni 7.701823471601037 3.758935927916164 12.882407940002365 0.13956513602155318 -0.0578207676632101 -0.6504181373580799
Ni 8.010537828505484 8.946723579288314 7.297399910851799 -0.5698371931802186 0.7638703783426651 -0.2929265544962504
Ni 7.202964056814183 0.3125234606256257 0.45525083245787074 -1.1928507132731005 0.12892334003699088 0.8153448920728733
Ni 1.901359364654512 6.489952014714501 9.114457315707751 -0.45029426591686317 0.45728689518461246 1.4010679032454127
Ni 8.78178099645767 4.503289158679568 1.689096694935144 0.364918728563836 1.0740626618978986 -1.1545813853792568
Ni 6.469957868745096 1.7736230415908432 7.245521851909738 -0.3523522047527351 0.7850233582711964 0.23249071780769637
Ni 3.6655599825289333 4.05796334001244 0.6113739172329395 -0.4226603062496786 0.6112993169797472 -0.030773533737430872
Ni 6.19796633650891 5.7347260549385375 5.094190967694562 -0.7107778693930598 0.1616200589390636 -0.7716723908855871
Ni 5.629054439493479 3.225004664930237 9.248426302978032 0.4829588460294198 -0.5563463577826354 0.4559080125592148
P 0.10108445485746109 5.593699827368745 12.86937799587951 -0.7540125117119788 -1.105609069245612 -0.546842017836626
P 4.1868580830296285 5.800810720790887 12.627754397117751 0.005211626107926508 1.131528617324851 0.3452230499071216
P 2.484336486617399 8.245003851381206 1.2887704746829205 0.41827349003589254 0.5865977004680091 -0.6168796392810022
P 6.3737816483521135 8.05387368046746 6.000142869832229 -0.12376802108829653 0.178608365966944 -0.0679300881830701
P 4.730102312728496 0.7969080988436621 12.370190210082209 -0.5087765784234721 -1.4194271224788908 -0.050601624206951565
P 4.147553897362581 6.542454890718106 8.170778320894874 -0.05120223390542795 -0.8543778376056188 0.05805473805088712
P 4.458703672594505 1.0504497410012357 3.531092053751112 0.37252790836966165 0.6545717545151372 0.6213929537703233
P 9.170946250921498 5.671469028342812 3.624355805709774 0.36925360849376404 -0.31489791656101895 -0.6053662393247639
Ni 1.596667552628034 0.8479296567334748 2.509621054421776 -0.48897085655145467 0.7018651402844622 -0.08059405680398378
Ni 1.4141662421554628 7.037410339047431 4.636936159931272 1.408383977290852 0.24895426268035836 0.2801558850941433
Ni 6.1815842716544145 5.921003632031244 9.328046239452643 -0.9903927943820686 -0.25424507876565244 -0.8077138578901768
Ni -0.2341422125737539 2.5328715462447757 10.476570367715581 0.3448708087740254 -1.7365184471468027 0.29391411522050026
Ni 2.5133152282892985 5.53035158660345 7.08614789413125 -0.49244441692235186 -0.9361564016360071 -0.8414765561629185
Ni 0.6265309757901303 9.029920023351703 9.355053842920169 -0.9593855473672767 0.4143672130029509 0.01454550191434269
Ni 1.6171633765300668 1.3526970132832787 11.62975280361838 -0.9692786381112726 -0.9150155058923338 0.7027614268464865
Ni 4.097969874785166 6.6681662592173545 1.454628847776031 0.8107472453998618 0.4753558368711813 -0.032794163711885455
Ni 5.709824586646349 8.264122341322755 8.097419325019441 -0.6978156528054369 0.315229845979141 0.4429121145201791
Ni 4.909283427428775 2.8507346843569388 4.952506173820485 -0.40857323202899315 -0.6364441916764909 -0.32001724006545534
Ni 0.5245562706376811 7.4981787166224985 6.94657288399929 1.7909607852560832 -1.1182414132976417 0.07915089659955402
Ni 5.187194759269954 4.75646320773378 7.207366964779252 -0.29166054329963315 -0.13601624232803028 -0.007070276583220083
Ni 8.326321283551486 7.147268684875682 9.140704193001074 0.7179512472130474 0.021880859233491347 0.7867727368621353
Ni 5.034912703175413 0.7078785086363684 10.20251921953054 -1.1699655811448109 -1.0173374412917124 0.1717949425895364
Ni 8.135647183485583 7.314281829355529 4.852927664902599 -0.2419032693708479 0.21511931640878437 0.338177713024566
Ni 7.31977292236355 6.428747306934066 7.203602556001162 -0.007782729269212402 -0.7110910297581045 -0.821802474772759
Ni 2.513525020879306 5.280096390975429 2.6609179974849773 -1.027577630962482 -0.3965355841381687 0.03659065463984021
Ni 2.572595317091839 5.270117560824639 11.285547013334845 0.38884155792802066 0.17562151542447818 0.33376390022758645
Ni 0.7678718922449348 3.5351419628799516 3.5406376165964515 0.8494243502550856 -0.9844548316310788 1.120952384470902
Ni 3.3818018224184163 2.904350373229279 3.0136021448298997 -0.4487780863826528 -0.56286179030365 -0.49728888949884675
Ni 1.0876833650190803 3.3954292193519446 8.330832736378342 0.05332442245475332 -0.3007182826265273 -0.08177882114070432
Ni 3.2023470652094317 2.7436218850326983 6.973619709559729 1.3833545451260498 0.7001597275575813 0.5763199726910848
Ni 3.8409192235242946 7.271110162898778 5.705425327248062 1.096265680357499 -0.3010568969128686 1.054492195965139
Ni 0.6489623643704056 7.148427104829201 11.405070412570572 1.3750498819150965 0.18203718914283487 -0.2577343228658336
P 0.3118028686860349 5.419672313249083 8.00533041156482 -0.46584146962284284 1.3019382495310867 -0.051777132572291475
P 8.570072908889278 1.7640181895352844 8.186544690104782 1.246297263128015 0.4658823501631073 -0.6555608579012839
P 1.9904208798211545 3.288161355939437 10.65319201281777 0.0850898877918083 0.1694261852470437 -0.9176714554579422
P 4.1767241887905735 6.328211049235712 3.8617078449106415 0.37409216753298796 0.8933261938443583 -1.5663764667796571
P 7.351068503942488 3.928867925822202 10.522668184732089 -1.0139448706703957 1.2497759657052347 -0.37111225896905764
P 6.5150906398475685 7.994921962675364 10.244625504486732 -0.5228479689148737 -0.19221567233773346 -0.04261526356736532
P 2.4203406252481687 8.770014368583338 6.084141998587822 -1.228403927787362 -0.3554125888456137 -1.244268148513128
P 6.565085126188041 3.614817539998 1.4669509699430339 0.6655596209852086 0.15113895690208162 0.9057973297281756
Ni 5.163789203358687 2.2773076859478696 0.3986706830745561 1.1523057019712026 1.7896037570075565 0.8695589162214314
Ni 1.471010912630526 1.0271080350086672 7.3075465750745945 -1.4104889394489966 1.177507655158127 0.20160894062717538
Ni 7.183325646106094 0.9666968905034773 9.50389438839689 0.5094283530748581 -0.9036712845241082 0.3651853519616614
Ni 2.661957839018058 1.468639344221746 9.57504964993555 0.5601924710016031 0.7206035972342298 -1.4182135617867637
Ni 6.345368434531539 1.5594339286101895 2.4856444978090106 0.16577470453738546 -0.09932737154742895 0.09262913359164691
Ni 4.108733146794244 7.333756054558395 10.301389906492576 0.8157675814325887 -0.4700444519605969 0.15697896062262642
Ni 8.1228133498273 7.274585422759336 0.12712427598586457 -0.3807209857034153 -0.7874000860334891 1.887406207270027
Ni 7.636276969349144 3.9264233860777673 7.8641929027081545 0.4006249237161939 0.42782231006659227 0.3957506263430281
Ni 3.229601859076487 8.15048772887437 12.579747467532176 -0.15931609339623531 0.2796244380707055 -0.6617297057161572
Ni 0.31699477921787156 4.8200942124247375 10.364976216240443 -0.3546685115907376 1.0181841055627239 -0.18589152989191857
Ni 8.708691082382465 2.6564941102609074 5.934994061359653 0.04220980059883053 -0.9549647925917617 -0.06940538717701596
Ni 3.9982636660298847 2.7232537609680616 11.583548266023477 -0.6247032490904789 0.17770385187480364 -0.5350041446614334
Ni 1.09598385444981 3.5916491409276117 12.778116394942877 0.26873221663823393 -0.20651897633428304 0.36737284653128344
Ni 2.9696323543894243 8.48918418331597 8.276003899050743 1.0599647890439357 -0.07534540681053475 -0.41168323841288457
Ni 5.95580183772161 8.380265343434273 3.8369705621236756 -1.160218529060376 -0.5349190411467949 0.12427889928644403
Ni 3.2990523277859114 8.37056015579219 3.2476157454245618 0.3037802093813026 -0.7771221011462487 1.5730721336322777
Ni 3.6711514111234798 4.532003379259718 9.229575982695014 -0.4935793018577435 -0.02778102676801022 -0.15165831974066138
Ni 7.464621023638262 6.274759545868595 11.317013165410877 -0.08100774730263469 -1.3937315174849996 0.8013650328540134
Ni 0.8034144055589802 8.917325252436399 13.461455555540242 -0.24231824542107944 -0.019077842567057465 0.323441692365972
Ni 4.563891852940851 0.1465994133304261 1.1520386102164104 0.37596367352408805 -1.3315951531655712 1.266352124896361
Ni 6.0809750426204054 5.497386785721409 0.40671303640540707 0.21926856269046752 -0.2237435677426856 0.48136964716542907
Ni 8.035712939306379 8.687511152208668 11.618018100703399 -0.11531551944556914 1.081435814433518 -1.1172245419973532
Ni 9.166203114103936 5.0773728991095295 5.702982611787019 -0.03355598157857447 -0.14250185005237392 0.796437513645409
Ni 8.349079218858817 8.613864831699095 2.779907793828727 -0.8246211751684767 -0.19998374631892657 -0.8299140481362997
P 8.455863647172611 1.3862638276844714 3.6415642709405587 0.6375227694526504 1.9611518736936098 -0.836066698001257
P 1.773340277665181 3.0488336178257165 1.5495080026777497 -0.603033220316213 0.6762199289125322 0.33430871698746295
P 4.508962680026726 1.575141008609878 8.30215682574941 -0.003586688909993823 -0.28790673268415573 -0.509709888871019
P 8.613873953116052 1.4323087404826291 12.627700580757708 1.0049663213208693 1.2365872349291027 -0.5712970655551968
P 6.404247180987978 7.75305847064764 1.7864057953141668 -0.18766224863909614 0.6120385091386169 -2.46789702350935
P 1.6398757047526127 3.4391299279921927 5.7883298859688335 -0.3877197856187516 1.116586137082406 -0.32157944234625263
P 6.638594625443261 3.6716804533069767 5.846843775747 0.878483472404571 0.18356031065558065 0.41949579247876784
P 2.301442955215683 8.547068695324112 10.528689232065302 0.20579418235311656 -0.1778151806416873 0.4108771975718214
