# total energy = -340889.2883596027 ev
CRYSTAL
PRIMVEC
9.11201069606916 0.00000000000000 0.00000000000000

0.00000000000000 9.11201069606916 0.00000000000000

0.00000000000000 0.00000000000000 13.33634870985284

PRIMCOORD
 96 1
Ni 6.791108776978602 2.0533096328863523 11.544329999403956 -0.05352573983228201 0.1077384784292596 0.4903901054964845
Ni 4.416974354709512 0.39329352273045753 6.299531283012379 1.4629404723804933 -0.16025068939536272 -0.9497629366758481
Ni 2.567801100491724 1.4997185268010085 4.784108205542474 0.4938325555191302 -0.2711549671471137 0.5509560400049996
Ni 3.6095590748888857 4.715174021196475 4.791923577233053 -0.42577031263357 -0.5385779780556209 0.7018581983059268
Ni 4.783058501894632 4.678334161402831 2.5506304272799647 0.7216196972035701 0.48839647210522347 0.6943243518227269
Ni 7.183836443836395 6.198399808391622 2.6217660734429673 0.2603056831374356 -0.8592377368010816 0.1341244246219561
Ni 5.093204014582304 4.397192179193311 11.748389837181533 0.42645011230941393 1.0082794448545023 -0.0428651747946423
Ni 5.581507563056602 7.786450168197723 12.20741376124947 0.1124795926586708 0.2140595076857023 1.3184172210227165
Ni 1.6861138203797326 6.70258559174604 0.4698253017081512 0.13906042847099276 -0.8103775207652688 -0.9481415990223412
Ni 2.7806030014614893 1.6883735990660604 0.41637151256458116 0.5547903261494251 -0.5199968726193238 0.06677103487796242
Ni 0.8084030217948112 -0.031443726978952896 4.787789457918589 -0.794633884777767 0.07084854738144572 -0.4295063826372345
Ni 8.583851348114017 2.5236442960000103 1.349411352122291 0.21731863805294835 -0.14127183430001478 1.7320532122865977
Ni 7.033670505325573 0.8343285150139246 5.013707187279889 -0.6349997459204806 -1.221104308802155 -1.0423810145239016
Ni 0.8540086360088077 7.428466598642222 2.596280690347038 0.40607951907286194 1.0274102521466821 -0.5196739420622662
Ni 7.722556748243967 3.9629046309309155 3.8138357785242625 0.18322041081765866 0.020479350900274407 -0.2699761163476641
Ni 7.5234319755329855 4.06097720351538 13.082451095856293 -0.45318649986299375 -0.8854660743699911 -1.235002406940486
Ni 7.896514147037055 8.731347467451071 7.204349402621319 0.2631719489416371 -0.7399524340744869 -1.235692233918659
Ni 6.621133326919083 0.6836368134780985 0.24002767813460046 1.0100709895372861 -0.12671579086271081 0.5502890958449619
Ni 1.9763495893995562 6.376812980481543 9.489225300383707 -0.6184462124371736 0.29529634028000756 -1.2608893020095768
Ni 9.016416726329169 5.040272343659406 1.4454601471009758 0.852842631908015 -0.5293428326105981 1.3608594493473272
Ni 6.358024014146027 2.1364111716738945 6.812820876389014 0.5368332274503722 -0.9553846537379999 2.5096957047126907
Ni 3.3346223720559354 4.6580599373017035 0.6726076355670851 0.24747999212767705 -1.46504466320769 -1.8376211654270997
Ni 5.978144282561308 5.619049047684308 4.8415749242564425 -0.2586979723306835 1.2330499111998054 -0.6025285127656527
Ni 5.896382209366065 2.650611054932643 9.426345136034467 -1.5547861908388965 -0.33488001610990065 -1.190010415610828
P 0.08403916470215156 5.384624345010284 12.661383252908916 1.14784560931732 0.6242329943222797 -0.1520920648439703
P 3.893516668445484 6.251477271487832 12.575883432870398 1.3546548631985122 0.7887476012003191 0.11793778755976463
P 2.5222319343210557 8.661977728987305 1.3438375350963767 -0.33386700146435405 -0.1594636747176931 -0.5943763159721633
P 6.221516979872324 7.909671890678417 5.804512182554921 0.7089960949022885 -0.7087207297537148 0.6117176354640884
P 4.784361519443603 0.963895841838001 12.524951848325117 -0.3811246488997372 0.34335462923981513 0.5510959080169735
P 3.9245795133716608 6.026374155894912 8.485758729105722 0.7124002354878312 -0.14712700752921112 -0.698287964456165
P 4.860765730269649 0.984297634090776 3.8831718025479516 0.19753374211653724 -0.11582794030561344 0.4841500381240436
P 0.04115439692258049 5.907116158126123 3.74203313316836 -0.0392723152370614 -2.0198241907238375 -0.8014527074718132
Ni 1.408024361798921 1.031707426449502 2.391874596157847 -0.8725102855402715 0.9274766144738219 1.062003159630203
Ni 2.1173670690350823 6.703943281360003 4.619511575477065 -0.26684785513132747 0.6908325366193844 1.3993900013223577
Ni 6.184321751656233 5.795384681304539 9.222031984355763 -0.9949467323013381 -0.9312646207613445 0.39155510020444184
Ni 8.754437302899277 2.3809866544147296 10.0471519012229 -0.9765260637023052 0.9930106916208897 -1.2640862116803198
Ni 2.365341331816242 5.3391645229695985 7.0856554383230295 0.12248761171397614 -1.1682807372432202 -0.052586258737148145
Ni 0.47783749283270005 8.858587586708664 9.165819078332273 0.2887032604435221 0.5836013368438465 0.22935808571598565
Ni 1.0698685278137812 1.1322493539694296 11.261479515163444 2.092183518322855 -0.34705418957858936 0.6893091579963225
Ni 3.849605888246234 6.89336376253494 1.3740839438520092 1.428108966523605 1.2334196358343983 0.5607773969707955
Ni 5.550945878726184 7.915376009459228 8.169394269025231 0.4852712962126804 0.4177651829409063 -0.2025571634730576
Ni 4.68657141919493 2.6092060777121837 5.313308281032808 -0.12496255561702994 0.9945227573900419 -0.7966650562751828
Ni 0.9237847701556808 7.409058015570131 7.031817122322351 -0.5795914443535051 0.4028453284062804 -0.28743082148900173
Ni 4.987058200400716 4.60556564289874 7.090550410541963 -0.22333733344320245 0.20663698996938606 0.25590549718721084
Ni 8.427179433869169 6.8728344021305166 9.366784477231313 0.2686494271164405 0.26384609219052624 -1.149815588559497
Ni 4.864018718136662 0.20565352847208684 10.533141910146961 0.2560571922737268 1.4880704346789018 -1.381408991363905
Ni 8.193966628635797 7.562048677438863 4.593998856348641 -1.457217196743471 0.16259219304434577 0.834059180652925
Ni 7.21688570712394 6.03678918427585 7.000235803979835 0.22482857327674827 1.6065188433264979 -0.7599522742351816
Ni 2.4574546493165994 5.339583675467869 2.691769096659556 -1.7371342263539309 -0.2680279914823578 0.15167348924931298
Ni 2.538569769742773 5.169726681549165 11.471781080360916 -1.3193034802824117 -1.052027022254098 0.1942535287033687
Ni 1.1992955296710455 3.3036141991947505 3.871435532596378 -0.44278484491369546 0.2929520084175471 -0.10701934087504796
Ni 3.6947017041027888 2.5319726739004285 2.9102851396220486 -0.5810402609848897 1.2267609928673 -0.6415360043771016
Ni 1.354491298161113 3.256423095095992 8.336898541747122 -0.7314490245891662 0.2770571915641616 -1.3283038840088093
Ni 3.804911475115434 2.68663083375141 7.686004827992614 -0.5035276713197069 -0.504703436795363 -1.8819464697070365
Ni 4.150083557441189 6.839393322377197 6.312987900609027 0.6425166231228161 0.5091110789447554 -1.0955516850096099
Ni 0.7722055587648209 7.10141830586125 11.453310123203435 -0.031478787334571594 1.2986528939115958 0.3922575255881051
P 0.2400495469605972 5.466431978259686 7.924191879939157 0.0829216764958959 0.028214771871319152 1.1828028421187953
P 8.496549172332937 1.735017982514901 7.606652881662426 0.052132201918865057 -0.7977634315456842 2.49096341841051
P 1.7133040607023229 3.2925886660880703 10.449789791061542 0.4749611725359239 -0.5131204572144646 0.7588179035204221
P 4.137946359013008 6.590380290361193 3.6520392693875174 0.26695224191967576 -0.906318235228652 0.46879875247895386
P 6.8705199513791975 4.100769354818581 10.514897842059197 1.5948069542062082 0.9292496472138447 0.8407268224810875
P 6.617151378185514 7.705653968150669 10.16408451382737 -0.772493858345618 1.2761398004107443 0.35960502966040647
P 2.5402828277791825 8.632272573675092 5.9823531203645945 -0.914042086235471 -1.367837166216741 -1.1085658378810908
P 6.613142093419448 4.009621910466412 1.766772429063224 1.1440010387602493 -0.34643275394450657 -0.11260454827230928
Ni 5.155967545192895 2.833698688579363 0.2689810925531767 0.11063096948570625 0.42950689685786675 0.9154518220988039
Ni 1.4100381161927857 0.8613674959567046 7.275591659311057 -0.248999514095997 1.1640271041731889 -0.6115307162642629
Ni 7.202716530280231 0.6882310893395763 9.134851909519833 -0.8918745489994963 -0.21385304810185105 0.06310798420407841
Ni 2.8047953902203626 1.4124345750415934 9.403792909225348 -0.11580222927400056 -0.33729890996403844 0.25069824195465856
Ni 6.436341747246786 1.8272133081127466 2.6474254959457872 0.5809441017266576 0.5068317959922755 -0.27787531659008274
Ni 4.21771290183605 7.093089927960832 10.313132408609112 -0.5896961368876747 -0.7855928576214213 0.5874505353866077
Ni 8.29212120931775 7.148363385667545 0.3536116267583229 0.1753014130808981 -0.13400923920033048 -0.6092277791626992
Ni 7.537336904062568 4.078472264312757 8.164899314081822 1.2904811567340806 -1.475965938105884 0.7369041341664664
Ni 2.9717000926295083 8.556077939098179 12.402231286440182 0.6512352339427365 -0.32258860033705733 -0.20174109532966544
Ni 0.032261074350580364 4.953872256950691 10.510002869840266 0.353491717673817 -1.995252414921744 -0.39904523793389984
Ni 8.682680217597534 2.6616365880393236 5.778532928471899 0.5081080916015379 0.5850113298174957 -1.164527440848375
Ni 3.618160813114263 2.6064086903867696 11.555105863413841 -0.6773846386445946 -0.5105526964872884 0.023271054712798632
Ni 1.203286590415447 3.076178408828846 12.880138941756288 -0.553230437861473 1.9696185164037239 -0.5572678411556402
Ni 3.116936433280236 8.215206725885114 8.020760059535263 -0.2403873469469537 0.3503719410979127 1.6940011426098824
Ni 5.877939499442163 8.059774045113414 3.243679947947485 -1.125115771819972 0.8093598781340319 1.3335311938460195
Ni 3.197969545608921 8.636573442787778 3.44243203941544 0.19374419316711794 -0.5051878326309494 0.6800950955972223
Ni 3.701344359999293 4.001904037291736 9.506029670760022 -0.27229190896503425 1.2427900213057048 0.4953302231105791
Ni 7.351798139502049 6.169942998563388 11.546771107105842 -0.674390074792645 -0.7962832474557319 0.2732457882378714
Ni 0.6927524691143986 8.961926901554005 0.17110260579943312 -0.22253309237435223 0.6034502532489735 -0.32210214761894207
Ni 4.471491515517172 0.6088918998245535 1.6551876556160352 0.9901210287779205 -1.070714314250956 -0.7375245413592847
Ni 6.002564471590981 5.834967256358605 0.42398915362010586 -0.8563745563206735 -0.3887045181295241 -0.2810272319555031
Ni 8.138018882127518 9.040208186611437 11.219043058316805 -0.4476133766505904 -0.7481514249455116 0.9992078215705372
Ni 0.3157247969200859 5.338490234168033 5.766703716009839 -0.32173216587403297 -1.1707963045762222 -0.5815010026713922
Ni 8.09022638531385 8.805747035894086 2.1108109772414823 0.37889190291447644 1.1416140265853112 0.9711946241870629
P 8.537990597596725 1.4629515630940202 3.5219698707666 0.3900234940512638 0.6824849359856375 0.268074528449577
P 1.8468405794448042 3.374532979499952 1.7270568186510111 -0.3377848484615215 -0.48526718244762235 -0.22763956036298216
P 4.8922203916616 0.9512392587923985 8.321801762200717 0.10966989112401758 -0.031127317532423805 1.1296270294267643
P 8.69253030130689 1.636015984825576 12.786677957853883 -1.5688637519778852 -0.955775204308199 -1.122512786979486
P 6.430865428736773 7.805421374749879 1.1843554767109516 -1.082796956447103 0.34502430363275416 -0.5739632995334502
P 2.1670548641018006 3.2295335511308565 6.006211098325934 0.2880746257205878 0.8412832092051898 0.3782740668248195
P 6.758569786297646 4.007635492105043 6.0455403594788715 0.8842802815920061 0.9472921065378526 -1.6785752949731154
P 2.3315813316838025 8.561836729943984 10.239234911962939 -0.03513001093391369 -0.8101646334235144 0.38998955548953484
