# total energy = -381166.35209339735 ev
CRYSTAL
PRIMVEC
9.23432818958923 0.00000000000000 0.00000000000000
0.00000000000000 9.23432818958923 0.00000000000000
0.00000000000000 0.00000000000000 13.51537272565596
PRIMCOORD
 96 1
Ni 2.379141507196431 7.802693215636251 3.0037376034486023 0.8415716869798862 -0.7783009519456984 0.4324227849530811
Ni 1.413341607511752 7.928261608146981 10.627313481778529 -0.22194585241231454 0.3286453480540985 -0.2984950497229633
Ni 0.33239148419637 1.62475231336119 6.91170707132767 1.1988735224284126 -0.41042416919480285 0.1358486064019144
Ni 3.707241032691228 2.6628015955288773 0.7280648949287588 -1.3053786426712035 0.1525067837838857 0.2602863998637259
Ni 1.2953361296551098 2.754129099715605 1.752376267290724 0.03887636535022337 -0.13742932062547297 -0.8710108181766096
Ni 6.520876142212624 8.512896149862442 12.561227403751445 -0.7982097750544833 -0.5394398118352839 0.8140595976025465
Ni 4.210862814626086 4.506121218960407 4.884915201492299 0.2999721484891221 -0.42630818741491094 0.02622653779669677
Ni 0.657960646846415 0.9405163095468363 11.102892456361086 -0.8247145062132313 -0.7040212673955166 -1.3415926306979153
Ni 6.170516502541377 1.6396749874527727 8.944082015888148 0.5523452070430424 0.6564275767769534 -0.5921037178879028
Ni 6.376654407087416 4.309494672282147 8.610319233979773 -0.30975751001066004 -0.031993007966828774 -0.17175123383579452
Ni 8.898789483781467 4.579026238733331 9.90701096298924 1.0429728824716296 1.624654890805576 -1.0248368349925512
Ni 2.247284537299334 9.192551926975419 8.868854562616441 -1.6152654791708763 1.2602773794571909 0.08188063682589124
Ni 8.273597773371556 4.371632465575624 12.362943295192345 -0.14530923759418202 -1.1594759944673967 0.189317524854332
Ni 4.520268209497725 8.170948983023765 1.8393885699904486 0.35894297059637537 0.11815041779120297 0.3554565547096717
Ni 0.4161773126834717 4.286141056701942 3.5541100178855993 -1.5084266297377507 0.8704518603493461 -2.187936028034832
Ni 3.9429287869235683 4.743461917909576 12.855957604522624 1.0224053427329232 -1.9898978354780503 2.2622817899362584
Ni 8.382147299328581 8.792142229397998 8.909495763695936 -0.19543520771629566 -0.6539850287737318 3.005330346437566
Ni 5.0398469102631855 5.729106388524212 1.7019365207418116 0.5965285864284758 0.7369031057252019 0.1720782781579101
Ni 2.531877292762505 0.8377594775611287 2.4895582142805095 1.090207132868245 0.16821236744460064 0.44786971563577055
Ni 1.47742784401892 1.0164963605527408 4.792321670933074 0.016333961273333163 -0.9455748667364295 0.07608125653529478
Ni 2.151579961627823 4.205423795418201 6.06288763908864 -0.5077149699281772 -1.3045546041080114 -0.2693114861804717
Ni 8.030374807469208 0.6742749341716618 5.411568320959222 -0.24799781230436002 1.349002035788109 -1.2972986938765463
Ni 0.6654293713546278 2.1898654856276383 12.977852581344226 -0.6086757633139711 0.9308362749746745 1.3229649882943988
Ni 8.49729936982489 8.263495418510052 6.869309501057446 1.7814420471323709 -1.4129456285196051 -1.7536795323071215
P 1.3043765367935127 4.620239044717696 12.131709257367412 1.016374820268127 -1.6209558446874341 -0.7174773929004225
Ni 6.214361092013427 5.184234863292881 3.801563229457102 -0.12164660386991952 1.27863454180814 -0.056375036355619045
P 6.380394309938338 8.910535549031772 7.5622423950075985 0.6269138835885526 -0.8920753521563927 0.426790012147336
Ni 7.785064883432765 7.039863845984359 3.3374320513295777 0.9837431502760348 0.02366983281311407 1.3250534953923117
P 5.1354683769824545 6.1984041731828246 9.462328203119318 0.7799729403314826 -1.1263103063487054 0.03544060019579703
P 2.567808063115443 9.134569581294079 6.699110677759569 0.37266803349195177 -5.011346427633717 -0.4781688808399442
P 4.2890498700304365 8.41158633707856 13.184949009139462 0.6347323511917069 -0.9729915681864855 1.5120552276292734
Ni 0.5313903297447585 6.77035074818923 8.759002072974809 -0.679268743041185 0.12560044631134495 0.4935515339436017
Ni 5.065047391448786 2.8398513667899627 6.459077248757737 -1.0821279554045362 -0.22652370159098406 -0.5709383966641973
Ni 1.7893634447699471 7.979992313754064 12.96691821352749 -1.0284003839740934 0.6399110671791689 -0.3711935058289542
Ni 4.452663694012281 7.670651559178615 6.7191537867421065 1.5365264732977602 -0.29325205615646915 1.1299916118550346
Ni 0.2515523297826742 6.316437354023548 11.69310822593605 0.7271766224660573 0.5544044035649162 -0.15400188027217346
Ni 7.338936027793819 2.6933302839860387 6.935900087325527 0.7495444486382962 -0.26156938034120764 0.5273777384644273
Ni 2.027507530257462 6.119145935727346 7.108883060523534 0.9090757433691311 1.0958075097741578 0.8611989742925104
Ni 4.404017253966206 0.34677579696398025 8.140416600835392 -0.3709716196261353 0.7053960362558561 0.2971760738012237
Ni 7.5012293428678065 6.650036688325845 10.778212559500039 -0.5928153992429468 0.06557598612859673 -0.11062762705159658
Ni 6.585313283184817 5.833934480286369 13.3089789626009 1.296386209364606 -0.35171817071316197 0.10331309566805434
Ni 4.281533127016484 4.858937189886828 7.452970744598864 -1.3273713448922106 1.5924150569352638 0.9786456811484695
Ni 0.5769007919928746 4.71870468446927 0.5651981280842963 1.4826202101976078 0.15916979762635816 0.9207542081483239
Ni 7.844497018614342 2.7564284473943204 10.418176267489331 1.015538954630393 -2.8433606174685675 -0.5487806296202354
Ni 6.548763812854072 4.367984906004971 10.86379169448998 -2.6025145857176404 1.6830942658893917 1.3322338151908346
Ni 1.8637274883711321 2.604135909573541 9.314903079601553 -1.9319942782930466 -1.1848707803914176 1.0982094343474311
Ni 3.742950179171519 8.466087341093735 11.179834724347403 0.2416366459730226 0.15670693790816237 -2.0063181858176025
Ni 5.409690982071339 1.053258220428106 0.7095002018633394 0.18567195768194475 -0.7621361692603776 -0.20859128548227945
Ni 2.8573134810889615 7.256473478512982 5.330503848941667 -1.1516811810133263 1.3164194738663975 -0.8130301278967674
Ni 0.2914704829776577 8.302113378318838 2.2300228079185205 -0.7190007715234843 2.8392807909722393 -0.6376384690949083
Ni 6.9639392009466174 6.74472548791439 7.886314673084472 -0.4624712675990293 -0.5442542025047917 0.6213531016713234
Ni 3.173081327971181 7.115409883572997 9.063395074593409 0.936048415303233 -0.35510997000353034 -0.2803062946290785
Ni 2.9392589080002884 5.961238926466169 11.45692735858707 -2.0910877141555146 1.893322829864778 -1.3383712955471403
Ni 0.4193372997343006 6.308929845337622 4.965047929811931 -0.153177070378033 2.4427665469903093 -2.1564518413836216
Ni 6.635612667947719 7.751470398070651 5.498674813804821 -0.6713458886496826 -0.5674910615455452 -0.770282452516596
Ni 2.3315662492014844 5.5445768115612815 4.055314252742997 0.6767683452168345 -0.8361345751247149 -1.7065851499224804
P 3.9913536030969965 2.14945606618162 4.273871405052508 1.5355625667225943 -1.181684926464268 1.3498381585361592
Ni 2.92831622928833 0.808265957275791 12.807666686105588 0.16291718048393233 0.9534049043038096 0.119424142297304
P 1.3329290790529023 0.5832734017642862 0.7557567978160347 -0.8569486836565886 -0.16151695770229602 0.34922857152208886
Ni 6.993876892410052 0.6253431533895536 10.86965733965271 1.835374792595084 1.2889032707239996 0.2531539025840027
P 6.623072450487095 2.108113979604878 2.20623610235385 0.3728043019594999 -0.017366516302905574 0.9003489050190946
P 7.922757948642906 4.760323800886822 5.100403786598446 0.7660349900941518 0.9249229948140327 -1.2490992513531842
P 0.9419660990470705 3.856163040782164 7.916237589623064 -0.29958802567682596 1.274966091817617 -0.7706742886383761
Ni 5.943804515151251 3.797718978699474 0.693708577504419 0.5097805942079543 -1.1980114315384336 -1.3637725092290645
Ni 6.601344076639636 9.002297066635768 3.0946551034709326 -0.25133150466328325 1.495088774978264 0.2864710286788937
Ni 4.867109570190696 3.370446620891599 2.667163892088818 0.32939508173592946 -0.41020331143324834 1.6402092936004073
Ni 3.0533120934613875 4.575674177659541 1.9405912645692174 -1.844589626325133 0.28892103288128307 -0.2057702710937166
Ni 6.770433857141473 2.990684880782481 4.545408667551149 -0.4843197309326885 -1.6151446373222957 -0.8077357122670477
Ni 2.6818612485765425 1.7844046106194644 6.700043344890293 0.9432865849228851 4.1441367283707535 -0.17403025967795835
Ni 7.585243259257174 5.26769472000063 1.928833194692477 0.35795103899675124 -0.10987249405312692 -1.0292840721306273
Ni 9.173039791854434 3.0799531298191947 5.265399989485928 0.1656032119565277 -1.2433086128133362 0.7396978948615196
Ni 4.779789764367673 2.385153054741988 12.202921624812992 1.357211825292411 -0.24792839251900528 -1.0464965793541718
Ni 6.229994809363087 4.85128193195247 6.2844856556174316 0.5669022789216108 1.2967009123915474 -0.03473226127486276
Ni 7.8826901993338865 0.7632495315771177 1.0265091424323838 0.564327576215899 -1.8817582649556301 -0.2807395255117552
Ni 2.176946660717908 2.9709880591009554 3.7828988056489914 0.8511001952956117 0.7412878650564588 1.0180360100206338
Ni 7.456156587768169 1.9169541551185838 12.686056126587216 -0.6922178470026853 1.4023231158087526 -0.2624823790737802
Ni 2.215980165287908 5.06384692880528 9.41336225532351 -0.8121937480384013 -0.7986124098095407 -0.4624622687379648
Ni 2.9818845661727793 6.67427679939664 0.774656696988833 0.27605960353758263 -0.596090984670425 0.19019247126011762
Ni 9.030267846229458 6.8961777018847155 0.45401127804276814 -1.076720668346036 0.6760690051569647 -1.6997280177913305
Ni 4.105979316895768 3.900136910846592 10.326825677482537 1.2457087376143965 1.1743976487742354 0.429587372386815
Ni 5.804689363424957 0.80646803360894 5.870361134054354 -0.6840947036749186 0.10715149557753804 -0.21282640660954957
Ni 3.8686386179465995 2.801658186070417 8.37109750241151 1.498686519631851 -0.6282290028555503 0.4216580902374093
Ni 5.165055163980865 6.4405097853939095 11.832789441970398 -0.43232431170200386 1.198596614617942 -2.036710682066531
Ni 4.326375023915447 8.99656254893102 4.2486118241675355 -0.20307626920132124 0.6133669981420533 -0.2930800493549791
Ni 8.29881672321321 3.183405306705333 1.2462861494742563 -0.8533411688109884 -1.0286616080552802 -0.13005925341364696
Ni 6.165040546021385 8.239929413385227 9.778831102512484 -2.6151513006450444 -1.1465276618368447 -1.4402846826541904
Ni 8.792576242815265 1.3376478206746838 3.0857485940889204 0.26373784874743605 0.8030035968987009 0.7319359915279137
Ni 2.510675275612583 2.8778413922929147 11.691905916426938 -0.4800848669157345 0.487433851081638 -0.02302679991247647
P 4.891599008118219 6.904377785172664 4.335623203434458 -0.3093721016467833 -0.4659006049955524 -0.08867477692958922
Ni 9.078794240011183 5.50173876384417 6.8003272238303785 -1.9658443940732726 -1.7064573660953644 3.188923310103295
P 3.5390839193201145 1.420304290844087 10.255519119891082 0.5188488750578096 -0.16407751934062065 0.020799710354170633
Ni 0.7116000880566723 6.16560384003103 2.3252795186807234 1.299671050763465 -0.769304661984359 1.020817686530829
P 0.11513914243707102 8.64468847946335 4.3756964933402935 -0.4690337513078955 -1.6540441426009707 -0.20981075971167737
P 8.630476848629844 8.473641021419795 12.080891826802196 0.6964478259236327 -0.3353047623521451 -0.6509850656051434
P 8.829375040002738 1.5364259657832275 8.761543360047833 -0.9747854268621147 1.5751704109222033 2.7613336848727994
Ni 6.932062300597519 7.59202125602897 1.21475923015738 -0.5495583883265246 0.4903679940092974 0.538714246523169
