# total energy = -340856.19375563157 ev
CRYSTAL
PRIMVEC
9.42753981236417 0.00000000000000 0.00000000000000

0.00000000000000 9.42753981236417 0.00000000000000

0.00000000000000 0.00000000000000 13.79815746572270

PRIMCOORD
 96 1
Ni 6.445005476855946 3.8993623731112685 10.27173431370539 -0.33948409054081535 -1.472801424334973 -3.214086953853116
Ni 2.0503578821763226 4.136710110628494 4.641755663967248 3.0628744634006217 -2.212939492057705 2.2477648272670065
Ni 6.806664751825591 0.4640857219441295 8.106707381601776 1.348973496543019 -0.5962190256078571 0.32649821980410865
Ni 7.288883403478197 6.084845180686161 4.836984925470333 1.5436340308768188 -0.4178495151245965 -0.5006513782131764
Ni 7.894715954651215 2.1760552679531395 9.261267990950934 -0.2610417899725117 0.3355937543474736 0.9191876349921524
Ni 2.370601975587611 4.922259849610966 0.6306929731555768 -1.8662252023170374 -0.14425817062184834 0.23128589886631779
Ni 5.320431985535655 0.4641168328248813 6.278644284428626 -1.2547402516890456 0.5167770801304454 -4.182784779760255
Ni 1.4577050313945144 8.180568383522353 6.719689099537195 -0.4532921722029225 1.0999292452520153 0.31814187741961336
Ni 5.8762608665549 0.37833376429863685 13.390780175078222 -0.4203501700592631 0.8044788958926467 -1.3926596245770595
Ni 9.335479697345441 8.69313428521738 3.740363146374575 -3.7709251636705057 1.5411140926684426 1.0310455349064243
Ni 2.1969184131360766 2.374401274055177 1.3202797863282376 0.3635676138525803 -0.40313791994603476 -0.03172484190710665
Ni 2.757187665317167 2.6753377663211175 9.364477866467988 -1.2508712556519423 -1.318135942336872 -0.7345531174357866
Ni 2.824773696865506 0.1384688737024046 8.634527985158758 -0.5438384551236117 0.04417052386962715 -0.26405332310532587
Ni 5.048192923878327 7.676015890505816 13.113713270380593 -1.0195629881881216 -1.8289817445845467 -0.6171778872477112
Ni 5.362459957169425 8.257515961915091 4.131430688440313 1.0130850937732616 -0.30597824547388597 0.3699048689245178
Ni 1.6569277986813742 7.648412054493326 4.234778206035842 1.0939167205093485 -0.8919236570698769 1.067637475097845
Ni 0.26623466167223436 2.6876029953690166 13.602016456105078 0.12580099235792527 -1.027897733306062 0.5368059737568626
Ni 4.577589001039718 5.770823263425228 10.259440802038625 1.0415052967871676 -0.4323417952035006 0.45773606690688906
Ni 6.705940918506794 0.9598460915094209 3.6896137578367227 1.9936040806850441 0.5843230455012196 1.5385147073723826
Ni 7.32038081335447 0.3596248119192703 11.048887885900731 -0.6456870504309976 0.1069758892316222 -0.09010431028726416
Ni 1.1704573266593572 2.1544379196004626 11.40449468043321 -0.31375711808835643 -0.3862174900416123 0.2221803370206238
Ni 7.590706084468582 2.3657185100635436 1.0729350857961073 -2.621586514747427 -0.6663633478334265 0.5604637223851187
Ni 5.472422779317538 5.199599210203663 3.4321674485998854 -0.7945631794408317 0.351852125187865 0.9901572813324948
Ni 1.5082649263859693 4.650181056127208 10.390839963778678 0.04102375071052935 -0.36577516302686036 -0.010446135033988462
P 4.982237856684551 1.766230693055965 0.6899422314164008 -1.3462478700817393 1.854055656834039 0.670259340453723
P 0.32367760334153056 7.061943669703386 10.90918211899995 -0.5713934819237451 -0.6486502468243797 0.1608294447169682
P 6.476154067766214 6.996412841792591 9.026864474057582 -0.6046746125743779 0.3190037111992764 -0.07370221478015694
P 7.167239859738733 8.27903903487155 13.302362109227696 1.742632787574657 -2.0827496266034644 -1.3312951054266493
P 9.32707975954246 5.6792912812376395 0.5902827673208998 1.045837091393302 -1.455825972822899 0.1644863247432651
P 2.5972306005549037 4.851232766100687 8.737241029337744 1.0120193715129089 2.0435896685745516 -0.5626537880579019
P 6.668909542872552 3.2027426153807816 3.2663964201528874 0.14063960003265455 -0.8729674276823481 1.1665992357757393
P 3.8489627462933838 5.530977227908239 5.388180170765489 -1.0964626268596536 -0.2721810944187829 -0.8629861480999202
Ni 3.521044635629989 1.32185418544507 12.176073748450209 0.1360452957937528 -0.43051888306214886 -0.03980993290808627
Ni 1.9407250239149703 5.88632005133131 6.739792385026617 2.1060487063407214 -0.9718438277352875 -1.7311263295969543
Ni 9.181150873737362 7.2052139893351494 2.055732522514683 2.5261651631226236 -2.13735368710159 -0.573233106235645
Ni 9.043989599780495 1.3217221998903654 5.451044890471254 -1.0107775286860077 -1.8933284862917328 -0.7065568893331766
Ni 5.294364838481512 5.258568470537719 8.033562872692452 -0.3685812650170878 1.3424637204489591 1.1687646188581744
Ni 4.524983329950343 8.458482824031975 10.407480513965034 0.04534680356591545 -1.6008655016954625 0.8422669132746978
Ni 5.409673075595158 8.23248584421934 1.7126549281395116 -0.24579360556418955 -1.5452633389501258 -0.31721088096491173
Ni 0.40875454915010573 3.242753093535496 8.557617174170545 0.873079013559548 0.4206365909514304 -0.30974182628137625
Ni 5.379665216979122 4.358106451105714 5.916690870222784 1.8535962006991176 -1.5974863008105842 -0.8535010914276205
Ni 3.1987170559622933 3.668670478567001 7.198636394941053 1.1707826777294674 1.464434797537833 0.2168213867015556
Ni 1.5441084320278697 0.7298131819847137 4.296083610688171 2.048927792958013 1.045321070988832 0.643814258888317
Ni 7.7745713897116095 8.776322894839717 1.5450766403470237 -0.5889680004723986 2.798475069809787 -0.584076219597736
Ni 8.460057223148807 0.7305145909325719 13.161620255722486 -2.206100871869317 -0.3000161143531801 -0.26604644227595475
Ni 9.293432870632428 7.523054060142892 13.223532793926456 -0.7768009703614042 -0.24860896352579764 -0.8690362109487421
Ni 8.230326937645959 3.6016406718563454 4.628315763482479 0.5148896332997455 0.577013913434316 0.33318977289167134
Ni 8.55780195394713 7.721871443226017 7.0652084266744 -2.5972996171756044 1.373443456659925 -3.182123256462326
Ni 0.21388259139868415 3.7015914469261584 2.0547115199736474 -0.00455702324306312 0.16125341962826423 0.005297243843197329
Ni 4.916773021551107 0.7061660843514734 2.539026856438132 -2.5686716690262665 1.9981965851517332 0.2842022872493751
Ni 5.820760940801647 3.6738179152004773 1.4587825991732803 -2.1830416760570084 1.3857395004184587 -1.5626373114521992
Ni 8.545404739344526 4.693877702274027 10.056662909560403 0.673334379834621 0.5599309898101003 0.5258798137626621
Ni 0.6304120324748487 5.243277001271238 3.8470640398135627 -3.2300182803713917 3.3808898425447 -1.4459434236018645
Ni 9.365798664768995 0.5741079375918601 7.899086562019859 -0.2578489940668269 1.3165248890960102 -1.4233169444516003
Ni 3.5989255404452805 2.5375919849077015 5.431616616818747 1.2231125974814354 -2.7715931578172786 -1.2135357524262778
Ni 3.8643013532579737 5.104748734069216 12.728606761617689 -0.040260133071627444 -0.1750229626085308 -2.8180172536077723
P 6.232395603306198 3.428881008287743 7.89271165972763 -0.10061369445902027 -0.3981312107600627 1.7169749777972365
P 2.9852304212277225 2.424876321190036 3.372890850474158 -0.4467993653897273 -0.41615464392067686 -0.16987021476299777
P 4.418452132224547 1.0066915358899058 10.011804790532182 -0.3805638913002607 2.143293963845425 0.6716600774559917
P 9.225356607023757 1.3956246829852783 1.452586820133865 3.6890267862328017 -2.717021236108669 1.3147914513446712
P 8.370882125866657 2.5534396790118663 11.660891704510146 -0.8295510083699261 -0.04305337954604843 -0.3983566965073075
P 0.12207343954621597 6.451727312606255 5.689670059607226 0.08822766208984159 -0.4962005415306745 -0.852748529532312
P 8.962035997848607 2.986540849235146 6.6342095977867706 -0.10134851574251579 0.9082900142430422 0.540393691108121
P 3.1426137676732475 0.23896833157820366 6.425746898916632 -0.7049532922914826 0.8334043206777454 -0.3039856405238893
Ni 3.534676857923042 7.555513079060583 5.786436211792812 0.8125801848435426 0.7914392890998693 0.11120843925573105
Ni 3.3656882102031402 4.541547517065761 2.686652699375144 -0.012228423745391844 -0.16605829721607532 -0.4552703789752159
Ni 1.1176065395398163 0.09418394908318749 13.171803884021903 2.3966797799345754 0.014019197097227468 0.2966849930974181
Ni 6.254050661817362 2.682870370478897 12.61023268861905 0.041272633496541825 -0.8154143118582279 0.2485958508996751
Ni 3.2403207883130842 7.074567145256913 8.578176752577662 -0.47710958633749445 -0.3332483940437487 -0.05202113026229751
Ni 6.755105537634229 2.2452816913956637 6.332884690888414 1.4845451951344626 -0.2794879124928413 -1.275849779974151
Ni 5.9070417834199205 6.88641230948599 6.323446780973077 -0.46139680358792795 0.7131908497099265 0.4715318351394008
Ni 2.0942430791155773 7.475624108305858 0.7946388299318037 -0.17794322157911935 -1.207879068361133 -0.638957445016648
Ni 7.933708258526781 4.251678956315757 13.66649517059409 -1.6629131629558263 1.4570197360206842 -0.7803136115003528
Ni 4.663077930329764 1.664573533314615 8.034211487418428 0.06517592247670065 1.7547915344243779 -0.09712496457947144
Ni 0.3121052984558302 5.705151022420105 8.122589014848579 1.7862610657875688 0.6450262769185472 3.509107414763918
Ni 7.625427712895495 5.116391745502081 2.6557039723048574 1.8167399511027165 -0.3475408994070208 -1.0331875209500916
Ni 2.5746704982400512 6.663290729257989 10.985485796436524 -0.3276451889243583 0.9152196514833398 1.0797100899916632
Ni 9.155121436841705 8.122843558418367 8.991638472260908 0.5706368062633785 -1.2584598666324778 4.5167188870171175
Ni 1.6326424566157414 8.860350555488392 10.644477547008329 -0.0798342958198238 0.6011264902118034 0.82954278083981
Ni 5.08183981278836 8.454692953104031 7.790963995605912 -0.9156546821382295 -2.4826880657755956 3.184747581459051
Ni 7.993554280045662 5.477739911664207 7.090776856882552 -3.397715398742471 -2.093772717186846 -1.2132809561029945
Ni 1.3965674369474534 9.29673250950004 2.022023411843147 -1.1222394787134415 1.1664616817566107 0.03168164737399705
Ni 0.5305366777220095 4.474319732023049 12.306162482182838 -1.4027455480581519 2.7139947905775195 0.6419049576807461
Ni 7.304118307506949 7.072304535747692 11.1924994824668 0.47501542281262704 -0.07998804778886869 -0.1794339471920329
Ni 4.081917250346871 3.336594822930414 10.975150384749199 0.7972299276397172 0.35058894220472525 1.1415962859734985
Ni 6.577047596798202 6.39315400893631 0.8379555462318669 2.786586803012633 0.25074477892187785 -0.10400163709464669
Ni 3.2388878022905776 0.0687220500727601 0.6079650606354574 2.1777778565549073 1.1485143532495703 0.5158049460251632
Ni 1.6534301814817045 1.982357038884626 6.8280454689337615 -0.0179360156531304 -0.8011647439177492 -0.3507174973627895
P 7.13838216095655 9.080577881052514 5.6618116800249485 1.0831116594740442 -0.09159786411365516 -0.2824472522314813
P 2.169239156806613 3.2546129383796596 12.795886398128323 4.1719123558221245 1.3023290572116024 1.812435153079775
P 2.7127650986194722 6.66496883131066 2.7657299589684365 0.22923621542614067 -0.5153436901180286 -1.0227984644062835
P 5.998064678467935 4.701334886114833 11.980029004769841 -1.2211788707938322 2.452315881241641 2.5191221402329127
P 7.314912840373854 7.300300153960139 3.0503172120223354 -1.8643814642400796 0.36265924310569797 0.582004938891004
P 3.070804198374364 8.446868095217978 12.559469158771766 -0.6535158024467971 -0.26503882694704683 -1.4406446370967703
P 0.6660141931024324 1.2591610469604202 9.70184331458634 -0.0005198770592120079 -1.403483711775757 -2.235949836909949
P 4.766526322599248 5.571751336772316 0.6538809496092378 -1.6002481798264376 -0.2637944130169844 1.9157994137007393
