# total energy = -340890.0756965045 ev
CRYSTAL
PRIMVEC
9.08943228727354 0.00000000000000 0.00000000000000
0.00000000000000 9.08943228727354 0.00000000000000
0.00000000000000 0.00000000000000 13.30330292632421
PRIMCOORD
 96 1
Ni 6.430982499768948 2.305561803664182 11.656380857901716 1.4376379890599629 0.3309130610423527 0.9806686251157692
Ni 4.689038222101338 0.5593291317770333 6.135363253139531 -0.28669420043329336 -0.1405382985680999 -0.3429774484060545
Ni 2.643125145175934 1.9623175668849184 4.945689254025355 0.8893561534530168 -2.2125132031535637 0.7839802617186626
Ni 3.3699616092824343 4.549842653898663 4.9865035324568865 0.10938089912868905 0.2132169571797489 -0.8517810234127202
Ni 3.4224894392839538 2.987860048873392 2.9651864596817 0.5738545418697278 0.3423249024237201 -0.6043264852063399
Ni 5.3910787145442045 4.551487841168134 2.785060268312414 1.0204852428920748 0.26358486810933957 1.2715609227908102
Ni 5.574158062509355 3.126673860914091 0.7600074388093119 -0.7329387217608151 -0.1108572265638994 -0.405489708007663
Ni 5.6856490406714295 8.226472623870015 12.731647079987665 0.14475002265660233 0.5635387617660166 -1.0898816312080262
Ni 2.3697604649032766 5.937199083116841 11.500266220177528 2.2126826388518923 -1.9761851138776483 0.7512269785470417
Ni 1.1732730272410588 7.839299160166137 11.584702502717604 -1.0707402823928849 1.022876883052703 0.0975553672486707
Ni 0.3754099202555353 0.2628209386561555 5.0553614367585835 0.5941279474067832 1.8372948924359327 -0.35320889632607555
Ni 8.723909992358184 2.6225375807264717 1.591261484762404 -0.21192754894436405 0.8977814014022345 -0.39321757550852926
Ni 1.391264885162227 1.4231687929845718 2.7249018597875736 -0.15168763031670005 -0.7022801163346938 0.7084301950964895
Ni 2.1641029667869294 6.780034883869715 0.5388451868572507 0.009730854134518725 0.21269013814200144 0.1357550182468436
Ni 7.730244149894771 4.142908764096274 4.181773359271995 -0.8603520529111827 -0.4174839042550617 -0.583998058061633
Ni 7.831518606007753 4.35228384007568 12.567191070124284 0.557397167644653 -0.5739211334416052 0.23486718845967294
Ni 7.862595375479148 0.31393899768808886 7.4042725615584715 0.007083646319658769 -0.2148372663919913 -1.142205123202091
Ni 7.081767682750217 0.9577080477781714 0.4334159511814211 -0.3968885966022132 0.8899109975152223 -0.2380216749282546
Ni 2.1233186834824105 7.007361588894459 9.454604011587136 -0.4296789036593568 -0.20779038684753892 -1.0586396424746092
Ni 0.32631425993883606 5.119086538568179 1.4065851235196523 -0.8489587234725766 0.122173422907667 -0.21690803287809096
Ni 6.313883341798785 2.4140714479898673 7.3118948419060334 -0.06211965214888012 -0.4671439904843503 0.7535278587660765
Ni 3.83117758954495 4.97270122931494 1.1988870478232148 -0.16348770827542167 -1.2496888053080673 -2.029823982249027
Ni 6.123996008945051 5.963303933050111 4.880010833186979 0.5501921652557814 -0.4177458996671966 0.3686797382681651
Ni 5.260881684445268 3.1819557889412993 9.81626798318178 0.7484725557303561 -2.585277138793432 -1.5057570533253875
P 0.48172173982012556 5.987690880254485 12.576796782314213 -0.8094125857488382 -0.2766491574924655 -0.07004224943006647
P 4.2846584628112225 6.534374793637658 12.719673570650237 -1.2358482998805491 -0.8933413633530098 -0.3265789524433731
P 2.426687580199957 8.676717659191912 1.6349625669330743 0.41854268453687915 1.0547017408727837 -0.535331188983549
P 6.5591707653012925 8.03562181117891 5.989692373275134 -0.355019210061937 0.41439420958614437 -0.20249442855592223
P 4.784495441460389 1.3971730162404388 12.903006513780127 0.18096426779363028 -0.5545237027515998 0.4340106982654912
P 4.273123973060066 6.571995954457227 8.214337322635368 -0.8118682463781823 -0.06361834818159366 -0.5787159837270872
P 4.581973797531708 1.1721822953496963 3.8838990244571865 0.6846685739005176 0.8199569369235878 0.5429501389813874
P 0.23240042620606313 5.6085706536818325 3.620094609212319 -0.569907898517154 0.52799120367871 0.6389255633374481
Ni 0.921650269336222 7.707675089176001 2.7817871636950846 -0.9242393384834469 -0.1514318055521521 -0.08686266342151493
Ni 1.6006763188713455 6.641793706071981 4.9502657832528625 1.8909733557959951 1.2483708578275918 -0.11160258937035616
Ni 6.103990168170982 5.664852419276123 8.955105159824292 1.0217628240529177 0.11743205156793969 0.6355556184239506
Ni 9.144787071505153 3.002394051325794 10.556144147049514 -0.9797913647171385 -2.0409560876064465 -0.2678955796695515
Ni 2.4289599383069613 5.735849975971376 6.916387277608906 0.0753556912231799 -0.15514447851704893 1.8437542749080311
Ni 0.7480457457340394 0.5053706251113441 9.897551141612576 -1.4640265063558204 0.19811481143098783 -1.1344946419317106
Ni 1.8652515179861087 1.6060572628687324 11.578768921228596 -0.7376356130158521 -0.30603403841248583 2.14562338330955
Ni 4.488416269550114 7.126360438242077 1.6014780068114967 -0.03774610840052209 1.5460341556778794 1.0342786971317413
Ni 5.719398103276662 8.478159007801848 8.257293980290182 -0.056912911136960044 -0.5800521860400074 -0.4009625095612708
Ni 6.92056659863931 1.0802881335024292 5.188235304707573 -0.28917582920456647 -1.1225693512490345 -0.8357147139784769
Ni 0.7646066916178892 8.037257909015953 7.261940230224886 -0.1646850710176325 -2.061478118819198 -0.553917950846801
Ni 4.952168201460046 5.006459381352601 6.773376874616192 -0.010183111180588914 0.24721131184732265 0.6246808804929758
Ni 8.459652923378401 7.858805082156665 9.149120912886833 -0.9434781321084009 -0.9003296217453849 1.835478408052484
Ni 4.796411687373522 0.7164736021953171 10.8008852956631 -0.10068311424437498 -0.17776401568877773 -0.9769150716106079
Ni 8.511053663758846 7.407560209267686 4.893713152572217 -2.279068265365978 -1.1801204101906255 -0.5916018385508198
Ni 7.711156341795933 6.6125166442213335 7.18620526134815 -0.5597561547951327 -0.5688226358727752 -0.34097558748467727
Ni 2.276739213434935 5.596290830471579 2.8217234029540696 0.532186215596664 -0.4373546750370597 0.27887727549203584
Ni 3.8920676973802464 4.834332799463215 9.541927097866353 -2.873859300278057 1.0499287449641725 -1.3474411190588924
Ni 1.0260242219071585 3.4759443913931305 4.26640960932549 -0.16446138504260063 0.49351553849934354 -1.0556409648576013
Ni 0.7601265103741188 0.25799081426390646 0.21018039969252908 -0.10204708447143716 0.27882996719386816 0.7884164431131454
Ni 1.607302515111371 4.106669197005764 8.603937664797524 -0.10512495206581249 -0.5782318450018171 -0.407511109313066
Ni 5.287531900324217 2.931405584062969 4.997226335892219 -0.042877001869184216 0.627570800446261 -0.06840857048138542
Ni 4.0745835005348585 7.202048142070187 5.863112028339305 0.07960469630752096 0.48717699787582547 0.03873058380097846
Ni 8.311958735855528 7.409996177158394 0.25595932611624433 -0.17237986855872892 0.47801564309153155 1.0520535046166593
P 0.5474019785449874 6.090019710529117 8.267803182063457 -0.8350634535477232 -0.7386180315337796 -0.32984116813441255
P 8.748124240346426 1.9428480026241026 8.540827008620063 0.2591977947852375 0.9912638841331123 -0.7304987448607548
P 2.1726015861071266 3.836631249001761 10.793369243988371 0.0328548417464918 -0.13088534885936814 -1.9158379802481587
P 4.178648412403243 6.433627524605502 3.7619879209596303 -0.15838946781690785 -1.1088607434136903 0.036683471463962634
P 7.152610719094194 4.164850653977511 10.42802041648741 -0.3432430433626153 0.8039759881142993 -0.43983913202181024
P 6.433145784686816 8.20896637701365 10.313172710929667 1.1242313123324899 -0.3079250847876116 1.0425903023212302
P 2.26543195949448 8.757531802909424 5.964336492573934 1.2831483705180933 0.12988287573678275 -0.6962115415431106
P 7.14308499390963 4.454176377593768 1.4230015474278963 0.6513293363184396 -0.5317879517169809 1.2384818808486542
Ni 2.67093880840567 1.7665948184123956 0.7114935021680058 0.8283695864673154 -0.7260553643774205 -0.5224088244949262
Ni 1.4314219976292129 1.0872960859044316 7.498167307483145 0.23673098114128904 2.6201520962937455 -0.47647632362886977
Ni 7.042374082607186 1.1316070689910218 9.555802116467722 -0.5352298875189943 0.08297335566943774 0.36298988697223933
Ni 2.753934415905907 1.9487834019995989 9.503414263725595 1.1140492295931652 0.7648036887902119 -1.2425316254379957
Ni 6.5306572157746 1.8488450924535351 2.698042586962779 -1.0585277994870932 1.251152791448103 0.9955131463277693
Ni 4.348629888239617 7.24281424650985 10.423457521408544 0.7545169621522231 0.6104583091356905 0.41657836172165674
Ni 7.355114184158018 6.500107633384029 11.413249447771134 -0.5288635789813344 0.4596505103207826 -0.6616985953679055
Ni 8.205866880555696 4.241774520615831 8.064595285986462 -0.3111024540743287 -0.6003045085311404 1.3099791175576925
Ni 3.2363742208878468 8.753677883559943 12.57899188024558 0.2651326722124337 -0.07440438305350412 0.48778737776631476
Ni 0.16276810226149885 5.258063960392582 10.50021777826316 0.21419757592546335 1.3755224506761408 -0.9210066904787622
Ni 8.560082062275578 2.4610819925075784 6.147535821047133 1.0266294081165996 1.0400814198564474 0.49187671734433996
Ni 3.6078684136533914 3.099960019008144 12.165445428351807 1.309572369037577 0.6891242956790261 0.45677935942057457
Ni 1.220610791326179 3.7231678640028063 12.776266194833566 -0.6652210066988673 0.3109209341911419 -0.33028571187099887
Ni 3.226257682595462 8.56778081154211 8.003439766724266 0.5551096571620568 -0.0155204642331023 -0.0014727278907845605
Ni 5.790213871323354 8.057572790492573 3.8635586925697663 -0.4889914253767449 1.3917021457597967 -0.819035453550583
Ni 3.0214182333976365 8.587922993802598 3.864170411372172 0.8023685344178633 -0.049352839401515004 -0.0030315877374721984
Ni 3.8611454482601273 3.0540311169493672 7.460612499520302 -1.3355446247316225 0.8861186203523256 -0.5112893175429969
Ni 5.134729451776798 4.844131207620618 11.399055390091542 1.0892907917015628 1.1685609874878005 1.9857156790759027
Ni 8.120998849975287 0.1702968791416266 2.5854436069877282 0.8282325466688186 -1.2543702699441366 0.04810251193418168
Ni 4.6213219505126 0.526040903395901 1.799271327991122 -0.4606887217773098 -0.12570714709253833 -0.7046766415913284
Ni 6.2570652996912415 6.001397744355936 0.27719042238161 -0.36390211437386355 -0.09351359307912926 0.05205095505896842
Ni 8.194832309588081 -0.07158109825713146 11.73730498375161 -1.0134386204579384 0.8165345415056001 -1.0541021596155717
Ni 0.20614923641070287 5.082928776369521 5.957352172696244 -0.531762240685368 -0.7558246252200532 0.8255814821992169
Ni 7.434901222011166 6.458241707620576 2.584778260533997 0.06487073253145603 -0.2945502061426024 0.11700062045747592
P 8.452872206787099 1.9788421550390562 3.8083103954425415 0.5400149676124635 -0.12108558916012695 0.5281482980818646
P 2.0357965386330203 3.6605053168440467 1.4060524827793701 0.25105176863933537 0.38929870007009726 1.851356255625005
P 4.535826749094658 1.3046516835556383 8.295195095628534 1.2443733066324245 -0.1955748186179535 0.7217505663544795
P 8.708357973473845 2.086052010527535 12.729518334913024 0.00911584625833914 -0.8806722525257735 -1.0485694027228005
P 6.462068358672771 8.275601006143456 1.4473594084485004 0.6731217496031826 -1.4334604606435055 1.5728533327532523
P 1.9260689103619806 3.389422084110822 6.342203286414763 -0.5473030166334445 1.0994163101713388 0.7666106600919637
P 6.885372316278022 4.232539657268964 6.2944046881055415 0.8659238905720055 0.6867755929411914 -0.7666726236781506
P 2.722948540758792 9.010790658651304 10.338343167209336 0.42028769225244395 -1.0907635195923473 0.5968132075484303
