# total energy = -340898.4094530224 ev
CRYSTAL
PRIMVEC
9.00203529460352 0.00000000000000 0.00000000000000
0.00000000000000 9.00203529460352 0.00000000000000
0.00000000000000 0.00000000000000 13.17538859332830
PRIMCOORD
 96 1
Ni 6.419558282192833 1.949354694457659 11.463088883095816 0.22317792504720274 0.30208868061149263 -0.3221828802582064
Ni 4.522928507361668 0.2774490234475408 5.854127854221604 -0.5418638478957442 -0.23040529603357737 0.22163012094410864
Ni 2.614037960713652 1.6085016371352205 4.691610441618991 1.4039166855481175 -1.4335149680305248 0.7062835810671321
Ni 3.306807576506038 4.365770978449373 4.7595163932513085 0.3353494995471515 -0.07299901806554525 0.5100927261317345
Ni 5.134571782762393 4.549754571982966 2.634748042682699 -0.09029919990688964 0.6811556756512528 0.09099622597391425
Ni 7.171822348012792 6.165736900292783 2.583021448749663 -0.3087172416716038 -0.6026524399380266 -0.6108858835914125
Ni 4.989612011421192 4.367859450594386 11.428701108983947 0.35648833840829575 0.4001402707702916 -0.39360118410019307
Ni 5.5307693519277 7.8814707796323376 12.445076783035704 -0.34482324336554165 -0.7484650995311883 -0.2924326455789673
Ni 1.8782746252463245 6.375394297953876 0.29679259648722117 -0.10225354405528843 0.07929050750121183 0.38158744746876866
Ni 2.9034533894300156 1.5783808276644598 0.5645986399272668 -0.6883740477765629 -0.4819807983868667 -0.02684360255540538
Ni 0.43077168540390504 0.20325064927485784 4.802139229079808 -0.10473260172340028 -0.5512182925274507 0.21909218501360334
Ni 8.521218408639673 2.3310499850642703 1.285759774246202 0.957098551105313 0.3341937886761535 1.0532974043260892
Ni 6.666313066533245 0.7589453762769814 4.776697677458091 0.8218690663446362 0.06161751570148098 -0.5354268340211489
Ni 0.7596772417312472 7.397440353920047 2.422585378651101 -0.11505635224691152 -0.34304892507393825 0.13064186538999437
Ni 7.521452389565354 3.9136707712645125 3.6936673346540045 0.9511361628742909 0.1335955487016796 0.7278556508109529
Ni 7.671642343304197 3.7945738467880745 12.688110126062545 -0.326224911538064 0.16486093447386446 -1.160018240124112
Ni 7.778199432875444 8.874566290691764 6.816352686285788 0.741044381587085 -0.3234072395836108 0.11798175342382261
Ni 6.918757137061799 0.7056524282351853 0.27020598599979007 -0.4947607237603544 -0.6805075005442925 1.5439430774768055
Ni 1.8570478264620887 6.487208576028089 9.0831920551295 0.1854863240336999 -0.15150148244782297 0.25901756045363133
Ni 0.1391759637844275 4.9811681024900585 1.297485825177646 -0.5379454866779445 -1.0790727135179805 0.5820440196590557
Ni 6.375133238935749 1.8349388282372863 6.926077592011477 0.6948488568676291 0.8598769130469771 0.3760035256230879
Ni 3.4523524801292473 4.148776922175408 0.4604838024807707 -0.4185521976185759 0.4334154878836535 0.01898451152230279
Ni 5.83237353618005 5.666367006756769 4.826790402019058 0.4069935462466991 -0.39692793448058095 -0.22355124922622144
Ni 5.391237807756513 2.748915452734096 9.245591469085078 -0.8029876560591009 -0.03641633384550502 -0.22418168372136874
P 0.19791784367698617 5.4961025147274905 12.311135502666472 0.5651336170569621 0.3280740489316608 0.26541909310460093
P 3.944799808667349 6.027123563702595 12.581863606702516 -0.169788710792785 0.45673925021125855 -0.9051221580380219
P 2.413130541177359 8.519057920213797 1.542706662735686 0.3335566693127868 -0.32280071634786345 -1.6820923069874387
P 6.209693837724261 7.710324088162492 5.715272362887015 0.08876296576802133 -0.2506128813297039 -0.1343751071801815
P 4.72795885897734 0.9239418773611647 12.657345671081574 0.09920781525042914 0.06793882993381849 -0.3194240865661466
P 4.056965166110767 6.09625919333064 8.061901269908876 -0.7620541510695327 0.07642732702080386 0.6838725603617836
P 4.672173247414189 1.1796086764583171 3.8098746058608333 0.29989090162922544 -0.30892781502051314 -0.24762680211818644
P 0.06164323580780856 5.594215695367604 3.5459187328364017 0.8667458722526685 -0.12777020026915414 0.4049466910199994
Ni 1.3186361066634655 0.9722738038550421 2.6750645571165745 0.25071443990457465 0.9929811239345351 -0.7342826373832193
Ni 1.7191546526805253 6.51823859104474 4.726960533283884 0.13038732617702706 0.4081952798642841 0.18177519373069986
Ni 5.872189537461931 5.439101628424784 9.173377143450159 0.6394120160555633 0.5667045610885079 0.3944339644141336
Ni 8.706480291158577 2.17593591812145 10.085232888475566 0.13401258163444016 0.6544961640821954 0.48434415641272066
Ni 2.2310283729812994 5.240723780753789 6.902256406709167 0.057084660828133946 -0.14853520073064744 0.5222375890243844
Ni 0.6606683585979055 8.948337968400336 9.128633428150255 0.6515273112618586 0.8066321947902236 0.2758857969638797
Ni 1.4853988070358028 1.0862665744253475 11.391164422991368 0.2753592350364484 -0.18186749633419003 -0.343578315214847
Ni 4.004231244449167 6.932179171407556 1.433574090920092 0.6458186909128555 -0.15599499944280232 0.7306661236765546
Ni 5.719515022033329 7.845021539480781 7.8897778576298325 -0.8481552537346748 0.1659693370466948 0.5182084132603333
Ni 5.223331848925483 2.9856059618239668 5.012431270216001 -0.1466058449184185 -0.35488859802134365 -0.79099294559107
Ni 0.7165935017052278 7.475307957602676 7.0183187451507605 0.19875707300067705 -0.6266711714501272 -0.5535327995932402
Ni 5.148074835424121 4.411681357499246 7.076119012171041 0.568180374303086 0.4317632969922112 -0.38163861242167824
Ni 8.055048020581294 7.39556793061762 8.962807839632644 -0.605516391749383 -1.3721843874418431 0.36979096905447284
Ni 4.73212680123226 0.46186921568386397 10.457200579944669 -0.8540281675756841 -0.6847181961915304 -0.5776628598722244
Ni 8.055156045002587 7.344121299976438 4.558618875953635 -0.11141592728084683 -0.8123842667826525 0.8573387200061557
Ni 7.279279641094821 6.110941512591492 6.915260746625922 -0.00010798633277400756 -0.6403358134214133 0.07939283740703101
Ni 2.262454477542694 5.245656895992873 2.564036156707274 -0.2559944573565914 -0.38916911647076846 -0.23434911117267382
Ni 2.313126933164604 5.267243776181422 11.272585115533628 0.2607412280129574 -0.4801208623599925 0.1361792502684558
Ni 1.2512018616707974 3.246259888370851 3.850546700681468 -1.7000396354944787 1.2524296012779979 -1.4019320510179212
Ni 3.653764013631578 2.8316171492696247 2.771363827682463 -0.07834382731722637 -0.7169899117410427 -0.20429960008546105
Ni 1.144203672379267 3.317583012530097 8.138199818872213 -0.38474861880556965 0.1529821807584075 -0.26007659784576503
Ni 3.611328420133322 2.7048594929164325 7.062350399473633 -0.3198400910576427 -0.46135232350323774 -0.47928268272941327
Ni 3.968898256650979 6.753146697183262 6.01997954864103 -0.03099156328550792 0.8769750061798445 -0.6675992771230567
Ni 0.8311984106628648 7.4560616065421605 11.402231524952919 -0.1443939248687642 -0.422753123073801 -0.2746796924709205
P 0.10238734690930575 5.522784546787065 8.09144054791167 0.6428837766542477 0.4164053264789022 -0.3729233440358674
P 8.54009567626077 1.6273969088265314 7.917974031994542 -0.14185856004142022 -0.3459846106634945 0.2886418110779674
P 1.8945863128616918 3.2271935780124914 10.332995900748054 -0.1700602192866168 -0.5375719053886098 0.1833836758684003
P 3.8728645461207716 6.127838332488868 3.741111660486251 0.52312050584997 0.9624181635460134 -0.5490487956799577
P 6.910619297324332 3.7768938498363185 10.375512512562281 0.5073696707736165 1.3214889179695046 0.2823683193644298
P 6.238032244243674 7.821868305183472 10.155180501670337 0.1724731996034836 -1.4103485572163903 0.4683740062367095
P 2.293385470173158 8.495742649284546 5.712993047597715 0.6849627081021687 -0.8891725766873009 -0.02130467501504718
P 6.916875711724265 3.959572148279279 1.5607827492321855 -0.08839169847153164 0.4420371681143936 -0.35402804979326125
Ni 5.2798016151568286 2.6915544850270763 0.5703194332382854 0.3160824237874234 0.5281431558755421 -0.11199005461676198
Ni 1.4497417459737338 1.0198585614349704 6.918857959855007 -0.11220114218630355 1.0461903609676628 0.7174357410292096
Ni 6.9786656807043315 0.7263751130533834 9.303655495734017 -0.691415662816364 -0.04339070828080914 -1.1951963306871416
Ni 2.745854760797438 1.5790379762273308 9.049581156647438 0.35459266404747963 -0.46183183424281754 1.0103103592416018
Ni 6.446492371235426 2.036197327142784 2.623589119963047 -0.3887533690895885 -0.44388630550799035 0.21369209704395456
Ni 4.128702383884972 6.871217389657409 10.246762705839728 0.4590478437397772 -0.014143124269601449 0.34940366364737246
Ni 8.126299128459676 7.128612579495263 0.3603586669940597 -0.06851578548321102 0.29297437701505025 -0.18050172633491496
Ni 7.6532241794736 3.789694743759637 8.179109567419694 -0.08551643380626563 -0.06574902137135129 -0.10419986914838184
Ni 2.9052988066271186 8.33982740121713 12.483574886377802 1.339616480808151 0.010607343202201087 -0.0352793920275844
Ni 0.14821670764320963 4.642853619068025 10.263231929069482 -0.585485955461069 0.08478778317035719 -0.492002701399243
Ni 8.687792066274746 2.3942802796615874 5.703585920910045 -0.30820559214250787 -0.15510745463152642 0.5592265075439079
Ni 3.619223204922878 2.4762528113533824 11.520256307048017 -0.21169332144637087 0.3051724617431389 -0.3754180854332631
Ni 1.109590847389705 3.247304124443358 12.624169570895221 0.5177397011540309 0.5119961138020344 -0.1974147000401697
Ni 3.168743364057426 8.419243354938306 7.92088529014841 0.13209325312454023 -0.8444356387912425 0.06884308691564273
Ni 5.48640732291637 7.867382594688602 3.5237179138534995 0.347209227099215 -0.4559545495264341 0.6635004244633347
Ni 3.0891293655638794 8.307447080934308 3.5390546810666903 0.2637442765053393 -0.21735771882099988 1.186485176066389
Ni 3.4247972506642146 4.22213450626902 9.104246014839665 0.15168480210322263 0.3835733675505459 0.13014589959018233
Ni 7.298625014541523 6.007121041693022 11.382599886789789 -0.719925854440915 0.21152568552025505 -0.7008996910473992
Ni 0.6186810664480187 9.079902711501104 0.3920431299630484 -0.2162806837067372 -0.549199462325209 -0.07620029861166232
Ni 4.722908717281855 0.30126840834282853 1.7513117224926744 -0.3357559909569508 0.8289833087919143 -0.7070927072319887
Ni 5.865501025376822 5.492150621315159 0.29925105227516635 0.5089383008123171 0.5061427403450508 0.5288052149395731
Ni 7.825856206736235 8.676629542741052 11.3859072344884 0.327830565462287 0.1476039471656297 -0.018242748260271807
Ni 0.1212394088320992 4.832184421455663 5.711280860520208 -0.6133569708397244 -0.004424611430256895 0.017935501432498144
Ni 7.8744942024237785 8.792764797667017 2.6658158662468017 -0.32085464836508615 0.7190596497858778 -0.6716814176122304
P 8.50884961240153 1.7636877203589032 3.5580264700564177 -1.5091645363450394 -0.27237187027335025 0.07703102204307377
P 1.8206886066616097 3.1291614156883485 1.6700728566621665 -0.7548347505029581 0.6594329392621805 -0.698603695924371
P 4.764858200884289 1.0157536334258053 8.015998092487088 -0.7981300708564836 -0.32596060213308375 0.9844216644002982
P 8.573367198019266 1.5922169556251768 12.384443575566992 -0.16257110999842325 0.2637414482918619 -0.8270056162402531
P 6.299399117573673 7.807339020519453 1.3939696374632446 0.25697096233724775 -0.7837028396875599 0.0610259048640691
P 1.8321481973538627 3.210521808992812 5.912271098779493 -0.3428020991704548 0.4301944098431946 1.5187696635349712
P 6.988423886761206 3.805079221758898 5.951928664243477 -0.26639945473999926 1.5099574645599803 -0.107093388646093
P 2.505689466155949 8.339287279110662 10.230108940890263 -0.4682734761031032 1.1398103977176695 -0.37594284758848157
