# total energy = -381174.12982610305 ev
CRYSTAL
PRIMVEC
9.16673803506916 0.00000000000000 0.00000000000000

0.00000000000000 9.16673803506916 0.00000000000000

0.00000000000000 0.00000000000000 13.41644770240426

PRIMCOORD
 96 1
Ni 5.153484996174145 0.4631824280900986 4.515949381596408 1.0019704719173388 -0.38354611385703624 -0.4150855792262142
Ni 0.6114113284939358 0.4010264456977956 9.596288393418225 -0.9580308331115951 0.9645118128502487 -2.568756772540905
Ni 3.8245646824294974 6.4831478156813755 7.347342939362556 -0.5267143938488155 2.0128634431352883 2.251816114518244
Ni 7.2914065885741195 1.0222837672731064 5.782944714741556 -1.178271529907345 -0.2294565589670629 0.6607503725220233
Ni 4.216626058549428 4.263944759122986 6.819056506000562 0.7117037236414387 0.33607660752116314 2.5624922796884317
Ni 3.096670699914202 4.206735148452785 4.964554863221557 -0.4999857196047196 2.2789433097523393 -1.8307568342070988
Ni 4.347976244624305 7.285319874668493 9.850262031173166 2.91941282053814 -0.5270311537582858 0.08708146430054034
Ni 6.46793103091731 2.4906759967920054 3.351401510212222 0.13759001457305337 -0.4257651704272474 -0.5976477876345836
Ni 1.9458509350737898 3.2439801765157283 6.709431488534621 -0.2968117484832694 -0.588748942483057 0.9250986011599488
Ni 6.718833811506008 5.895239086257674 6.297358207102383 1.308770956182204 -0.8767893725315997 0.07677725416105487
Ni 4.144768000859362 2.146804161337552 5.743299490388479 0.24869226726822333 -0.032481003346840835 2.259146843851703
Ni 0.62293300124692 7.3523287280572385 13.319433205395228 -0.682765957561166 -1.003198173676853 -0.10674397572647422
Ni 7.731950840969437 4.708274874233701 12.523689779634037 -2.5996694029593614 0.5938266141162806 -0.27809617435163714
Ni 2.8618097104924405 8.956599512128996 9.089146874161816 -0.7503450901627206 0.11890683634125326 -0.6922921518840465
Ni 8.548331343561554 2.2577491890480856 4.373546859744402 0.8731301785124576 0.3488128241409089 -0.3389099632049002
Ni 6.403919700792328 8.59115834260837 1.1146139005135267 -0.5999095870855669 0.10992340189572036 0.39669627808574903
Ni 4.595019828595129 5.2667675420261455 11.375590702575536 1.0372380368703813 -0.6471893460081369 0.6712746690921149
Ni 6.685760221488691 6.428999895439607 10.567974518003252 -0.6431280314545699 -0.3905747385690435 0.24039094649137957
Ni 3.773854288866359 2.977292273418765 12.387151219958884 0.6861119912152636 -0.26016967178020356 -0.9104926783213158
Ni 2.7403962682032548 4.280875723857462 2.309400089910498 -0.38387495795136467 -0.17654685545222495 0.7326250471751382
Ni 3.1393785313694917 8.481313323434998 5.05773200303559 -0.9906709877441195 -0.9931839839739605 -0.6862305190709989
Ni 0.6614149665719485 0.8854802888752522 2.890948936641845 -0.3344002482600047 -1.071018475754936 -1.1720980541067814
Ni 7.549221089471314 0.9313405614632904 8.252550964678015 -0.8768690767295996 0.7590382470613444 0.1409465897501121
Ni 4.997787954476763 0.5252174095433139 9.207922129309377 1.1266890298443628 1.5463784263911753 0.6265238472389856
P 5.750597130358764 3.7751376321597134 12.699767229503676 -0.34472914098983853 -0.39987827535815645 0.19303456869460303
Ni 6.071332119581589 7.420217588275714 3.5013436739126877 -0.4844115193155464 -0.1975064884230276 -1.447174467795488
P 2.3735800880111775 6.208759852824282 5.955882556911379 -1.4366236888628354 -0.8928430835603526 -1.405870723950695
Ni 5.857114623707223 2.616159470668688 7.687919332574428 0.1488640448249759 -0.38769484591808717 -0.37398263853831726
P 2.5472072688642897 0.9775775869753066 6.4898844512977085 -2.686753438363063 -0.16564023584205023 0.30523134000553237
P 7.6404576308910395 3.689611968395418 5.792644956691757 1.6919972248059765 0.2719772059380929 1.4458053553621035
P 1.6202942417630737 7.8523926090507965 3.4782673281506042 -0.02131547364832458 1.2091103696650725 -0.5017296988790197
Ni 3.3747620248464054 2.298431171447437 8.214447585624526 0.8296399685393067 -0.7182461527456468 0.53063044107377
Ni 2.1252348272713797 1.692949805642582 4.3704475856909495 0.2592361042223406 0.6713456315393664 1.1756569751026333
Ni 3.6258573069291065 6.306092274887444 3.378986057629105 -0.8804169419818579 0.9985339354319642 -0.325501145998162
Ni 8.189737727184758 7.034545428409131 4.527809306974569 -0.3251936420600722 -1.0874023164295983 0.5337630731654808
Ni 5.821547681005672 7.874658615190505 8.118184921863755 2.0987768552696564 0.21333188549105842 -0.7912634256436373
Ni 4.2557588622589435 2.771260674408441 3.7046701685953756 -1.3226837096085542 -1.3018140652483967 -2.9490825796884304
Ni 0.32397543103854665 -0.3885734323833479 4.957296640223854 1.1353659887930703 1.4659113820833591 0.5765274607162006
Ni 8.781129816976138 0.24386455929842726 0.7960908451241765 -1.0158194619852892 0.7566628048506324 -0.881491148882643
Ni 6.758177450185146 4.1023260048005525 1.1845231097452553 -0.740294390794938 0.6415630009602951 -0.8331559521123652
Ni 1.808377368142048 8.929878471413785 1.0632884188433585 0.2456120856810028 -0.6009218304001651 -0.583682069483111
Ni 3.8606541291862 4.864595254102141 9.245542421280296 0.5748565007716809 -0.7923139783953387 -1.2222381652962822
Ni 2.4327513805726495 1.9252074415263951 1.7341295419049987 -0.9638055308118435 1.3774160681544279 -0.0624235565425441
Ni 1.6230717633194063 6.461459314023677 1.8910888433987734 1.1493383918127626 0.27996768034273717 -1.741041274717821
Ni 3.9527156770087966 7.451081994480901 1.1371246585527532 0.39135095461343566 -0.18122112099944274 -0.1275370012124255
Ni 3.8602782929360036 0.6288097968567047 0.07587400552448624 -0.17360551343571393 -0.36447521326851423 0.9838863607221183
Ni 3.3481601517227193 0.04233932859534101 2.6994695339043853 0.9336950845797081 -0.2046058184719702 1.1913874984640127
Ni 7.328156040453118 6.817660411832148 13.285596942792143 0.34444374853893583 -0.14821535549738343 0.410810348889628
Ni 0.7991140352538084 3.946399794657929 4.9881546297125725 -1.4197940189000064 -2.0794221048921284 -0.4737715231031969
Ni 7.879122816503818 5.996384871249662 8.48956522081127 0.46538124215697274 -0.5813133121406182 0.5295006983447009
Ni 7.799308030394951 4.845400105128674 3.2994398569380614 0.2638638328023391 -0.03617130771423448 0.7079350006276259
Ni 8.256187409567115 3.508898899215424 8.143863704490007 -0.35549769236025225 -0.42902018702943534 -1.3732688787552736
Ni 8.890819001606745 7.083999978892344 11.165328654066048 0.4372425749392276 -1.004679900428702 -0.2905950781495963
Ni 1.083655076908901 5.804332547399096 4.010256206913927 0.19861926187123213 1.4231878750729037 0.2644590431841768
Ni 7.192277485900261 1.9385083780882377 10.715327078272486 0.5348447362654337 -0.32051217742400284 0.08851459720264111
Ni 6.719796318976025 1.685378080211788 0.13348420263696992 -0.8950316065712391 0.4429044012106953 -0.18338573275092934
P 4.436838600951324 2.6006493502947126 10.088336878871 0.741406135801878 0.29170759448748473 0.5441377315315855
Ni 5.284853515724641 4.711593233320804 2.847761684799109 -0.6213808695854653 0.32196510782044546 1.02187158171664
P 5.367610824670415 0.8389755946191935 2.3496356521785176 0.12490701978874616 0.6604510961140496 -0.6034086013777608
Ni 4.3800598269581785 0.06058113683660033 6.905713345210572 0.9582835725523495 -0.2578528507215689 0.7408253235977434
P 0.041900241854257426 7.60289233934698 9.025888133211009 0.6294273940390257 -0.2911753761330985 -0.5004287206794091
P 0.6016212525131995 5.076997735890191 12.138959960414288 0.557547062958956 1.4208707969039531 -0.9557546354829088
P 0.575041379560257 3.790556085155592 2.7393164264892746 0.7776620328101188 0.016980593718396563 -0.059175739029207766
Ni 1.5255193395488125 5.173770986946963 8.296422055161354 0.22481906019505152 0.5387816094259947 -0.6215811585217296
Ni 4.17272655117888 5.156033349285235 0.4323381887080939 1.0504905310049133 -0.026968815279360007 0.48029801136780503
Ni 8.40754858428052 4.370957256313168 10.471469852364304 2.1837266179391746 -0.12604010495192486 -1.4190828517655947
Ni 9.019217498106906 5.161166722458654 1.0215513449221132 0.15593997783515082 -0.07229376446840452 0.6629136987219293
Ni 4.471498036609717 2.8304228002321032 1.3253507860415585 1.4234285303288001 -0.3222024206422322 -0.3390588300779387
Ni 8.253969059017173 2.574285812354079 1.7867356168471793 1.4994593932421336 -1.3748303097051227 1.7786418586794144
Ni 1.982893722562699 4.295487503926088 0.027612964304093206 0.11712069097510798 -1.24180014658861 0.9180064701998576
Ni 2.2555400052359533 4.118413629656538 10.788487729405308 -0.4995630302450042 0.8405404175018945 0.8616530311107936
Ni 2.286422744916759 6.724196353124669 9.796931783944022 -2.8562729546548615 -0.06014633047259319 0.45938157293011206
Ni 5.270553404741543 7.56414453862547 12.250356908298837 -0.8080702127883309 0.13677394642966123 0.15143231977278435
Ni 7.3231051679199854 -0.26512497430041354 12.270347730114183 0.5160697696507758 0.5364066814359149 0.05362421308335926
Ni 1.1161328289685903 9.026468387714361 11.66294409939064 0.6795137691724555 -1.2754533158666805 2.26447134138841
Ni 1.2634606390457361 3.0775213846297844 8.970572370572288 -1.1551822521880493 -1.4597813579262213 0.6627869433360778
Ni 2.3708575668817033 1.6453927698859723 10.640745582779163 1.4597841861396987 0.47387462433996447 -0.7218166437057246
Ni 1.5361435886702293 8.034728190823103 6.919680703611179 -0.009420007762319261 -0.07045439726682061 1.2929339891499476
Ni 4.863742747485841 6.463925166494481 5.280083145368485 -0.8321285392891153 0.34932833032474675 -0.2577114400476981
Ni 8.173595101901915 8.040255733722338 6.940315030420764 0.5543869200634194 0.046897950103119236 0.7735912051748547
Ni 0.010013744383292309 5.487713423452817 6.529234506693313 0.02319315028701167 0.391497507493629 -0.6858337978532124
Ni 2.6265087176558146 6.23074169009189 12.244936616231975 -0.16776988059054332 1.7528287542710521 -0.060777793409005
Ni 1.7480418998787473 1.8922530191006024 12.856069275896497 0.17121798704014382 -1.0694220778020938 1.1505177568328442
Ni 7.436653549168468 8.742299515614343 10.025520891356402 -0.603630744690896 -0.85309665690035 -0.29926946599514265
Ni 8.884310617761875 2.8830673754730842 13.087543155697581 -0.011775395368373269 -0.4031877993473637 -0.7093614486615073
Ni 5.695963373013082 3.8659708371158135 5.159603793662105 0.39034539616705677 0.8268667766695438 -0.7288085016425254
Ni 6.372221121446462 3.8888418479509603 9.65737370083436 -2.0398502561367775 1.019953538758321 -0.40491378089953495
Ni 5.16558509008292 0.7987042820737158 11.654573034422842 0.09552239597904194 0.5422322869787565 -1.1483233202846868
P 3.360425246912069 8.411261113093438 11.336844735201591 -0.5739998091983405 0.794280100982774 0.9692336438059501
Ni 0.14751389485468216 1.4073784226576815 6.915896674243343 1.8924576536510056 0.20537869208225276 -0.26199875456914234
P 6.046224424720881 6.259176910777512 1.5685837571048988 -0.30185291045160273 0.8659346892052828 -0.4612240254554896
Ni 7.696723067566844 0.15664763240824536 3.539312301920374 -1.7335035715798792 0.6783932824147672 -0.4486693287189305
P 0.17452827117980338 1.842431799105002 11.203002113116263 -0.2220281277134757 0.5136992125360701 -0.20955827738123908
P 6.523096459055953 8.134654799686404 5.588594289722105 -1.1726336148952772 -0.12996900769268582 -0.21272201982120137
P 5.710400985063325 5.802682534593354 8.212704072093127 -0.4755327287686778 -2.2359166696791686 1.3723661644353462
Ni 8.485933359291076 7.59008640662686 2.2151091914525876 0.49087115889796107 -1.2766478503954142 -0.453664982161309
