# total energy = -381172.2529706977 ev
CRYSTAL
PRIMVEC
9.21220666037772 0.00000000000000 0.00000000000000
0.00000000000000 9.21220666037772 0.00000000000000
0.00000000000000 0.00000000000000 13.48299563159223
PRIMCOORD
 96 1
Ni 3.9957210157811347 5.478665222789871 9.419679548298411 -1.957347669456171 0.21058851841796633 -2.027686881301366
Ni 0.37813713872111654 8.75936238088168 2.4281258401919668 0.6037449016712569 -0.04597672384043049 -0.5714361622362223
Ni 0.4044112738270306 1.845932792815102 9.02744589068277 0.4554045905602351 -1.4167002104660311 1.1010224783161942
Ni 2.7774803598867805 2.6440507561302296 7.287977651005896 -0.9341314007861783 -0.2712423846545974 1.3834275644558303
Ni 5.246259668828931 0.2033465687296744 1.4818350573061492 -0.22493990204363196 -0.42447061998554 1.7566707537249617
Ni 1.4759429298163198 0.4966355976441535 13.370318787505157 -0.0983107573574565 -0.5138023137728377 0.7201382275620372
Ni 7.382330915821924 8.312588773937104 2.4388451640618314 -0.7452540487930585 1.2280316320496076 -1.9031429012789935
Ni 4.342422419908295 8.221701141331325 4.172313493428941 -0.5839656621618008 0.3802569015828032 0.014833979689038969
Ni 8.061104739626826 4.827352987551546 6.735565825875937 -0.6586736924986528 2.31810609599473 -1.0246293469674352
Ni 3.7109164293590458 4.126912053277478 5.99654877549233 1.1707731646477708 2.340208841431041 -1.4107126254240285
Ni 0.41190448286428405 1.1410607870547802 6.530678054943247 -0.9710768676622759 0.5844035210301677 -0.26133386729163377
Ni 7.5971780035608285 5.24283272788738 4.511329153396057 -0.05575205805963947 -0.7857576653340596 0.9269960752929778
Ni 4.7968421585235355 3.1578523799853713 13.387765786024525 -0.6198418072331195 1.0604887798682057 -0.5229382146358349
Ni 1.2697737409132812 7.9021941717726065 6.621741640699522 -0.12879684176145562 0.06751022703683213 0.10763357742027914
Ni 8.71362377396016 8.832866579195233 8.104183782435909 1.0488031160001616 0.6536052768368099 1.0550503824614539
Ni 0.8286186589156224 1.73993714100463 1.7652882129859646 1.390774748849521 0.0177030737067179 1.5003909039174674
Ni 8.661832747149933 4.058456144307931 2.2131258298196497 0.007915398192334756 0.31613333163001683 0.4505955992073659
Ni 4.808486387959347 3.3962182317667 8.667314931435733 -0.418322340995957 -0.033307098792561995 -0.2132192711725941
Ni 2.8877504756673607 8.754102210780534 2.301911236826339 -0.5202578395901943 -0.6963516666654008 -0.3698238791749373
Ni 3.88482446993597 6.648458882954062 11.454627479674445 0.5245258708379289 0.07306226720331288 0.010221677728008203
Ni 2.256926188423688 5.3288286786653 12.596098209933253 -1.4115502908339754 -0.016255799737230067 0.38873897091188536
Ni 5.200263120116113 5.6927016363275476 4.91533416890179 1.0955869091229196 -0.3263457533866444 -0.9064601601231549
Ni 0.17081826640542824 3.337868113691997 7.45162052950978 1.5974752450669907 -0.047911221858982 -1.3476360086785177
Ni 7.363261647679417 1.872657404835107 7.851202764515409 -0.3450672410555477 -0.21533554618464848 0.7415634873153486
P 5.2703680141086116 8.481632769306666 11.546972483401069 -1.7159069415440384 2.182519485004951 -0.39739741791783173
Ni 3.7631772787177113 4.0878522963092525 11.207322102383218 0.29245270018362535 -1.0994049973174294 0.8679730597915504
P 4.046084150532382 0.2554452832480947 6.474076413725283 0.02373051084772042 0.6400743322299106 0.3258222767830066
Ni 6.7381120798443375 0.1854684389305624 6.178030171305947 -0.016075822515940055 -0.20994214308321907 0.762190676647397
P 4.866127166107975 6.859492117064463 2.2403350039190246 -0.3251111096485949 0.959074186774445 1.4324908976413846
P 3.101796101411869 3.8045400873939688 3.816402646131701 -0.4179461886034608 -0.2981793182547574 2.0385562199157023
P 0.2773730991706104 6.24739624631051 5.663680421144294 -0.7211077905641581 -1.5818215976901338 0.5419047284360087
Ni 6.834342792412753 7.227381596905521 11.801180567271608 0.807854497233099 -0.6922399584898723 -0.009799759699241187
Ni 6.093755060764269 3.3656797661181934 3.916257440867876 -0.6800858396258416 0.7047560886790121 -1.3637308573578513
Ni 8.419441160982965 9.044618365438541 4.616982111112374 0.7224308802509558 0.6321615051407371 -0.24117873249999755
Ni 8.99908242706733 6.395003436381707 11.433526919925454 -1.1377375743490405 -0.7039688168910263 2.1889369584955207
Ni 0.4191554108618525 6.349504346837823 8.420413970024438 0.3337775270743413 0.9676555006855527 -1.6042806980245985
Ni 5.312449374917776 7.327877561237211 9.339172230351071 0.328658203569905 1.2162744915136796 0.06338154958043923
Ni 8.007415998209181 8.842263030164004 0.06911918786146108 1.0398250808712672 -0.7054775402260689 0.051432090528046905
Ni 3.1059231700726624 2.069181413184907 9.727185776016913 -0.8475194199228888 1.1250322109672302 0.5861927517201067
Ni 3.605924908093276 8.326572903908275 13.087256229395024 0.4769972291293463 0.644877667155825 0.8937439981080673
Ni 6.764551113452547 0.08874303085526147 9.77549550986528 -0.3911408954851586 0.13994051708310093 0.32323394723054005
Ni 6.992958569648343 3.663252471209612 0.420563957286485 -0.26496889294105974 4.147807492354121 -1.2404042946823477
Ni 1.2195948502986766 5.823118848449994 1.6179868681815943 0.4569369680443614 0.6425837289153256 -0.6387394154685709
Ni 2.285474817396455 0.49613168993043605 5.2376176975997115 0.09701003626816196 -0.4548813710669134 -0.4882902855446623
Ni 1.5554074259502613 5.944489673463288 10.386531055612856 2.743058026492063 -0.5852203605045082 -1.30786335676627
Ni 8.272902586904294 6.229156076782895 0.37981560280593035 0.4160461433672706 -0.5682364243520021 -0.14841590154396375
Ni 1.5058549654002416 3.309218150444077 5.379446070325114 0.3248995078584211 -0.35701464322541093 0.5563571564159129
Ni 3.8889791752172598 1.419803741381328 12.130422075789836 -1.6647273333464296 -0.5668189751791851 -0.645499874120856
Ni 3.3435059842732597 1.5714550902518296 1.048800535631012 -0.4129726466482694 0.5009002609991889 -0.07799801394203341
Ni 3.2351151586864346 6.0496654388657 3.545623644611528 -0.3602676029450699 -0.17955118949618754 -0.824557926030709
Ni 4.303768000040684 4.056051758324744 2.157818503661599 2.1583050925422764 -0.35121886247924033 -0.28028572580378824
Ni 2.019896106633019 3.6459611589857066 1.9682478690286898 -0.23614502673083201 0.40429774458209083 -0.8540299673478969
Ni 8.621105580745093 6.442731879978965 3.008083084970674 0.791228972861276 1.5446413890954105 -0.8734448815393989
Ni 7.772274418819097 6.672281649821946 9.601039342981844 -1.6502864753307516 -0.02428329802739689 0.21018151278753477
Ni 9.140978048902607 4.2719490376425115 9.530118247464017 0.8511035377297214 1.6244296621686476 0.4202049027306505
Ni 7.04379152694803 4.174493101565423 8.625976074497238 -0.18505874957797808 -0.18434835377451478 1.4587732283766812
P 5.992061509544401 5.182234831345638 12.50991433013596 -0.3832388670292625 -0.17614756313127727 2.1761171810230326
Ni 1.5442422312697215 7.798427874015509 11.802435269842144 0.5481633077512108 0.6754671099069077 0.7094681494427006
P 1.2839236906074307 8.538554995322388 9.566710975442598 -1.1380296516681625 -0.47085589211829876 -0.0755220415977151
Ni 0.9659275229691828 4.97715268284879 3.9273001131975485 0.40419438623500714 0.2582799109566584 0.07387319314038246
P 5.9057615559410195 3.6311571426064764 6.829136974331917 0.973558239323233 -0.8319945848144124 -1.1153975160909435
P 0.7978931854684238 7.667872478790583 0.5607350540027877 -0.03983615816033139 0.31659664441968055 -0.5577021004795815
P 8.04818922564818 2.691843685175313 10.319359328275707 -1.6732579965252605 -1.8870351970838535 -0.21494113895970723
Ni 8.41167527062348 1.73565346482769 12.285301381934314 -0.18485974619329454 0.9526531137394496 -0.9586509831940975
Ni 1.3265393594128578 3.526736778164298 11.242579981591826 -0.09681977463422681 -0.7157881781234576 -0.302627326723782
Ni 8.610419420819824 8.976604642396936 11.146540882925517 -0.365150642068984 -2.2125540836938287 -0.684601468108008
Ni 3.4004374224958145 6.763970744422122 5.883480912496833 -0.9200232435195704 0.3000461962601671 0.023329675864875946
Ni 3.631848058118886 5.869483885436097 0.7689825167671546 0.6771784361710594 0.6223221504528121 0.32862323656691145
Ni 4.875376221767432 0.9833293816750738 8.604740095307816 -0.09979454099183459 -0.8002789988786863 -1.1326866421886945
Ni 5.940242846113677 5.2229988465778066 10.480521359479697 0.5111054836669648 -0.57027608048985 -0.7157958914329415
Ni 6.532661443074204 7.556109985503198 4.232609229586589 -0.2130884020216846 -0.9320873737729561 1.6410857826680896
Ni 7.422846201469626 2.2944659312646127 5.446536730242141 0.7762317281214954 0.7882984294780423 1.4148641856985569
Ni 5.510631580497359 2.324414815675863 10.726329753160702 1.4175170499403715 0.05876384830276976 -0.4273469130920705
Ni 5.452226189181663 5.6458022913451815 7.329720923824321 -0.12072820582070823 -0.7623475139402355 0.8368393145012233
Ni 6.075625437718639 0.9325609098232129 13.058861444276355 0.27612413822693094 0.37266417683720976 -1.549250348622332
Ni 2.920315626818935 7.401492306032752 8.33777678985751 0.409272829199179 -0.011217465982374228 0.40107923764479314
Ni 1.1846529497844127 7.49622142888753 4.276334048094604 1.468485827678755 0.5667037897575595 -0.7425297078833598
Ni 2.307676235861885 0.5208268527853233 7.922366141072918 0.07358780068947973 -0.9191624381811718 0.27900300243662274
Ni 7.912935604938869 4.229941374488004 11.815041253671229 0.15161101144249373 0.8299698410748996 -0.7622279576432356
Ni 4.780029881054902 2.188286035317498 5.578629642787349 0.4848447501982231 -1.5644463396364798 0.5864956276725061
Ni 0.30860800765562574 3.8524711995415344 13.475364660791236 0.15203112969904783 0.004719516962856388 0.8518841246494877
Ni 2.251030376051126 5.350956399476073 7.299451454615312 -0.9745270309944054 -0.8100065105790953 0.05940302454866544
Ni 5.238438505228453 7.7986489669794805 6.869141903721119 0.25992747386241044 0.3260408205517159 0.04773715817496295
Ni 6.131930445876609 7.208091235799043 0.575459845403262 -0.9264674564830173 -0.05244433384264516 -0.49650367459339
Ni 8.00339026382354 1.968777570921537 3.239424629042504 0.4034068573367053 -0.5130883184249486 0.03534546937882945
Ni 5.980831829416035 0.8685222540296708 3.893956530568659 0.4792086349583682 -0.4539362335448247 -0.39968441417979556
Ni 1.1788584716870039 1.0520708690564176 11.188580788803936 2.064946536983773 0.635558446637428 -0.7731008958019976
Ni 8.050962099904652 1.9554475076354472 0.9760489746156424 -0.3030639000405684 -2.5811906274288834 0.3998615631876081
P 6.003466221602576 2.433929530496208 1.7238950040271612 -1.6069680150487744 -1.5017846989412007 1.7839409022948245
Ni 6.645824191800073 5.461567366909441 2.4004321040132215 -1.4889248122593972 -0.05457140748797698 -0.48760945742755385
P 2.1964204139502677 4.182222143097579 9.167479725517275 0.20529975921520127 -1.1495726193107558 -0.03077276240648249
Ni 3.234157089175893 8.945071258410561 10.28024521928717 1.4976287677912983 -0.08820735037486743 0.6076822890524501
P 2.2636234627906457 3.0203970418431805 13.1377768928831 1.378012049867214 -0.6148127294496443 0.2053154429444851
P 7.2930093583776054 7.425913866344724 7.7192305318797 -2.3287419784420216 -0.6227736361679339 -0.9408021279381346
P 0.6079098439694351 1.727408539712935 4.358634982712158 -0.8240246792350584 -1.1902883518625629 -0.6695862256460985
Ni 3.654187659686798 1.4924696288731585 3.53845009915135 0.01623677357383655 0.8077241423028219 -0.7483321734977499
