# total energy = -381169.9755110679 ev
CRYSTAL
PRIMVEC
9.25149251102749 0.00000000000000 0.00000000000000
0.00000000000000 9.25149251102749 0.00000000000000
0.00000000000000 0.00000000000000 13.54049444507834
PRIMCOORD
 96 1
Ni 0.980898735206247 5.651884742584458 6.5279668441322976 -0.5476465160157923 1.3087899823455975 0.4724887997360314
Ni 8.679417133684508 1.057205044677331 7.047583391884485 -1.0673605672873747 3.0185594435333303 0.22616606114124924
Ni 1.9137637217735675 7.673715147303191 10.195721013605038 1.1814082757641136 -1.5706563251019336 -0.7192455405444388
Ni 7.762103905873357 7.020189722832124 4.815988348656591 -0.23043846326435793 -1.7620893536373716 0.6511627288335882
Ni 4.234195295804704 1.274994427710646 4.21208237862505 0.25408515614902044 0.7938877506403618 -0.332129449947957
Ni 6.792279207092533 0.5343023668179495 0.36650434821940014 0.511521488158461 -0.33668107387438145 -1.601124926004436
Ni 3.840914353077283 5.038538549688671 7.185750730563783 1.866114387770786 -2.630142117626922 1.9111991959245662
Ni 9.18676897793696 2.036447762740595 3.8286422483836127 1.1446839237598865 0.2902577494148356 1.3802910757093778
Ni 5.534548064235554 7.381414244328059 7.879769012203132 -2.412056262390646 1.660844453352256 0.517420113031083
Ni 8.911120761315848 4.4082713771587185 8.278847865229476 -0.3427221378621388 -0.4682814465229032 -0.6282295170761826
Ni 8.792303844179921 7.151782950998552 10.872800737774622 -0.10392964620613068 -0.7518630694691438 2.244836854986934
Ni 0.9834521471138633 3.424939499446301 6.019372524447987 0.6089716972878351 -0.3548562021215114 -0.7480318686485117
Ni 8.215380776937343 5.812213106203987 12.991318489763277 0.5988173824626527 -0.4339587619816333 0.1655967841986245
Ni 5.606062100633648 3.8137797258126502 10.587217343444854 -0.6545563278961695 0.4062900924217713 0.9523939465407921
Ni 1.04308726724609 8.47704073702108 2.4130510400844662 -0.6377953063877468 0.5812600903051797 1.1026451015212815
Ni 2.5478887666422017 4.7940863655040875 11.629484003313387 1.7189318444132913 -0.2106566526517404 0.017350318352989474
Ni 2.808244266294874 5.235142015082706 4.764426080809096 0.578481756229094 1.0439434739150149 -0.6239913106251189
Ni 2.3050000846764123 4.526764492059985 0.34812903397698186 -0.27928325268120285 -0.07829600479842645 1.5494575795371315
Ni 1.0179047048818455 2.5974490115302467 1.5843190018857953 0.10645009863513924 0.003834029034109526 -0.6464761219911963
Ni 6.088656951173125 4.468572604745106 1.2665145097594825 0.6059930742754854 1.535783938704781 1.0792089819855286
Ni 3.7870706671992873 2.765826173554219 1.5355331069132123 -0.42747469691918644 -0.9201114323580025 0.8821763478751258
Ni 2.0699196623121736 0.1984491381316055 11.550583575368043 -0.03856911852244971 0.688116423239802 0.09834289614697257
Ni 8.598642353375094 1.984926201459743 11.431399373983085 -0.4217218535958092 -0.10184371021137943 0.8702783108859593
Ni 8.194157853328388 4.120577717408199 5.611005173033066 -1.9112097374475276 0.21669231732285907 0.051492254342020996
P 8.724444147287292 9.011471699583652 12.0475598708727 -0.21887466968615857 0.1615616948973024 -0.10285106842997126
Ni 3.1800062376559346 6.829192661843943 6.470934168817507 -0.6792923971902688 4.408169739761105 -1.1805338435789603
P 3.796238896186417 2.675004272477882 11.362898548665827 -0.8034468550837066 2.067872966601948 0.15539001886895173
Ni 2.1965910965117468 3.1769439936652786 3.6445190462626735 -0.24204519426535087 -0.43509776068208295 0.12299848991212364
P 8.139129976420772 8.166116579806703 3.0381077720840945 0.24238457988264062 1.0696766170150611 -1.02131570921317
P 1.7060954714465286 1.6965294282853864 6.832736908589623 1.1770335437351858 -0.4194626252479873 1.0889506347533244
P 3.753006672112899 7.786527845859252 4.52161788682735 0.7442626314140666 -0.7297587813709367 -0.2028289290772055
Ni 0.1310464649644707 -0.0025756154894216437 9.801259580444965 -0.1019835782233534 -0.08273167197227688 0.7917390797284752
Ni 1.115952021537343 7.606752845175196 4.768298755535647 0.14897845891565312 -0.826597582168557 0.24523464773692608
Ni 6.143481295247525 9.16861754981108 3.2820529744841225 0.341504977625586 0.5421698091719371 -1.5511784188829802
Ni 8.758989219979464 8.147511828552295 0.6830552631229522 -0.5289057450731794 -0.3570537239934625 -1.0426065002711464
Ni 0.6056794811282434 5.087275411751435 4.177757491452449 -0.9727393429663633 -0.6495827859409781 0.09250392086769231
Ni 8.194907224214319 2.7466015723077457 0.5595052824655157 -1.0099794582647446 0.7007017161039804 -0.16370599493381485
Ni 1.128894859431384 5.1180828815063695 9.922542020310528 -0.1984320855610905 1.365985714830299 0.32722532777812036
Ni 7.761206511108725 8.595811396694913 8.19562791547375 -1.3736501733540925 -0.259558777669082 0.8604579823614279
Ni 3.2241173535092478 9.327817231355505 5.910168833084537 1.1553316332817198 -0.1474162566348558 1.667269125931677
Ni 4.880227011416461 5.9768896712604 11.943677637948603 0.03749542584229672 1.3468322818303 0.453752913889425
Ni 3.433497129933783 8.819308950550688 8.138148393075127 0.6698248240194657 -0.4559303811567181 1.1994216816223988
Ni 1.7674883751383463 0.6463231376229532 4.404817795038744 -1.3422472335627786 0.6653616460417896 -0.007178262915994089
Ni 4.434184807424057 2.856768344032002 8.642789550048843 -1.3664611118048209 1.27409191674278 0.8751160985942348
Ni 1.5661573971182536 6.258338573628162 2.49971069472154 -0.08446279573077067 -0.49751360391514327 -0.6109707299957349
Ni 6.928914498627261 3.9087092895229794 12.553582275664558 -0.2888464708896058 0.11799897981500324 0.4494995379297097
Ni 8.227620501407547 0.9688625435692587 2.0321707977953376 0.2565392741164679 -0.6904052192739787 1.1448536165685315
Ni 1.03148589575279 8.905236812137428 7.054557166869852 3.2965538021997807 -1.4430712442603921 0.7609686313148378
Ni 5.059502431509897 1.5062169777362033 7.048125529340234 0.11074589779701571 -2.130361829164789 -1.29040350941861
Ni 3.573999545299611 8.867453717098643 2.595049174396784 -0.2864363187862164 -1.1837713766796516 0.31410473123576227
Ni 7.1906577221427685 6.092866380223724 7.6273337152102805 2.014115056154202 -1.6209558446874341 -0.8506497380217543
Ni 6.783434780340065 7.856469128546133 11.783642546638752 -0.33947380612817024 0.7596702242183884 2.2278205229345955
Ni 8.004030432627582 4.526135390575499 10.662665114419463 1.201313756438789 -0.3316072588958998 -0.6569351125409912
Ni 2.178818979575041 1.1945712041131518 9.376101695438983 -0.12119768925795903 0.051589699151833736 -1.708528646802096
Ni 2.0840374397434145 3.652489206981555 8.3644639515217 -0.020972231376292914 -0.6692257569828862 -0.9679090114572556
Ni 6.865347494217001 1.8715676648509667 9.999871544843142 -0.9925728327525228 -0.9467436902335501 -0.2136393894291482
P 7.012464726662344 1.802727309761935 5.969746593963767 -0.008740722307107528 -0.19902241084692177 1.2486814470894754
Ni 6.459530779261972 6.298924870869875 10.141667318849132 0.5434962412928446 -0.5523130682535262 -1.2118956457196937
P 5.687641760783505 4.831971226959482 8.678048837955753 -0.2372300322648947 0.054592233423583394 -1.1776266972344944
Ni 5.145273017725516 8.438406504679755 1.0693744578051514 0.923235579809281 -1.8125053441960783 0.13172712803437314
P 6.3723262117214245 6.443571954839371 0.19673946233259285 -1.3726746968147006 0.6950553164514803 0.07679808009666128
P 8.773597326508906 7.597223807983728 6.591837297493897 -0.8321262252962701 -1.345072618826716 -0.6916331781438089
P 3.11430213849691 7.5440739840371505 12.176181519674179 -0.5608421887704599 -0.9044783538064358 -0.5867748494758217
Ni 5.771432527621478 3.6846196401523934 5.877481460070081 -0.7521494903613111 0.6778260970573875 0.5105308421104175
Ni 6.103311315164663 2.279937791713613 1.7798030366971436 -0.4487480044756659 -1.0482575279093365 -0.104006265080337
Ni 8.14444033306922 6.064103490293366 2.646976876194826 -0.12399144995301228 -0.521088820131922 -1.4974811864698405
Ni 4.471773621122045 3.6749888365443186 3.855750971469472 1.6843291667377573 0.051630065471465925 -0.8317151059007806
Ni 2.9325380669427896 1.7626775990805186 13.073617916023322 0.4274489858875735 1.1156775092252076 0.7011159208232635
Ni 9.324024119463756 6.9295343486193275 8.833858772677893 0.3068727322636973 -0.4618896840639464 -3.2584135436846333
Ni 6.684360548026069 3.011527309215354 7.947092122535464 1.9719008846799975 0.29034799513579673 0.007178262915994089
Ni 4.552603910385971 9.028485194142007 12.581976031047402 -0.16463159207187775 0.8307715110405886 -0.5439446416841729
Ni 3.3940857722292708 3.256257038172505 5.828640981292227 -0.5765125483178652 -2.164662916439504 1.0230383483312318
Ni 1.3852259598818344 2.9469518921314353 10.558187085383588 0.6431593989131374 -0.299732007453858 0.9056173525068856
Ni 5.181927430689196 6.856392049555507 2.977554903903913 0.017725699414537215 -0.5959935398606122 0.5952998562276974
Ni 4.781902149988397 7.992419809641862 10.422673999879272 -0.6494084651466429 -0.8351950940295809 -0.8479043140661332
Ni 1.158897449345875 6.576599164330727 12.86402443012391 0.3919711046959378 0.26585875174518087 -0.5433144642993417
Ni 4.516347311596304 4.182673734523853 13.259014123501103 -0.4222705270104276 -0.8726234140793682 -0.7776887722829962
Ni 4.339060962372931 0.9833318777124177 10.338140338200063 0.4288263258510744 -0.03130986585687511 -0.48745956211325076
Ni 9.025959536711648 2.1539694709378763 9.104600922869261 0.02789184131426164 1.0515973909158471 -0.8697149821833215
Ni 3.0864366433311843 6.754773656826314 0.7170859528366323 1.4175502171711523 0.36409777532443743 0.11932129817085257
Ni 3.578079453456346 4.977404687784583 2.2458673205825317 0.44138487924237535 0.7088274305349083 0.0370789071301684
Ni 5.97789808393406 8.573728084290998 5.421126617478328 -1.488844336730449 0.6338921146785986 1.6713232413963923
Ni 5.490649732707875 6.2537220789111325 5.640861589367338 -0.3532608326099336 -0.17332166364670795 -0.26289581246211496
Ni 1.9806982694243063 8.8768809878735 0.3482909350943126 1.4187079849246793 -1.0066357386034923 0.2870968351883507
Ni 5.590528844862316 1.9903013185551237 12.588922976704753 -0.5262068580847775 0.40079693051768395 -0.2723345892775116
Ni 0.6175907776175767 1.2240094529900905 13.236429380208085 -1.2812848349467933 0.08713931412166928 0.04721445290227353
Ni 8.237371574417066 0.1404709602916037 4.909092592912671 0.351532279954601 -0.05897956385800165 -0.3237247708240296
Ni 0.6646457183585839 3.6372982564297223 12.65946838184659 -1.3003588208591088 0.612970534034583 -0.17529755642615616
P 9.531442579495483 4.5459705903216205 1.3674140615277273 -1.1094754941795537 2.0197182612735927 -0.00016455060232229725
Ni 6.524911076186335 2.29745086686259 4.0624052582273995 -0.14291656899228933 -1.0110958312573746 -0.8388972254715166
P 5.791119703488897 0.17073721774003367 8.880465941185824 -0.643346318112963 -0.21144212466751328 -0.3657710492618023
Ni 3.8960902538636 5.690213675675959 9.614698610071645 -0.6292031938433615 0.14735146483519138 -0.012247707019101488
P 2.159224318631811 1.1512834710851207 2.4174926815947795 1.2445813088781725 0.16421764446291073 -0.40181405892828864
P 6.3393816472177225 4.967838644623441 4.115985276571457 0.8764551291206326 -0.11825968967555761 -1.0129909913975585
P 2.1542377642180246 6.374426300500514 8.29278061281234 0.437629268854685 -0.32663757359545037 1.111069063918919
Ni 7.998220495388512 3.6633597105737623 3.0332470379672047 -0.4552343835309579 1.7944891101243161 -1.4567284300325105
