# total energy = -381168.0320968898 ev
CRYSTAL
PRIMVEC
9.21956435318297 0.00000000000000 0.00000000000000

0.00000000000000 9.21956435318297 0.00000000000000

0.00000000000000 0.00000000000000 13.49376435872977

PRIMCOORD
 96 1
Ni 7.124483013625528 5.373881323645105 13.30246340749086 1.243200883590878 0.1411828741306343 -1.4496090453789099
Ni 6.394385699917589 3.055354459723414 7.301408300524354 0.5379390589200412 -0.04100960964314228 1.9533197792437005
Ni 7.57867563974635 8.701249814731558 13.408564921764697 -2.181529096067224 0.41000096561445515 1.323728863043617
Ni 0.2934817873293087 0.7558411036948899 6.0096366776143055 0.4521498310683632 -0.3429831048330093 -1.5234742680994926
Ni 1.345346512289475 7.480413521177096 0.5680053841525228 -0.005088984487133171 -0.058992933594440335 -0.49351296739618233
Ni 1.0044531144570337 7.3832024329622135 5.197636440607266 0.8852251620037787 1.1601740489756858 0.3221155173553807
Ni 4.296639747365566 8.896630825870572 7.692673711024742 2.6515439803414655 -1.3480049619821621 -0.9016442267917505
Ni 8.41900206676016 5.357442840120149 10.840809258215005 -1.88664490362397 -1.350723646464906 0.06571456858899005
Ni 1.1960264454525793 5.229991580305796 6.195392463402759 -1.9932693230534444 0.0968547416372203 0.34748073559304676
Ni 0.2085179686122121 0.2624690162237302 12.531591647772002 2.383446311963437 1.5784123148982687 -1.1674209603460861
Ni 2.7869637172136046 7.358355706602283 2.5382180227660363 0.1771443798269078 -0.5266125781636285 0.8906910702143563
Ni 2.6548289186271394 2.651952414499385 9.624954295366397 -0.7099664292353579 1.822307932108797 -1.8868050833509182
Ni 0.5728179968278043 4.912432900253313 12.731596270513801 -0.12747812295003208 1.1955056343974442 1.8241113038661232
Ni 8.920159154505283 1.9403311080735617 3.354982008756444 0.8907954570027045 -0.9308735559705131 1.3874909358919267
Ni 5.124270834046308 1.7527406289472147 5.782672204326418 -0.3147403079372321 0.5018772802004776 1.122697906407099
Ni 3.7019501776458648 2.1538838808657954 3.866867903724219 0.0037934056041612086 0.5245232997347676 0.44766042783844195
Ni 8.92703694963126 7.283022644974457 12.349344828236829 0.7174259708371966 -1.8879492242576905 -1.1782159940790613
Ni 4.244051351388927 3.820098896867575 7.889197026206799 -0.48052144023252086 0.18655975960353677 0.9952030712865182
Ni 4.926299125279411 5.084488413176883 13.29031939711561 -2.3330758299306855 0.03492869355638501 0.25948035902266275
Ni 6.749707716211363 7.262306283515918 7.298966037885116 -0.8267081396044924 -0.5452811011074093 1.0669383921482916
Ni 7.946241237712104 4.9465084106897885 6.4533521906236535 -0.18728609624660003 0.3670707419098323 0.47621818487147666
Ni 7.8260549947332345 2.5304938716178547 5.689078873226057 0.23658160004761833 -0.16781950288155614 -1.2826043250891652
Ni 0.722663578841886 5.481067980662008 1.6428388101815183 1.7323118652646232 -1.607582765814638 -0.024086608635558518
Ni 2.284073351340221 6.74719999466409 7.191137699178177 1.3724870062839265 1.6875397032552548 1.2919068334370138
P 6.5332046827752785 0.38166784384336105 7.872208134680475 -0.6078887486363014 0.23122419239044695 -0.20406382992557115
Ni 2.670603593507229 5.41552609654596 9.161496928867432 3.9313332045793397 -1.8693148969859548 -2.304207997856399
P 1.1876089830530927 8.420357342743431 10.1598466916175 -1.414122679546842 -0.7143493887944019 0.6890206802216262
Ni 4.623998824494342 8.782612471550253 4.688570810423723 -0.46403526965203956 1.392248248071254 0.3918024403285575
P 8.411681732537607 1.7436777970318855 13.747852271459141 -0.4861853233865175 -0.2285602724050386 0.7355923573335783
P 6.048827202442058 7.364431399615714 0.9197999950639926 1.4729760022396245 -0.41584611154132245 -0.5291332877029532
P 1.7436501383383494 3.4372564805053805 7.400048421238601 2.408517138889136 0.645597833151301 0.3496479184476946
Ni 4.559526409861691 9.140220939843012 11.82279152808686 -0.25618960408653296 -1.3564831746565027 -0.6524541939515021
Ni 4.178749175950193 0.21443508511603526 2.3466871017672464 0.2616480560979429 -0.0396500102914543 -0.13960293123802409
Ni 6.525672298568947 2.86537611338845 0.07425160671056479 -0.08567969885700728 1.9717584455648622 -0.08174411124802697
Ni 9.209496747586433 4.660268591284683 4.318261470059188 -3.639132215395204 -1.2530934601142418 -1.0586717812641253
Ni 5.864740157830284 4.691919356254493 1.8366229927470497 0.519963191167911 0.9844188361868206 -0.010309352345808051
Ni 0.9815056183865821 3.017360634369324 5.3869399148199495 0.2083272331876154 -2.345559821330309 0.5466923796326392
Ni 8.40570745473381 2.9002813846310094 11.944343188569961 -1.529992014613352 0.9472599677483364 0.6522593043318766
Ni 0.5778491131820209 7.563140673543573 2.742702431904234 -1.768478287882851 0.31289039921268696 0.8404100625716171
Ni 7.884488594610503 6.100779448467368 1.7772904853298575 -1.4833149222717874 2.034781326254302 1.4442778629739836
Ni 1.1823630508457454 3.446660436307655 11.27607780621843 1.3320355831370994 1.0456560857307475 -1.6773190539685112
Ni 8.155599108651362 3.870889477764368 2.1961233156776774 -0.6284364908806661 -0.016485913470165155 -0.22731225893055046
Ni 1.992587599727768 0.45938508485399926 4.028455523100827 -0.6934532620716832 -0.35868200362550484 -0.8095516824298639
Ni 0.788728212265765 2.8295488856946878 1.360117176594204 0.4024414080996424 0.0448526375383163 -1.452444715055492
Ni 8.836786632622962 9.252570552986652 8.025861396838026 -1.3943167005645083 -1.3762259045010685 0.6999185580810526
Ni 9.420458822750785 2.3315725477062186 8.017293655536992 -2.14030839885454 -0.3300797665077799 -0.23466484264087972
Ni 3.6983361083571475 6.709611830148529 4.993259900373859 -1.4615808730288053 -0.7469085536773459 0.4837319767500185
Ni 4.732061340139888 2.7847786804242527 1.6391546722025099 -1.8418071784839893 -0.9451143821602435 0.2890213059045732
Ni 2.251500629919207 1.1653345151920196 11.306641584532272 0.6910819336260291 -0.9399405512687877 0.17399066468927454
Ni 4.02572284417946 7.3036929086104365 0.33927536426057947 -0.3408768571232839 0.9005124271801522 -0.23546214173119445
Ni 8.126234795680535 7.292020939938202 9.537946499196982 0.9272156475029516 -1.1690890920771284 -1.3072421782425037
Ni 8.147642624477477 9.200544550445247 10.520615626624982 -0.8150574427394414 -0.3034238544831484 1.2879110820140593
Ni 6.405412299073982 5.681280043605328 9.093609587539524 -0.2844036046269037 0.4118876411142068 0.6796718920168746
Ni 5.49563489259102 0.751325360996896 0.4633209169441864 -0.4186977220575047 -0.8918223556053222 -0.378978806201328
Ni 8.120444909166979 6.685161545062616 4.636754091996741 -1.7372195869788853 0.4878205449970954 -0.2519295432585984
Ni 5.391601326637233 7.981542950228681 9.622538769464244 2.8821071421091458 0.688116423239802 -0.994620459310171
P 4.679297772437519 6.106099137190812 7.95338640020893 -1.8185543786036356 0.4839024408896118 0.07750204814222135
Ni 5.786991570300305 4.579726475707557 11.319513940503972 2.3743356079114206 0.5513383630450828 -0.840960021537816
P 4.373789063202263 1.9849169220537561 12.318485101902152 -0.05762253560947495 0.2228771059773323 0.548775487413913
Ni 1.7608722848468281 0.6931323917533913 8.850182659858948 0.873772697192463 -1.1324321029757272 -1.0087733537717853
P 1.6211774433604955 5.658443182309021 3.8531445819480568 3.0159425747357735 3.024912896555184 -0.556385438550687
P -0.2915060346543799 7.019711882510778 7.411464086017402 1.0007299146420183 -0.8987607345963683 -0.6146193824919157
P 2.6139309304517586 1.573014438349632 1.9682811398482427 -1.0913157925513914 0.49204409616013967 -0.3924745266949176
Ni 6.41397727450566 1.001558171200255 4.135393251875904 0.7862860270337039 -0.3627047516316528 -0.4051508366110054
Ni 4.776536519345937 2.8464114691871973 10.322460448524296 1.2637463118423977 1.4018952842427146 0.42314187387178737
Ni 0.5594219695918196 4.608371662646445 8.878748558543034 -1.1384243160034202 -0.37976839198215884 -0.6161288771579067
Ni 2.749043648375611 8.896953510628494 6.181925445520031 -1.4744340748423896 -0.05270941457857374 -1.1839431263708255
Ni 7.31518048599243 8.496492506483804 2.3788154401787804 0.25781351284320114 0.40518503228305053 0.4416736141273877
Ni 0.6205310870904804 0.41650212443917745 1.4066981043348026 0.17694074845653399 -0.07584960014046292 0.8600751451007123
Ni 5.048891674595922 7.310017529865691 2.874981055697087 1.4140375760322035 -1.529312214937508 0.06128738605557187
Ni 2.5213019657993576 2.9432168965635497 -0.41822065126422053 0.9122114607846353 -0.3794552316171142 1.307687236199722
Ni 3.0843407705492476 4.063974817339887 5.807878493702317 1.8318577805807612 -0.7100829002085642 -1.1672854632094865
Ni 1.3290278831031757 6.096787377033658 10.489391727492078 -2.0699324202341387 1.6978819657215274 2.6438203864449625
Ni 7.207910852894919 8.72175412620632 5.680253906075139 0.25917671173931495 1.4933031438327509 0.48993861978136266
Ni 1.854211155966656 3.703167160161453 3.1501601635571066 0.6718891627476622 -1.4707424849234154 1.058264261413061
Ni 3.2877243636847084 1.6285899732281706 7.332875596160377 -0.8665543250671528 1.9522183186494055 -0.4084300215829095
Ni 3.4094410543725755 4.384151853713789 11.371276263500333 -0.7099440606378548 1.0144552346479112 0.4275952816574507
Ni 6.747218433793114 4.804895899784953 3.9886620387539873 0.5789049598094417 1.4087495881603869 1.1821574952253127
Ni 2.6658555177835317 0.13708017299071998 -0.08958189858117421 0.6432825547545631 1.8116267982458671 2.013619861685338
Ni 6.537196754208989 1.441930670117539 11.75853392930734 -0.47736001178540366 -1.3380403945702828 0.6151582857145211
Ni 3.1175404223570804 4.8181536335532575 1.603855725555287 0.5301113353455064 0.46238539275344237 -1.5036448920783911
Ni 5.38963755939617 4.990015535622075 6.16830999264866 0.3049310351562942 0.9324905227486456 -0.6892626210291033
Ni 6.923026309473082 1.779790831225521 2.1576122727544615 0.14990354183308377 0.2877234130287561 -1.6452589402091728
Ni 3.1898310276959356 7.735196186467144 9.338953262682152 -1.8235094086160661 0.025866069133484482 0.609935603863001
Ni 2.254847331837075 7.708367253737126 11.874647890641244 0.8782980958666422 -0.04510923363381263 -0.1724217775402579
Ni 6.814945354698513 1.8086849464062342 9.60514513905584 0.7632617982243887 -2.099186689113565 -1.7929672741631508
Ni 0.2014548602395432 1.7258010614430523 10.321204743837757 -0.09882446376908142 0.09350099467363897 -1.275362041704455
Ni 4.518868130363623 6.623289047622359 11.071390566660966 -1.389622894633265 -1.2150773858817847 1.1760714369322327
P 8.719154209013926 8.875813049202401 4.119471063963622 0.7705058813813117 1.274568342158566 0.04845963816328428
Ni 4.3978060287561105 0.9253953487663459 9.534167399703499 -0.7561971780681235 -1.2751031316161137 0.024508012443693276
P 5.854423465141319 7.046402521773115 5.1232179597790335 0.62545298277231 -0.9206994436509885 -0.4238584403228377
Ni 6.663043809798247 7.365519308228134 11.62663238570303 -0.13948388916165655 -0.497069317288873 0.01947842043958581
P 2.57086634461605 5.77177928885545 13.2288276676897 -0.073724326267344 -0.7670909421624919 -0.7204909829157656
P 7.05227538436728 3.778721491337568 9.414572130809852 1.0550136156862477 0.7474027197049451 0.3867839040680436
P 5.746158119076508 3.055087092352565 3.772775794183758 -1.0066907602111437 -1.2578086062017242 -0.3971721892809031
Ni 4.21854081638413 4.91337329583354 3.600230722384598 0.06958305040546083 -1.0748247368749035 0.8170374492839477
