# total energy = -381167.3596154296 ev
CRYSTAL
PRIMVEC
9.26600229174097 0.00000000000000 0.00000000000000

0.00000000000000 9.26600229174097 0.00000000000000

0.00000000000000 0.00000000000000 13.56173097582502

PRIMCOORD
 96 1
Ni 5.083347480437733 7.787444977742051 2.1748679137178617 -0.6929716944495743 0.9602964892173204 1.362198479873725
Ni 2.9729227606144404 2.148359733886151 5.342902108288674 -0.23105604224369886 0.3697596015959051 0.46532262100489535
Ni 0.24128021780336614 1.8404412062059268 5.890795274025938 -0.24180968121577712 -0.33193250344580255 -0.8395487430125864
Ni 2.5673220350224795 6.545318816248584 2.597044591106854 -1.9459594822238873 0.32876798967489185 0.409420667630953
Ni 1.353262594974151 3.8348370432507366 5.880705523949474 -0.6229353585567787 0.4624550696491133 0.20080289978611224
Ni 8.588148048141113 4.88630593816937 1.9206940534942545 -1.4858749696894797 0.67882677040776 1.1813720232095395
Ni 0.46524505681355616 0.4372005737743167 7.72576583238069 -0.3831365371234434 -1.5650436069008467 0.5099844826886443
Ni 1.8766990738238953 8.026026009029415 6.531452243570258 -0.48391735328794727 -0.20930219550637502 -0.5943575469190862
Ni 3.759226463193843 3.6676968909141867 3.208746229570318 1.4092015880961408 -2.197644256461531 -3.1939048224782867
Ni 5.267110841183849 3.8703350986671534 1.0040714391457142 -2.3444295643806075 0.2957863925425487 0.6357057708485697
Ni 8.310825860577049 8.50244679140751 10.159473038559737 0.932805482885903 0.5774003502394572 0.7216058132464992
Ni 3.8095964525552732 7.143040836803735 4.3866914250387765 -0.9695192933671689 3.4420838975555172 -2.8740521330151534
Ni 4.106423575293328 0.8994425191912504 3.7018912197847698 0.2048978957910923 -0.595347164525865 -1.0455915510413993
Ni 6.5649256774496125 0.27469156946625173 4.130848757772491 -1.2712112527608752 -0.8471471241851345 -0.63999334248033
Ni 0.4595937219144508 5.280741130799498 0.038934815728071184 2.2105020862608065 1.1392588960895735 1.125907157373016
Ni 0.08601630081717433 1.772326822137517 12.491154144874761 -1.5698307438768448 0.4862251754855175 -0.8342913512683889
Ni 2.245328449608625 8.793047160493819 9.136470229792181 -2.5162178221019245 -1.4208736251174303 0.8091354208280517
Ni 2.098054606541926 4.509550278229016 1.4912074267661835 0.9963621245916259 -0.9568931199627262 -0.7164612929310822
Ni 0.3328533402945747 7.813028410528458 3.0281851992736697 1.1679228396831691 -0.16044069391898175 0.2734175379290452
Ni 7.592117645928409 1.643955624085041 10.461777295350688 -1.04754867476777 0.10369824692161494 0.1993700239943276
Ni 4.757499238001371 7.521464377186521 9.651829534299328 -0.0072821354837100385 -0.7564882269459811 2.180658520536812
Ni 6.6478656654507455 3.3602509293593186 12.83695116400285 1.7905805190985289 -0.7438309431932867 0.39021581256772797
Ni 7.768588662740117 6.366169924726528 12.746210128532365 0.6958945245233241 -1.266930108887018 0.06590483022292522
Ni 7.067884290867282 6.568289236341849 9.887397261587367 0.35418488708609974 -1.6408173594980515 -0.08243059579209029
P 4.1708222923761 5.917074583596937 1.5395277763839148 0.29923398477151697 -1.7729792610769983 -0.5112404665829324
Ni 5.838749064819863 4.937880507850335 11.662654920302334 0.5644988116864407 1.5091164567159234 -1.4954459012073664
P 4.091727695395016 5.97250381030041 11.285788068332485 -1.2698297990323162 1.5024794110153803 -1.3177111960946275
Ni 0.6526953599376922 1.323954229199647 10.277798963347548 1.0373357387905102 -1.1855043002103585 -1.3670118421019684
P 1.1878737171021543 6.339326315605839 4.954873429757973 -0.14236532447450967 -0.26338175095959804 -0.14317187953620503
P 1.631631840815964 4.512570995030309 9.058355049270903 -0.03783558279053484 0.6735225845860271 -0.15720701747303248
P 5.868548528724639 0.8747273108351533 1.8796827266153564 -0.28882435940241874 0.1009016580130843 0.5478396058632049
Ni 5.3967700135779815 1.3199235181304372 6.065715162026185 -0.19470629997007113 -0.11777915049471328 -0.7580170048856816
Ni 4.015598219200477 7.834015906095722 7.625449309970158 -2.1130271945410835 1.276243930088776 0.058065022463532255
Ni 2.08083837397505 2.932847299983795 13.086609701228697 -1.161484026036361 0.9745031197350056 0.9550154433240392
Ni 5.1502109541743195 1.9643739890810432 8.201619535408357 0.02179087062284634 0.48836176221254607 0.22616426136903628
Ni 9.25282620245743 2.9627857539254396 0.8928580978446292 1.139615508098044 -0.38843120986347945 -0.1017030708684571
Ni 8.558172530189637 3.937736000546301 6.971407599875324 0.24471837022213982 0.44648749057626325 -0.3432654119601185
Ni 8.495636279600914 8.553826775036857 12.68842363080359 1.423204330133136 0.7817524008294084 -0.8805154152329353
Ni 0.938479260946359 4.372348579834111 3.469999315671801 0.4024156970680295 0.9906126237023584 1.1552565570694102
Ni 6.2849812111899475 4.996015407271529 3.082825889167971 -0.36892964949544205 -0.11380473922799755 0.30763377879943793
Ni 7.367750662411544 7.2321241844344915 3.2758089223597504 -1.2566845198996097 0.20024805572390675 0.772472003968747
Ni 9.199991456442183 6.0398954461771 10.902153328167344 0.6494961397644426 0.07578763655427592 0.05596237429823265
Ni 5.1895914646206185 2.8408173635714093 10.39900012869806 0.4716179670953039 -0.6513257367740138 1.3985479650370367
Ni 6.271137803517766 3.8011829223234526 7.356059747110345 -0.6331796619926063 1.2336831739084302 -0.4018438837249595
Ni 1.8437213710760418 0.6062893664277739 13.326191460781521 0.6038575159897213 -2.0007170375807415 0.44628308787494103
Ni 2.9437255868694314 4.797982402740165 4.632307205392219 -0.8081445176696921 2.9354601038089894 2.7752718922204465
Ni 5.822848604602018 6.4840983380088915 8.000675152904703 1.9188623688967794 -0.8097301169892571 -2.4266012500843566
Ni 5.6924852160210815 8.124430955132873 6.166288352704802 1.0515791360834017 0.6412300431009086 -1.3791937288801408
Ni 8.273159560585471 5.189647060635365 4.814414731499099 0.3615721806891063 -0.38599997471416747 -0.35429801562519625
Ni 5.976256541295881 2.5899403470223414 3.6107563792098225 -0.8190719632154734 -0.8064437329285015 -0.4437261257810423
Ni 4.651913139993 4.9121488190246 9.147822009403418 -0.42865097661547463 -0.11242482816133541 1.0325092639361444
Ni 7.8001486671119045 2.0648915837449136 8.118066138044504 -0.18655333184563355 -0.39528448533988697 0.3461514752586619
Ni 3.3993719917367944 8.276587981494913 11.420740907930844 -0.7107153915862404 -0.11431124655077089 0.23863591147348578
Ni 2.8722198459014114 1.4659742488726868 11.403937939073591 -0.42201110270145387 -0.19642122577864882 -1.167916411925266
Ni 9.19000270579251 6.086623896572555 8.505266435955464 0.04237666519399798 -0.034283346662902246 -0.2665046128592959
Ni 4.6112539212075045 0.29918995336483273 12.935898171250097 0.5355636167093293 1.4888957587936744 0.3155052111277147
P 5.840611531313912 0.3819112637079591 10.84419077639187 0.3222083341795032 -0.5493722404576474 0.4670396036960021
Ni 2.2075138935777208 6.443939483356125 12.488672709416521 -1.5557637242608173 -0.8963631808984692 -1.5652400391823689
P 8.193156895363508 6.920295403717011 1.3740610640912714 0.4237319420473025 0.8239498601330649 -1.1877223909075998
Ni 3.224318673301153 1.7986978651328502 1.4899463238316561 0.894879397264091 0.5808623406461286 -0.42110478883710056
P 4.117514980235498 2.605321911102543 12.612477621457717 2.114703810912558 0.08073829569133192 0.8935128559338675
P 1.1413027887484843 8.751081435361751 11.234402525101661 0.049609435497011335 -0.7604472115937291 0.6502101351123318
P 8.244184770899452 8.051794761864983 8.054420746961567 0.18508111817548126 -0.4128412632767277 -0.7684597974855605
Ni 6.072724892885626 6.144879254025703 0.6449916054941504 -0.24872672005058458 -0.7677766553756068 0.17927968100235575
Ni 9.225222781135189 0.4038985609404349 1.2531462182167101 -0.47944517644920653 0.7480575796801245 0.46628061404279053
Ni 2.501644609600511 4.203596143069878 11.00854556838956 -0.30534703964779025 0.7414408456945553 -0.12468873313035299
Ni 6.565046135481566 8.423593110490332 0.4834972284552313 0.5701863489895213 0.5131166005597226 0.8374188411537771
Ni 0.9364407404056094 7.639226002424641 0.539270223849894 0.1339704155425951 -0.7086520812993086 0.6769637490570922
Ni 2.4871062517439833 8.89347209513311 2.0009923041946265 -0.1661904519185654 0.253944259695782 0.5949717834643172
Ni 6.984008436617893 1.1186659447437062 12.775585209524566 -0.31442920445471656 -0.3880046638490221 -0.02182403785362693
Ni 2.160479665101153 5.593088807654623 7.27759153189542 -1.1256765294194484 2.6116250326593407 -0.15710571600847784
Ni 6.369802197690046 9.127475721206245 8.602680846396167 -0.27270662790494976 -0.13862925447084512 0.135405862437541
Ni 3.0589390614316145 2.6888085932486963 9.287046476134893 0.08983640133785818 0.40652354858881595 -0.03419978581016045
Ni 3.674785382794521 4.70016121479156 13.002214950841664 0.7703037926728346 0.7008171586359221 1.422072787631854
Ni 9.140911424770279 3.388929206966682 9.959491393711467 -1.1944247426284398 2.8428384264165105 1.0480184153153371
Ni 1.0242731777045426 2.6107332565379875 8.140971696120564 0.47798144741948645 0.3003166763127344 -1.386241893976174
Ni 7.608870578372388 0.22390553659445914 6.468389684041925 0.4074720285450144 0.42590709532175036 -0.24929339118733196
Ni 3.467764355878943 7.662474402591645 0.16434737919572276 1.136214709946611 0.32612232452192863 2.136555616680327
Ni 2.0839888148107537 6.737236259157699 10.064472421759332 0.2949986065339307 -1.5750403131022424 -0.774497261928892
Ni 3.496349973461727 3.9468815449723 7.254306067718584 1.3578579435168423 -2.091413730036366 -0.3817327147973813
Ni 8.67256133053306 0.686929532618844 3.6679869167911208 0.9818230504351866 0.21027638649418626 0.24853157332064293
Ni 8.198540442791577 3.1465954446838467 3.566748427136022 1.418373484403396 -0.27616476165687925 1.0645212980663668
Ni 4.0645968401981305 0.52101341920699 9.625316721466389 2.378218487905594 0.6749904273808053 0.6529743281210304
Ni 1.2299321022588012 2.1701719036721716 2.8253829832771977 0.24523541906787444 -0.12605861689468614 -0.4184452397270665
Ni 8.547952129478514 7.444454630758477 5.459491584215863 0.27159128335358385 0.842327334198988 0.47669486739757905
Ni 6.118397019000874 7.5488083504399395 11.789199789270347 -1.5215413127428377 1.349329851441173 -0.06450049367623086
Ni 4.906867197623567 3.5410399033164324 5.3509978146361865 0.19009271245745973 1.2530086137099194 0.3743333370095166
Ni 4.40349161409529 6.222945324733954 6.032488203812212 0.7201251149359146 -4.256367438243412 3.176290708940949
P 7.381807188140259 2.2591903892857226 5.382149188299578 -0.3494296317893014 -0.11097549730931854 0.5346997260471372
Ni 7.112926328815389 2.926564950317303 1.6233257962126555 0.0637103936747677 -1.7678997896715618 -0.5810577444863864
P 6.52456297074277 6.108964228498679 5.635170357817415 0.2326655528226638 -0.21853348429665587 -0.03130446654023641
Ni 2.9143708910826374 0.9770906931886477 7.687684415478995 0.13953042612887584 0.9631640405731025 -2.9398985991963174
P 6.918043765119729 4.067867739065788 9.451211315082194 -0.3646539049382236 0.05587547101138119 0.1666717624303581
P 3.5556709211975397 9.147981384645695 5.634573627259123 0.29155024297401405 0.09273711992442094 0.09947932374426094
P 8.802044448880492 4.349637607809669 12.175600431169183 -2.2149498376195145 -2.7203919523531153 -2.2346318894294743
Ni 1.699496042818009 0.4384338787014702 4.308575317917252 0.07695620294108037 -1.155369685608507 0.21369106860269002
