# total energy = -340894.1732070956 ev
CRYSTAL
PRIMVEC
9.03237452804122 0.00000000000000 0.00000000000000

0.00000000000000 9.03237452804122 0.00000000000000

0.00000000000000 0.00000000000000 13.21979312820371

PRIMCOORD
 96 1
Ni 6.475110512833677 1.9318984362024552 11.187488123590315 0.17415187285748718 0.18310111163097498 0.6185904513245217
Ni 4.48354421118162 0.7034774496937248 5.985526012179063 0.3189515178051023 -1.4885805415461009 0.50221383760429
Ni 2.7876888158199806 1.5435876273099622 4.612610519048558 -0.9517897372978897 0.9100599616592715 0.6764068481123577
Ni 3.6015509133580252 4.325188622767692 4.898792270320911 -0.6362238481355688 -0.024667420839693 0.544834500488294
Ni 4.948539878939859 4.727833809872192 2.784286320374194 0.5654701744607745 -1.1774323218355012 -0.904754490285958
Ni 7.1623748504350555 5.957004483458173 2.417411142466411 -0.3623003171043825 0.806934813632307 0.3900029252259735
Ni 5.03927008003602 4.586459085376709 11.356185780720528 -0.32174039340414917 0.32297529425251476 0.5821923723114618
Ni 5.599792139709939 7.891016495276009 12.201908675804276 -0.8253763081669462 0.21656453349574314 1.8878589785367295
Ni 1.8758164233994619 6.295962398494077 0.516297748015678 -0.8255280032534621 -0.09645982019164678 -0.7660316476600421
Ni 2.742138551596194 1.6806719739537102 0.30900475496869806 0.3172409628718988 0.2567148804623837 0.29653252667995383
Ni 0.617191176814518 9.251048209527116 4.81968492863446 -0.19244964272541049 -1.2079729136265196 -0.5801079789786074
Ni 8.582652502098945 2.423828644495164 1.2605030772278403 -0.08435583783926118 -1.131008483155323 0.621690173295768
Ni 6.789247462950493 0.6137679069075547 4.800569714639456 -0.2800342719146145 0.2974398689855716 -0.29266275931190244
Ni 1.2884230498120457 7.541219730930458 2.7085905065079543 -0.6916398630120282 -0.0550077236944472 -0.3073463294660062
Ni 7.752179867993868 3.8311087093619034 3.636751882965986 -0.8380060811158148 0.025576820027839824 0.3890485317325042
Ni 7.405869600176254 3.738310094522484 12.751865567113619 0.30089620296528824 0.25117286759823193 -0.6084441069191392
Ni 8.148854655603637 9.123691730138777 6.75692691754657 -0.09929086188253868 0.8409757052671001 0.5915995245579747
Ni 6.7811815525892305 0.6098487596446752 0.46369861879085084 0.6376076158569728 -0.10998382282001058 -0.8996732191083086
Ni 1.9749106032129007 6.534317727187618 9.319940838976668 0.27817510721868866 -0.12084467679391447 -0.014691283463587602
Ni -0.037096864999705936 4.7740163403057085 1.6833952348427588 1.2629585258337797 0.08800911832113231 -0.9832309865263066
Ni 6.376567307860145 2.148061220934496 6.9769311711214375 0.5612610214754334 -0.7725969595823855 0.23092234487931199
Ni 3.5455953537969775 4.1593361635812585 0.33065896941448586 -1.4258165709450026 0.38321778398334 0.1921025437986369
Ni 5.843530763560604 5.705335434862618 4.80450873312607 1.5663366146806572 -0.15116209683053322 0.760141250317536
Ni 5.349965695497024 2.8059884064044334 9.095362590993131 0.17533483742199482 0.4682138265097614 0.9728043918763438
P 0.17957263593756026 5.399399880723434 12.583260040202537 -0.37732378709640824 0.06860911652796572 -0.08289313725080563
P 3.8936127403808616 6.158905148973604 12.682249444472648 -0.5080157889980477 -0.31380879726189825 -0.9524667087602563
P 2.4948502045966197 8.71662067956617 1.2794231919352699 0.25823928752671005 -0.8817261477115848 0.8860538285526611
P 6.4862564628737625 7.938328072512614 6.1176705532499405 -1.9359285803504465 -0.5496859150433243 0.43518492107925055
P 4.608606467466085 0.8688213862000473 12.546204724125182 1.1251810778402689 1.2545204223687556 -0.1339264496785371
P 4.013354928129176 6.061924544775546 8.047113086846318 -0.5535564537423241 0.8591341213436816 1.1995504938907793
P 4.730832558181194 1.050356757100096 3.752068207246195 0.3664935292501237 -0.6613386409253255 -0.3052151420556163
P 0.15225783243980986 5.924542129775784 3.6035037127086467 0.0524402200775871 -0.9720891109768742 0.21753101117407053
Ni 1.4961495968314118 1.1737480241159912 2.521794680742957 -0.37742997365696934 0.25866017711421263 0.10654214412831328
Ni 2.0544316276480035 6.387975196758548 5.039279112410445 -1.199086152659851 -0.31773590023044634 -1.8830481874116474
Ni 5.917686557587431 5.645577245668768 9.114002702093394 0.058460458129738026 0.5562391427808098 0.867008638995752
Ni 8.744088130191699 2.0802913156259337 10.158577836324238 0.005691393957822457 0.8326808122481595 -0.04643592286503615
Ni 2.231701008107264 5.150901195550949 7.18920100247643 0.013571053816215336 -0.14348683967346257 -1.0451207820525679
Ni 0.6292195898358975 -0.0023059651906271886 8.774756654313341 0.6762237855672741 0.36939527627795093 0.37392915959256245
Ni 1.428199044034356 1.0229705978443904 11.529351753478645 0.7567237399955548 0.12982065504027965 -1.5146142466057013
Ni 3.770609865465229 6.818702035949455 1.6396243483806383 1.4501132387088382 1.3276109717068425 0.4331059270630348
Ni 5.405334150720464 7.8797440919939765 8.029358148439675 0.5628450781331017 0.1782368415601382 0.23100847683521503
Ni 5.446079191750309 2.8723311965538914 4.7011964344562935 -0.23398015786902931 0.4080368999095489 0.18256606506311138
Ni 0.5522339529018094 7.341775871258547 6.6375523474373415 -0.5751097544330676 -1.1477149972767267 1.2013497518830472
Ni 5.073060192758842 4.428112529337206 7.1453379857951775 0.9303253967765267 0.29429026761299637 -0.9822976760787598
Ni 8.276102746498882 7.261035476276109 9.042801397740888 -1.0316582287897587 -0.4444306080472346 1.0716296269763739
Ni 4.704918675956715 0.4708576787598721 10.371231543592279 -0.2278889573696269 -1.3726821530138682 -1.1339981619112665
Ni 7.856160562371073 7.378438279048424 4.697719873540224 1.2883391706904135 -0.8239781422678389 -0.930584049754552
Ni 7.23130089966998 6.073504048788018 7.097336335152525 0.09770603389392205 0.3520382730567421 -1.2580438621409817
Ni 2.4628575343843147 5.092217858913641 2.7613766058833726 -0.8218880925080296 0.0822148802368584 -0.5390988835560974
Ni 2.165376282706655 5.136223587110804 11.424492209069918 1.0064549900512536 -0.07861379314916138 0.6317308453612217
Ni 1.0910385715089672 3.4001741255592277 3.794556496540007 0.368827576699939 -0.322072065711955 0.2094942569125231
Ni 3.6093910143586694 2.7843829667805386 2.681529512731538 -0.05038333754855839 -0.4114387265022462 -0.43855769420622537
Ni 1.0983638271674032 3.371252462651322 8.401363715020691 -0.4437587787911906 0.2005041375987708 -0.13182637261639876
Ni 3.5044799854157205 2.797181841340346 7.321161283109042 -0.008146283256218228 -0.23046803095071275 -0.41422168856402203
Ni 4.051119285598868 6.8705749622705365 5.99620769817372 1.0764242201515397 1.2905438916512162 1.1136805333998367
Ni 0.7777353095515521 7.300064366165259 11.515008342892214 0.4896077188045052 -0.12135684054364261 -0.25638012283078426
P 0.3678849973684651 5.69115460701583 8.223835105415443 -1.0580500885197262 -1.6465540048715126 -1.2985688188382216
P 8.423158834507506 1.8655104841808734 8.006091655159079 0.26148273416467227 -0.07937895344996007 -0.36532701974584825
P 1.8362636557936787 3.101030916987422 10.523788347625548 0.11158741986170459 0.6882650330025244 -0.13138131465918015
P 4.031103543873722 6.3014902116419975 3.834335073506408 -0.6877855222629444 0.7090989390287401 0.10802567065237524
P 6.854154105566423 4.038609447020652 10.351573483894352 0.5279127850322908 -0.7242723043350688 0.3508411674248474
P 6.266155562892552 7.686857736154401 10.233640480743306 0.01562150858734084 -1.0247807849436352 -1.9144562694092833
P 2.214674982316695 8.438044187559418 5.954789745249235 2.086064549909311 0.27787840191387625 -0.1899728990501438
P 6.656986404249536 3.8166659426567997 1.6355001662183182 1.5740164998234183 0.35801917323052534 0.7378179042299874
Ni 5.236130680622466 2.635168141284412 0.6005761240602729 -0.17379114708395876 -0.4787818318335948 -0.8660424184277408
Ni 1.524032536680476 1.3381282062711974 6.902106981387182 -0.3674607782593994 -0.569682155659593 0.4182832602279054
Ni 7.097540466814523 0.367888610318235 9.124975230544527 -0.6906083364237203 1.0346448222219082 -0.4681346365323938
Ni 2.59788249965923 1.573692531267504 9.226582216922917 0.4350280837864121 -0.9513171685368456 0.42401347784346327
Ni 6.456675436632853 1.8541567895290192 2.6813308004941945 0.674893753901941 -0.2936809161637716 -0.6550006145224397
Ni 4.121038896020509 6.899885017278703 10.52821692080598 -0.3883427639147312 -0.20337091762360457 -0.6471803471470724
Ni 8.536695781026047 7.21949558629689 0.39378984721851906 -1.4119878925920264 -0.6742334946101226 0.5763158589260268
Ni 7.678051171090314 4.063592994679386 8.246123392545844 0.26945829617098105 -0.8806403708465737 0.08921547992440763
Ni 3.041083047930655 8.297428182515612 12.398077396509791 0.041588364964747736 -0.407231373289118 0.13293528940986138
Ni -0.025420714580889774 4.8607361671573015 10.37095424969744 -0.13375187177388578 -0.4860012324001694 -0.48961826032746647
Ni 8.546956558372512 2.373527351323982 5.561051382564936 0.25297546802460946 0.6321771888700208 1.2303168285393586
Ni 3.9158323814656364 2.565781440953828 11.249052787669102 -1.0560448851642394 0.00983575514349919 0.6414097632118824
Ni 0.8432706054274417 3.245648263901374 12.471288404171796 0.12867420014066228 0.25818863679443277 0.4969677587140022
Ni 3.079019020514416 8.440437766781965 8.070300095231978 -0.48446371270972044 -0.11772669999022305 -0.44621032565547664
Ni 5.868116886744651 7.862419997847393 3.1897776086599188 -1.5215577678030698 0.24136410903792624 0.6214813997190716
Ni 3.270695038181081 8.383597034527297 3.777846603854303 0.4116552133884265 -0.24139161984175203 0.023928742901455566
Ni 3.443348875309317 4.353288339602949 9.391499825356393 -0.06437039585626979 0.0392373482340679 -0.1787585183915631
Ni 7.1112696759400755 5.9929894631661975 11.536437651214825 0.6051407535775192 0.10329972593161563 -0.029848193709684077
Ni 0.6328054424825055 0.1892986967180826 0.278127582997844 -0.5889867695254759 -0.5216917438232435 1.278288728432947
Ni 4.627041543666908 0.3707852927962379 1.6068259903696496 -0.5271617657988792 -0.3473686354952147 -0.06317843243069764
Ni 5.709002578879047 5.367470437132101 0.44699866171701375 0.11513374245206623 1.3641224363693152 -0.35639963534923136
Ni 7.8803673258292815 8.538673871025058 11.31096068197603 0.589732646552565 1.0492057507552188 0.7933845857516981
Ni 9.07148460596398 4.924558924842267 5.584317875845534 -0.09431192061070853 -0.06411842774646376 0.6691064577962025
Ni 8.021163978361583 8.566457454755449 2.494971238413911 0.7086934760602053 0.754688454733081 -0.04070236281536861
P 8.589083552689337 1.5454482964414515 3.572992351901993 -1.2735954367223357 0.5331110414037787 -1.6175745869200273
P 1.6900656433554035 3.298568945655721 1.5365234072724006 0.6725782183948869 -0.1753543778060206 -0.20719877601012704
P 4.654978677762521 1.0543400342213909 8.124898088916993 0.083045860778586 -0.26178638144802013 0.43365614313954987
P 8.408083801592673 1.4619259301362044 12.295755949314406 -1.0490527701171222 0.8245602400235542 0.383719663320423
P 6.309565154377683 7.556999289050418 1.059834427583939 0.8730998394951544 -0.28974738543732037 1.0181185424321113
P 1.9334429722290798 3.1664795020688348 5.904157867174108 -1.0458918558906374 1.5310050292588988 -0.7584008705876616
P 6.894113330021318 3.960515537744652 5.917509523048707 1.0120103726518441 1.4816074526623773 -0.2861319001719201
P 2.2788590349786486 8.48116474306296 10.265632247718168 0.3034768192082709 0.16365277309837623 -0.4293760277069573
