# total energy = -340895.7315472662 ev
CRYSTAL
PRIMVEC
9.05620229891113 0.00000000000000 0.00000000000000

0.00000000000000 9.05620229891113 0.00000000000000

0.00000000000000 0.00000000000000 13.25466747941968

PRIMCOORD
 96 1
Ni 6.506663943373531 2.082392193759086 11.380337954896216 -0.4355153078354757 0.16804678840101384 1.0323861080947188
Ni 4.612667924314782 0.31924290117838783 5.998134642816969 0.09900186988721014 -0.39493301553773913 0.12482860114232695
Ni 2.8376341775659712 1.6471692276605034 4.79507432686943 -0.1452210487557499 -0.09513544495326841 0.0017648052099066378
Ni 3.4708347803094646 4.531189272977047 4.924254712139727 0.4249393320918423 -0.39280517056145897 -0.533083530599953
Ni 5.054384187402268 4.562985598957572 2.54171461957478 0.1423244439342452 0.008503409485320839 0.7125323901903213
Ni 7.256463149648575 6.070127827953622 2.622648087539111 -0.2789729205296357 0.2877079864097884 -0.26847613476336984
Ni 4.724774651547175 4.573028927215163 11.34504050113897 1.030834961557515 -0.08435918027337086 0.03253113985848591
Ni 5.486392201714155 8.01005690465214 12.46291274532108 -0.405171919656928 0.00032987253559298033 1.0352145786824494
Ni 1.7989421205991643 6.460504480678361 0.372839317133372 0.5718606513681507 0.33470955197030744 -0.8160480887874848
Ni 2.7351813618958793 1.6283232708489186 0.16486544448239346 0.01118635563412267 -1.092644281554828 1.2617246534266786
Ni 0.46861137242868894 -0.010449046116870125 4.863694076680607 0.7516136724624991 -0.402938402340719 -0.45783762548175994
Ni 8.715915417774944 2.534613651417181 1.5011307219650414 0.061493845639423124 -0.026208025853935505 0.28636612766991326
Ni 7.007372307696319 0.651399041096631 4.869035424747629 -0.9685998668766931 -0.14529612496805944 -0.37905156842079235
Ni 1.040756871072065 7.403771334894727 2.5148874317501964 -0.6829109677794626 0.43675046579415755 -0.18809419397019217
Ni 7.6481167268857755 3.9962665766820487 3.899987374062633 0.6484877531045864 -0.40398715532020746 0.1092250902771151
Ni 7.5063147125869785 3.9665078962001323 12.814493533372513 1.272756485760808 -0.5435836588003283 -0.9195720149147646
Ni 8.033195501314129 8.746815179736082 6.979669385117444 -0.6997848607166658 0.5344487863785956 0.16348436584131198
Ni 6.976101241444323 0.731904150696143 0.7119026224817909 0.21204093459377676 -0.5189260081526482 -0.8155981457342599
Ni 1.761866028726685 6.347655144864253 9.110370078357567 0.5095548513503934 0.5838646178075622 0.6283871256999694
Ni 0.12658940581628877 5.1085583890586355 1.5506237726959367 0.15989382027657625 -1.0385264166645016 -0.5207460920805226
Ni 6.561852439678097 2.108365381714697 7.086621322048465 -0.2338372045332618 -0.5053585538808587 -0.08703569866426945
Ni 3.5036816257470513 4.036086697825988 0.31226147489004047 -0.33512144269674543 0.7496082119966961 -0.06285010255700144
Ni 5.865457657871057 5.659021528356362 4.799462056843103 0.4014731306491021 -0.15698821659400705 -0.009549334251331943
Ni 5.412276242778062 2.7570158654387584 9.289864911899755 -0.2718216541968351 0.7740282927122734 -0.12250021011946645
P 0.09083280260668718 5.513071773442618 12.45232242244964 0.2859866328433075 0.5425783574642656 0.14174388884042685
P 3.8206124784996836 6.0897073371447075 12.631685035439475 -0.2815123991220378 0.1895710356260348 -0.03353618408423256
P 2.389107650412022 8.591401693506572 1.1622195608138521 0.4981980315766774 -0.011439352185193203 1.3022640083016217
P 6.256359570324326 7.813962958068166 5.750736405058892 -0.1692562353280827 -0.382423827327135 0.7958641576404423
P 4.731186442716134 1.1215019700303022 12.630279512855546 0.8344222204192985 -0.4116549562781104 1.0872588488731985
P 3.9820845640117257 6.215833065407534 8.065173856959198 0.21968893805733777 -0.5059038848613675 1.9102936533911619
P 4.794670420250593 1.1325958177449547 3.8707874612574464 0.02592751849903922 -0.4198254079040447 -0.39913188411043515
P 0.2401994626165451 5.581274032331635 3.740824620115682 -0.2589630530666121 0.21540985106600966 -0.666738214674342
Ni 1.5312317268907245 1.1818796702046592 2.61533158176877 0.11477173112695717 0.1381047494259428 -0.2847427331338773
Ni 1.9168538734520406 6.534738170243264 4.626979440676795 0.8883179419964895 0.4406919669404088 0.9313643795640024
Ni 6.018661430759852 5.572688752630826 9.104829493841793 -0.48035303297545656 0.38208161349636777 0.5165906751512522
Ni 8.654351355110286 2.195087574135522 10.272526245755907 0.4833000314189224 1.0979317552060122 -0.2851633656110637
Ni 2.3161146605507175 5.315139417808787 7.016026414533969 -0.08882518646452445 -0.5220756095252234 -0.6541801755036734
Ni 0.5997198231507831 0.06034872032726568 9.150452829365772 -0.549617266588918 -0.3815967034401493 -0.36620582280637576
Ni 1.3374199432651934 0.9518883587260374 11.312010720416618 0.35915920037223953 0.47852934950315645 0.5037719261200292
Ni 4.25243936876725 6.90164114682402 1.4840190278778287 -0.748422162108395 0.5536040191508078 -0.8165391694912905
Ni 5.631282380968623 7.873507487638648 8.240956553213032 -0.9825020787800821 0.32899424675308503 -1.0192526560365542
Ni 5.409206190226822 2.9571035972000073 4.964668014528819 -0.4382198512508324 0.1693174275833213 0.14416201136361623
Ni 0.7588526916304215 7.253583277343873 6.652411744977859 0.040871284293065094 -0.051756820857317316 0.7482835796480016
Ni 5.065007112601686 4.5303379899687375 7.065267702843259 0.6626553028542201 0.32080142652964755 -0.39540686985036416
Ni 8.048255965599408 7.281865796864575 9.094478254708855 -0.13429566009249774 -0.41062420102075087 0.24099361307238498
Ni 4.684474551685786 0.5758069211993222 10.52310592735248 0.314148182879188 -1.830124085719106 -0.8171189532541606
Ni 8.03081372013131 7.042075674588195 4.8066988680339415 0.7085587502545538 0.28359524979299544 -0.03305615912402049
Ni 7.126244017984096 6.162347135119585 7.027677218684908 0.6347639757605907 -0.6323376257072852 -0.3216480908006589
Ni 2.452645965159778 5.380298792753214 2.498173304940268 0.03247149026514407 -1.2923508629529679 -0.08200816354269103
Ni 2.072040954626149 5.296374966817146 11.247553201143935 0.6957651980343114 -0.7424397192727149 1.091636409115604
Ni 1.1968767410744259 3.543854938777417 3.9331638652608842 0.00966786210706722 -0.49677004088089927 -0.6232369489575976
Ni 3.8568463435660707 2.575982383140064 2.3330733048204793 -0.8942322505983954 -0.5425279638423043 1.181586967433823
Ni 1.2027179915037736 3.377139312182286 8.13609931585458 -0.08417328951480987 -0.07820447352588467 0.22371091473253732
Ni 3.7979266919484966 2.6120622927687784 7.065850922265972 -0.20041440609844194 -0.46278005708869974 0.03208762456316409
Ni 4.1097226780446325 6.757475463746836 6.031946879410786 0.02594577333148435 1.628271661622557 -0.7185958227755818
Ni 0.43608873903043616 7.4066240385927795 11.228201002628472 0.9001547867304175 -0.6023845309886205 0.14427616834397733
P 0.16250449256467114 5.520606533686364 7.991119480198173 -0.4491367552736523 0.6866871469924432 0.032696204681440466
P 8.579972766309927 1.658471368026125 8.037855822974505 -0.05869905650310536 -0.02599076763680685 -0.18013611546538008
P 1.8572550066682634 3.168900998426599 10.34239122337179 -0.9715381235694107 0.42595440361991804 0.48146889174745466
P 4.0995435067538 6.272769408739795 3.5995967690373822 -0.7554538721441957 -0.09305259428231072 0.7901429388859489
P 6.748410205328576 4.127246429332675 10.485833315891913 0.9770647098145946 -0.691859692332318 0.4187100633526789
P 6.085378472485439 7.745760699179149 10.391512969811828 1.1566868617580337 0.6101957995029234 -1.252240110975011
P 2.4575815953675213 8.534682699027496 5.78558285994578 -0.3197184778781139 -0.008320604050553411 0.03456642512095982
P 7.0482520044995365 4.1024324352607175 1.7040467056783601 -0.2773086454533353 -0.5247922371254381 0.11233175422689687
Ni 5.561939040600383 2.683733077106541 0.7274820071540494 -0.1882201780250952 0.3402430801940269 -1.2973693992134818
Ni 1.4502873914837342 1.1277688619638038 7.053047263572931 0.3460460600290492 -0.02344229018334027 -0.7281204744365654
Ni 6.982359077175609 0.6181591564828677 9.211662794523782 -0.4098145606352619 0.21473545070680441 -0.14613456170895478
Ni 2.8124669916075886 1.5855236591759008 9.183959871944909 0.2594556764323145 -0.6004703446850432 -0.334212814839547
Ni 6.4623519459304335 2.094047526011133 2.8810740627356637 0.9913196770717121 -0.29177392894904586 -0.6626565884058007
Ni 4.135849821437915 6.716478036314809 10.400500344891029 -0.8010313036636786 1.1024849217943335 -0.16596496617132062
Ni 8.2607869192055 7.376005018900339 0.30211490592718615 -0.8092205243426902 -1.2982646573342416 0.1894964736343575
Ni 7.874766299746677 3.8081511442504086 8.34789581146095 -1.2779539708013474 0.13598358931788193 -0.29515570093708526
Ni 2.937560312817787 8.36365632017753 12.282119252381111 0.7612753639219793 -0.3888310164050594 0.20811177474269968
Ni 8.969199281353228 4.980576139341519 10.23494934590088 -0.6492729680100431 -0.6583957562469178 -0.03440933071780526
Ni 8.62880380865883 2.253065380722628 5.716115449607182 0.5618670304905484 0.7115108909043424 0.6250701455115945
Ni 3.6756589058297036 2.4985518541928986 11.379317320906468 -0.6850958912459233 0.9776048985887809 -0.32843914558056336
Ni 1.121456689019222 3.2572804758529603 12.743991904740843 -0.6440813965067747 0.690741776677791 -0.5660620424085026
Ni 2.858798522144863 8.28561902568189 8.091006673780461 1.1215684207883458 0.15492336364517836 -0.6704331470274261
Ni 5.6848407608743 7.819387623195576 3.3655718250917346 -0.6486191364761281 0.47439475850949264 2.197822176800292
Ni 3.0630883317343556 8.516135596889042 3.5661286681277744 0.8459721300404269 -0.3389279609270292 -0.010104692534169695
Ni 3.467284749040776 4.265833491844777 9.157186115713401 -0.10170538486130226 0.2145009660984951 0.017222277415557437
Ni 7.030067150449723 6.185168764704014 11.482080764312572 0.6078095586589339 -0.9388424331086024 0.35310836619246927
Ni 0.5050988111571252 0.17232322700730465 0.31634763332991894 0.1909979978805485 0.550157455363104 0.21155062522091952
Ni 4.7368012880900805 0.30158692933799086 1.7580723856183846 -0.6588248733645363 0.6041825034293078 -1.0883811354030999
Ni 5.785871752796473 5.369141551623049 0.35006930790157575 -0.24501481841663608 1.170931801712822 -0.32500620863961444
Ni 7.741105811240103 8.855199807857682 11.402407014076491 -0.17765088714968114 0.7756534870205222 0.5620441794983612
Ni 0.14366396947441576 4.696990223148357 5.894721869711978 -0.12241510660482788 0.36961767670140216 0.24327598134865847
Ni 7.972691014308747 8.480073799664758 2.7754606324921727 0.391347612179326 1.236494160994664 -0.3392004978621255
P 8.71782627644253 1.6289028677907453 3.6444367430696745 -1.1983490173835105 -0.17578040959984564 -0.6708674063513672
P 1.8824674736377263 3.284394745287792 1.7093482064556316 -0.1327576261814165 0.0549249341726538 -0.6347783739382938
P 4.889108496959487 1.0117860801829444 8.143349711348744 -0.39605144541289855 -0.7164201552805016 0.5217984446044369
P 8.427819512878193 1.7723621670950784 12.563688352340762 -0.07112134142685816 -0.168509072749413 -0.47063040637105397
P 6.328945031085909 7.7166087842457065 1.344341598618915 0.9804061154830018 -0.03899129366153285 -0.7077187708517618
P 2.0356531341220894 3.275673622553743 6.023477519098343 -1.0140420583698924 -0.14985829041744514 0.01071070154928478
P 7.059300571203108 4.0228736987927824 6.065627801072471 -0.7607380033612704 0.3875097264904746 0.07324481552776418
P 2.2545324854816267 8.253496676421586 10.223642677434151 0.3675268556106444 0.17451876927860266 0.13732004874111836
