# total energy = -340860.65953624813 ev
CRYSTAL
PRIMVEC
9.33169319110616 0.00000000000000 0.00000000000000

0.00000000000000 9.33169319110616 0.00000000000000

0.00000000000000 0.00000000000000 13.65787624718845

PRIMCOORD
 96 1
Ni 7.6078959527442995 1.348000370375303 9.412543649772742 -0.25414326308046553 -4.791010085800369 -0.3348638181599846
Ni 4.48250669355565 4.2919068654794765 11.876342942200104 -1.1168471040532766 2.51399330364678 -0.18865418023872027
Ni 1.1530519733941849 3.627788943103706 6.325658821948004 -0.5005534191827314 0.7932943400307371 -1.2407501080575407
Ni 7.725232659634376 8.104118055940315 0.7581907187936852 0.07536443297392828 1.4510992567711911 2.3372309897496395
Ni 5.474092384198206 7.994601307724796 4.012519711860412 -0.6718130580940881 0.14855654088688608 0.8400565358869404
Ni 4.67154812891267 4.932938179548739 0.4912996351759324 -0.17868061396577614 1.3481880245272457 0.3471971429143569
Ni 4.223850828947798 8.510914545797089 12.136005696475003 1.4337263127103825 0.48874408525262925 0.9032560513635606
Ni 2.6488476963800354 9.300366435903145 8.274105107505475 -1.1096634418206437 0.8216543792306689 -0.2481801035184952
Ni 1.0050139967674814 1.6004133324136096 12.550686533687546 0.48514094128240326 0.08896634002807903 -0.8279846923240708
Ni 4.607952641601085 2.1000135084499463 12.349957152936872 -0.06920406979948727 -1.3260986488273743 -2.286689786466978
Ni 4.272487612494091 8.896574751169531 2.0023816043488862 0.43516538069522476 -0.7560825068671302 1.085368316718705
Ni 5.463892843826737 6.666468111595474 11.454765050743688 -1.0983734707291215 -0.5297580657711457 -1.1593068158793842
Ni 5.6003221944496815 1.27789136139923 6.954672781863214 1.716427847044515 -2.156856275910892 0.6993570291506279
Ni 8.3229742502057 7.099607970591003 8.062817849374856 -0.16107909883392904 0.10236692970470113 -2.21315366495104
Ni 0.9657742280007587 7.148422056302947 4.167250378655841 0.16006531285743403 -0.9353737578337117 -0.2763377968996338
Ni 3.0083325030864456 3.1394427887398235 10.6021581292323 -0.2493502125671964 -1.9803904102082477 -1.1799741144207485
Ni 2.286945981204997 2.7143375173562205 8.30531308816815 0.996124297549207 -0.5921034607775867 -0.39334947310070323
Ni 4.588626705544989 4.942736457124258 9.61651019480051 -1.8311779809049171 -1.374986889887645 -0.07244700221681716
Ni 0.3389914758648885 1.4637226943886505 7.05269475072871 0.2911841178838469 -0.6020369178412148 0.907605843691824
Ni 1.3630897178416028 6.989605974343172 8.577282479077901 -0.6773404156702205 1.225131427683677 -0.5963144135351408
Ni 7.369760480887464 5.520890824237473 0.6358830190802955 -0.24016983161950897 -0.7254179879037378 0.2695084326826262
Ni 2.3874856408227543 8.046364208402325 10.377827963894726 0.3620640327238603 0.7673925325633106 0.707863266849426
Ni 4.543601287162246 1.4050730043294708 4.779409434802572 0.17706467562890796 -0.9093338821265243 0.03355598157857447
Ni 0.9270066428962469 4.683119428144712 8.335073723257528 -3.360461656597335 -0.7303647903860518 1.8533054089315761
P 8.195139388770425 2.8186098541456044 6.38964624036261 -0.4643157770069359 0.775739104755793 -0.2088769350434983
P 0.6204372009441054 7.143718883066699 11.475264913770262 -0.13778850373710463 -0.1606813491748781 -0.7239709710445661
P 6.810008212230368 5.032255387392787 11.076031761032496 0.3876112850653453 -0.45261108697549796 -0.2927774305128958
P 2.8841649969722933 0.8763812755867708 11.680311135669921 0.19114146543694824 0.5842965631386582 -1.5449686905278424
P 3.5220701939103174 6.2541379278317635 12.555671524050254 0.07815639389676862 0.36981513742418887 0.6634392322080961
P 8.026720994786642 3.2232693863216237 0.32608574454399014 0.3485402872058126 0.4776353769339774 0.060931802488366035
P 0.718496496581317 3.4494696229221837 10.345540306360157 0.8815950214503592 1.36383190171209 0.4106568540308992
P 2.7857249682635756 3.0264919775264083 0.3027882399772839 0.8847165977984763 -0.03472763328917245 1.175886060394304
Ni 8.732887525500782 -0.1787709741192894 11.651561122924763 0.7238470438721921 -0.6954378966018797 -1.3544016095371254
Ni 2.5417571883260734 4.839154665611625 1.600251894125937 1.0288739811764023 -0.4018521112550757 1.106039214804495
Ni 7.943258333229075 7.042274049234822 4.8733758499210955 1.4751673534639884 2.133095168935552 1.0420133467718378
Ni 3.198045820334358 8.447235073249143 4.094357725679028 -0.9929875516924382 0.10446366433272976 0.927958439206247
Ni 1.7876164242636032 3.926272473132812 12.45273175301114 -0.6879493015343184 1.282259797265553 -1.2516970939873475
Ni 0.5690205060742446 5.018631115716351 0.56357079740367 -1.3418566829925795 -3.3840119331134493 0.06580147187584152
Ni 3.015191297389309 7.2861111854713165 6.801362398731589 -0.3505033244694544 0.40558406749368214 -1.6624956158024335
Ni 4.699477885849364 0.1473511640271241 9.928456558218379 -0.4272772361963997 1.1441717600101584 0.4175055015216165
Ni 5.592044982821601 2.940220476397193 0.9986777772686456 1.1227572988901244 -1.6403769295265234 1.5547275696868192
Ni 2.9023151397193265 5.24034280801803 7.823340480074819 0.9968089823210573 -0.6663324945954912 -0.352787749628257
Ni 8.69085758054827 6.16824902611264 9.98715757258867 -0.027268863018282068 -1.0474162629549637 1.479971459720851
Ni 1.0566462537440036 1.3879680111904928 9.950117283845326 -0.2972156687899075 -1.5929030523152758 0.12983351055608605
Ni 2.0267877140355655 8.59444252920516 12.81435165105972 -1.7769156200169267 -0.03832872037686948 0.6126481176981579
Ni 6.35538679611213 5.446022651867575 4.784613719949112 -1.2087678987239892 0.8207935738922703 -0.6324988338754978
Ni 2.2959697282674036 5.471367529862918 10.208306563806726 -0.6394762936345953 0.17078321349557038 1.535590334636736
Ni 6.350478325631442 3.4237514772096778 12.6073532389993 3.071198666995601 1.824990621147283 0.8480971468032297
Ni 6.996399446795533 6.921409962417558 2.8300075838891656 0.3736851619025564 -1.427631255556238 -2.281415939662548
Ni 3.633425285632862 2.7027662181241787 2.4499361294119426 -1.95447806121786 -2.23382790547094 0.2001909772337262
Ni 4.94861542366957 5.3502608190295 7.031648050496494 1.1764748430182383 0.955838710556283 -0.647369323229427
Ni 8.62401466409737 2.9616180482835412 3.044804491730407 -0.34957541333854636 -1.3500271346185135 -0.6731921978298019
Ni 1.6529321002183934 3.987992290165655 3.763345780437784 0.4698796442479585 0.5760240387172209 -0.0397076030022671
Ni 9.282822853196501 1.1802631899753413 4.569474338977374 -0.23922855075216218 -0.8368791666002232 0.47736052600603596
Ni 3.899835787064768 1.1999437303627416 0.4972093963079099 -1.3622612147908604 -1.017246681350119 1.0210094908266611
Ni 7.450143683778439 7.12981466060239 12.335834568858024 0.8541811482137806 -0.17282826895005718 -0.6854866989264388
P 7.325285632387535 4.642246613115402 2.929041108268172 -1.122402486653867 1.0233044575084247 -0.5188519603816032
P 1.4272171116501444 2.022056545720529 3.2662810253702745 -0.3540481043979193 -1.9813993110887358 -0.800874209260524
P 3.6272850316855365 9.359501373994638 6.282923401010053 0.014608751052110323 -0.7142851112153699 -0.37864070613561884
P 4.624535059936035 2.2550782498522364 8.739360920885677 -0.5799789095999108 -0.5135832557834962 1.8995011907613482
P 1.0821591022120702 6.1994075488027915 6.37523717331084 -0.4763104874749668 -0.013246837707577187 -0.4736200851269972
P 6.065441765113119 1.4936307702263074 3.4953778194560168 1.9639646605520564 0.9082769016169197 -2.8289238732179474
P 6.454321404546088 0.27035500803302204 11.347700671429928 0.7870972100810896 0.0461934678369269 -0.5544447698845483
P 4.3835160949641185 6.679868422641613 2.5531763809633716 -0.5695091204168385 -0.3728996898867836 -0.04025781907878228
Ni 8.917795020890226 4.698152785453437 4.463462574626012 -0.5814140993845406 1.332374711644073 1.6204362247385382
Ni 4.447428859835291 3.051771533671248 6.810541051896618 -3.5781407633134963 2.693695159788219 -2.382650812645335
Ni 8.143563121951477 3.2876114090675337 9.344035959303296 2.2865236932027586 4.699315548207849 -0.9363410068429874
Ni 6.164693651106665 2.79547658737445 10.43632461418987 -2.354829419557693 0.2859889468361526 -0.688946375340265
Ni 4.8576127542253165 8.415479322211532 7.843144198808883 1.7478714102657766 -1.4514101031433908 -0.22736548076598906
Ni 8.31098302479185 2.4476004066717976 11.606627155132724 0.48445805628276567 0.08851999651927982 0.03583603586200279
Ni 6.504348610338811 5.525500680544431 8.939202857638797 3.037110209952324 1.9529778225232497 -0.15366146621361923
Ni 6.312153062771768 3.536422337635221 7.9639485627914 1.0316350888613073 -1.2114611292854363 -0.7536152762735601
Ni 3.2199846304105924 5.5895160940378235 4.659001667769541 0.5443914994136043 0.9225694069801919 0.1628999540927517
Ni 0.31817526844802085 8.44216796398866 6.1690711482596905 0.8157562685786789 -0.5074398618899196 0.3298943899698512
Ni 2.460011558267455 7.08315619595706 0.9157880816569237 1.360313089925554 0.2750039085795586 0.37586674293490757
Ni 8.13354088374566 5.119665355059349 6.8823269660920445 0.0060870867343443555 -0.9526307451419465 -0.6313238397307902
Ni 2.017297382326705 0.31725423035592204 1.8392104212991163 -0.5688820283558009 0.5420427966757697 0.3614279418017582
Ni 6.870570899340007 8.354011460887774 9.429097139859612 -0.2871279455366023 -0.41085688585684726 1.3468099132327966
Ni 8.818617788440113 4.934337933488099 12.137262675512549 -0.4825348711181238 -0.12297380732177532 -0.4144780275492023
Ni 7.70560810940455 0.8889715956866667 13.411214196157127 -1.2738885424827222 2.0149745759410203 0.29266558752537986
Ni 0.1448064113653678 7.0187675147465045 13.540267776688939 0.7876178584712501 1.2322502981166457 -0.229186850245444
Ni 6.283019517447222 3.3257593697615553 5.008480100148113 0.38447093966415075 -2.8702173326500953 0.5111301662573133
Ni 4.913910857666373 4.374156406956264 2.9397072332860943 1.3766120841958938 2.347931921106911 0.6454564224774303
Ni 0.6178840497587129 2.400363377064865 1.0908105147266074 0.24265634548678852 -0.1277192924265607 0.24770599209555405
Ni 5.531034374451367 7.349417390302101 0.5529727937441297 -1.008917078438501 -2.12705307650653 -0.394660735712959
Ni 2.4902649067434877 1.7206521958046255 5.545329594849403 -2.6761450667195974 0.3942766129006629 0.7066242522360024
Ni 7.624226415370166 9.199658805812666 7.2777770505163675 -0.5725995864167042 0.5603403094333769 -0.11447811114593832
Ni 6.8398882929892375 0.2679259683635862 5.028761601560145 0.9190323403612107 -0.214198861477044 0.1639818743030208
P 7.880810644147765 8.90206178661182 3.141380048191897 0.26952874439760033 -0.16254231364301686 0.8740074389110883
P 0.6909176112987553 6.41812376767424 2.034094429599024 0.8550679216941081 1.0245655836090353 1.886090830892713
P 6.423984070833694 6.838927128617544 6.386873794393384 0.21572995340958975 1.0457018513670184 1.7037474233633687
P 0.36087336261425534 9.501436423445732 0.3650492952000124 -0.2822040258724236 -1.2153805189445002 0.39911671460178355
P 5.744804796070412 0.05939995817067685 0.41064954586718644 0.4867203699543811 0.791694599643785 -0.1564138321477758
P 4.164491930226009 7.016891844467762 9.616633373147174 -0.01314013692638382 0.8534247296637302 -0.7640714386098777
P 3.6917017079748793 3.447500635714151 4.69617913239894 0.2558489329176626 0.7602078418894134 -0.15338918638883905
P -0.1396898441323609 8.911794742336838 8.916024798741583 0.48873097262650667 0.9978909025313264 -0.3113163698573478
