# total energy = -381169.258964309 ev
CRYSTAL
PRIMVEC
9.23182583115945 0.00000000000000 0.00000000000000

0.00000000000000 9.23182583115945 0.00000000000000

0.00000000000000 0.00000000000000 13.51171027115447

PRIMCOORD
 96 1
Ni 5.09871878648231 6.420088440811651 4.380280581872213 -3.10859099160113 0.9299039929683921 1.3881008015617837
Ni 4.275350729511645 5.012918199839653 8.500162753243588 0.7196569170502445 -0.22146377056957342 -0.3891855715310007
Ni 2.478680536846041 8.997429497288646 7.531900271115275 0.1658865475249014 -0.6760461223388292 -0.6179505037476777
Ni 1.0737074703544556 2.5863328545606996 12.569214493147943 0.685423192678355 0.5814138422742244 -0.2043309675440287
Ni 3.9176174895285394 2.483277985968921 3.97499605485672 -0.9363551479103746 -0.7280330569290817 1.9148594183849732
Ni 6.389014116017248 5.033948298437886 6.097199803176731 1.432175937504127 0.525319827494134 -0.5226340531318547
Ni 2.400893174779005 3.308196989631642 2.1499564622822622 0.9632637993757603 0.1565652701239755 -1.5007284897625444
Ni 3.5349029296126777 5.3626843743748775 0.8368797568426461 2.196911492060565 -1.2521259539946499 1.832905505118985
Ni 2.6077045307042064 4.453044907658609 12.500398619148406 0.2608314737339185 -0.4198446911777544 -1.072395301497805
Ni 0.7782188909458552 6.5843595446118925 11.028351724138181 -0.6527622121102242 -0.25436437795233613 1.0669306788388075
Ni 8.666810128939872 0.7807982630039526 4.342934154800531 -0.6654128109946992 -0.3247706955900407 -1.2890639646715798
Ni 2.5910780128923463 5.431636879392524 10.306367575335116 0.5697412910323028 1.3393673409118225 -0.012884055051519747
Ni 5.970156959081157 4.389936148212815 10.013014317175756 -2.068896522770456 -1.0735371284117319 0.21872066060679748
Ni 4.691955321014037 8.74183717516807 4.586739282061482 -1.6133122120992474 1.4034220052998863 -0.330693745942695
Ni 0.5222369857871568 6.3744647589536765 4.076374423928991 -0.35164669404527826 2.2848509334860263 0.6001430432526116
Ni 7.589280682808565 6.250702905657843 12.425003223080843 1.8528521234442414 -1.2559332435558823 1.2999065638130387
Ni 4.372377216020611 4.234333728602099 5.930749065364617 -1.3221887722500067 -0.5776412626056697 -0.15768729954356067
Ni 8.176526337739283 7.3332729285383325 5.493604585200591 0.7054544002976173 -0.9937367711536368 1.782502627186401
Ni 8.248654590745426 3.5749044297119497 -0.08925421258014628 0.09706608631707798 -0.8421704969061496 0.6181500213529935
Ni 3.6420567287477463 1.519789280831454 8.714012452966546 -0.5971443656356038 -0.1307940746971425 0.30922477743564164
Ni 0.839178481404086 4.3196173330140715 3.6440941926461794 1.0101974878128215 -1.4552508170457195 0.4137966852114616
Ni 5.0266920835571955 5.748316191163891 11.65694395615051 -1.1894319173995385 -0.9946160884347968 0.5966455716223144
Ni 2.814192772735229 7.184289727845497 4.038839667616131 0.02663791430250251 0.5086500801479369 0.2097948188720774
Ni 2.44268564903458 2.94476771328545 7.277772116526605 1.8162648112385107 -1.271014820479353 -0.7950475752764179
P 6.730139301839589 2.0266257352395187 9.758575973248675 -0.9284286939744462 -0.292973862794418 -0.9597796974819018
Ni 6.775938388382975 1.4275264163052304 12.738974840418996 -0.787581863026992 0.36170819204633836 0.365692373505067
P 0.9832632754611785 4.0144685713520945 10.806273698304333 -0.3240003930829194 0.9589543733671292 0.32959074268650335
Ni 7.725717832581735 7.618287078680227 7.958086574353883 -0.2937881311655973 0.1672291775957249 -1.722338041881363
P 3.43432219026775 0.2539241312440601 2.778304974100124 0.4431324580611014 0.25729389289430526 0.5896688831941651
P 3.4028693606258806 2.764562478589444 0.05649784917090609 -0.0555967634286978 -0.49326357038953766 0.3906549569876756
P 0.9814169103515882 7.164745953160485 6.555746424508573 0.32859238332897606 -0.5661587158873669 -0.17434316293268684
Ni 2.215222699358612 0.9616792673300687 0.7984947493968203 0.45437177842034654 0.4833188004719999 0.6073225917201863
Ni 0.5497376709119484 7.860317849070862 0.8593204783846058 0.6621004587920146 -1.0825686424863805 -2.195693560493064
Ni 2.1142726869917667 8.931237308109836 9.762277935293403 0.6997437230660852 -0.5277487486506008 0.8641228328075247
Ni 5.6708334793399375 3.672484825753793 3.170360295105403 1.2284736046830327 1.1195503619170526 -0.07749844859779556
Ni 0.6119749460260157 2.6681083652644504 5.4379902217346245 1.606335266560782 -0.9343370890390812 1.0843506740874682
Ni 7.029028885780056 5.851306436976834 4.002087770109737 4.290841046540249 -2.031383870536979 -1.352665086461993
Ni 6.75158483258748 8.624122167606147 9.876843967160921 0.23384337518084888 0.706865421712531 0.33460413674069467
Ni 9.034338335829355 8.247999131131522 9.718283670644643 1.1455128474190854 0.7357263118082814 0.3704003205036976
Ni 7.2342800631876525 2.0285551867790406 1.5725334697345632 0.3041113674684762 0.5215364491923018 -1.5193499615184736
Ni 5.646193736952456 3.9982297902132484 0.5372783991524336 -0.08494642023540855 -0.07119178965347739 0.47553992785752947
Ni 7.388405390710696 8.564604588298506 0.4001765579398114 -0.41273970470185695 0.11679133266014724 -0.368771526651023
Ni 6.224881489600224 1.149574612707518 3.175724908931317 -0.5335031346358747 -0.48498358976893247 3.1107517466978747
Ni 1.1857356733788424 8.620032468888404 2.9759814386456274 1.3412954111724706 -0.8840226570552453 0.9280396860661437
Ni 1.6705911511572358 5.884374836089595 1.9691290025443244 -1.2240178829045243 0.34752958655311117 0.8214702882443207
Ni 0.5831605721257507 5.359102426062272 13.395995556023685 -0.10858488558995494 0.5393056002502647 0.2442892531045212
Ni 7.912440736114594 2.598694268969406 6.705050892730477 -0.6345834843186684 -0.013836391662460043 0.07338108399531232
Ni 0.5329477497878897 3.6956382442280544 8.12855038673169 -1.9592605702081678 -0.3016029992243257 1.3243947787623902
Ni 1.6106212123977452 1.51827526144159 3.57526631727343 1.4608547934960583 0.8814659520716626 0.11336508058741766
Ni 5.757446466630815 7.62305070066297 6.358165047766214 1.0419914923949667 -3.0086941207034763 0.2919783316503682
Ni 3.429881682179186 4.985093477638128 3.5292318191785714 0.23819471017100913 -0.21962234648546045 -0.46364086242709823
Ni 6.910261450105664 8.22958163916336 4.010167463829305 0.5284702001976577 0.535635093377213 -1.1428761811271864
Ni 5.637561980065122 6.656238538328241 0.28524309941548426 -1.7009567479921095 -0.42102302775657174 1.628049775419738
Ni 1.3390578320792148 9.154259749697239 12.138460282628207 0.9463716516061121 -1.1008419868742718 -0.32166583141247185
Ni 2.979479377345746 1.3957966318969224 11.470698337998478 0.5246806512482383 -0.9185620855930117 2.1295946119814615
Ni 9.050632507921488 4.841603213146324 6.017656547890476 -0.26325808089754016 1.0081953697811281 0.15639480598438227
P 8.77447167848008 4.445677910871344 1.9625624050320665 -0.8985871851329814 2.128665415298973 -0.9723837593991576
Ni 4.47088079461725 7.566422682751838 9.969561037504105 0.8194406594088015 0.1533393069875101 1.3322582406708667
P 5.445327676680136 5.818099560480854 2.3893977056066964 -0.045206421333309245 -0.5764891512790974 -1.6079254938660374
Ni 3.058577658640591 3.3133760437640425 10.248496953705228 1.7225997801831818 -0.21802492009135357 -1.3172373417820025
P 1.0353123079005269 1.4239075406904336 7.756897400187385 -0.18555188716431267 0.14046785034148065 0.6043061734913657
P 6.00290224429974 6.5778972667283275 8.598946979336883 -0.6766559880086863 -0.5309513147482985 0.1628217925566486
P 6.731985666949179 4.149779438408414 12.125705592451158 -1.0510050087474867 0.6928156284876842 -0.705463656268998
Ni 7.599740341154394 6.387998615206972 1.455008637778926 1.1964749402892492 -0.9764265620099637 1.2216907774332444
Ni 4.825835255110423 2.9571383595197043 11.88296766422355 0.11342190196728208 0.908801663772138 0.5656432097035291
Ni 5.1420714392554885 8.918257361389417 8.16590973835914 -0.6294435919889417 0.5815220857173147 -0.53739655615301
Ni 7.225343656057236 4.597735309471647 8.122996520482044 1.527822517765859 0.7365446939445186 -0.10511081099842544
Ni 6.624028698991439 0.28250309359285236 6.177256347963454 1.445476254157459 3.073282288997507 -0.34170295256900507
Ni 8.258477253128445 0.9166805800616905 8.48850203439397 -0.611170761821683 0.3327249174401108 0.07451211227596201
Ni 1.220401178311399 1.9473612810848102 10.183370117194652 -1.3188031436072254 -0.6188413909930632 -2.0313255064952176
Ni 0.26647295171139007 6.121863548310638 8.488259237382058 1.0576703365828044 0.021588781914369273 -0.24318573562769732
Ni 8.066169095139077 3.1408793834005757 4.065187297729984 -2.072709211648327 0.23082155763538956 -0.25969041815093985
Ni 4.9437718264854995 1.0344260526479236 10.538728008464272 1.8746841317176681 -1.3699660396342859 -0.24326364005348425
Ni 2.985332354743147 6.844826270621787 8.627713347744299 -2.669707795734686 1.529350010153979 -0.6572498155679326
Ni 5.5664123005670625 8.220959114101573 2.180641204038542 -1.015435082062677 -0.1613920020886575 -0.5205812843678841
Ni 3.9444451745708853 1.3695043927363577 6.280242901046178 1.2442912884415795 -0.3450325311628703 -0.24607385580876975
Ni 4.460088790551696 0.11620560408483478 0.22865200880654388 1.0374357547034843 0.40183539908452726 0.03532335789164239
Ni 9.200631209424598 0.9693416825348681 0.08407700481285528 -2.4863176921083827 -0.06628123972573746 1.3214526654149303
Ni 9.267829667588135 9.205247122198575 6.384850562695122 -0.8896906539743001 0.46376658937168513 1.9550239064190007
Ni 2.6843840737054885 6.752581869746659 12.906412460382187 -0.6745011464492126 1.9486879368986436 -1.8084532856138922
Ni 2.9363390565601706 7.805093068643018 1.48511269770824 0.7683973196787411 0.029029040242498392 0.0789439227950705
Ni 5.411825381766621 3.0525585083833273 7.7703684800269555 0.3031132652212651 -1.2501523752080468 0.7242910733881461
Ni 7.685190118426229 6.064284652368066 10.131242614238147 -0.1514019807554812 1.0521769175684008 -0.800376443688499
Ni 2.2453553779471247 5.0897823793518935 7.2474511086969144 -0.9531773616740359 1.8164154778837622 -1.009810536787048
Ni 8.032666800225561 3.679925677145442 10.35442845913775 2.500066923373675 0.2047904236789505 0.44673251670753383
Ni 4.561149584825117 2.0188710017792397 1.8324850598788804 -0.4346231350385095 -0.2418053103404029 -1.7666080674433318
Ni 8.349438430252409 1.417232930819265 11.025568328735474 0.37555203990796615 -1.750591123189785 0.5759888146039113
Ni 1.9759799402834588 9.205422526883986 5.2954683757428 1.4513316844969717 -0.4822337949379372 -1.1435562379133466
P 8.563884505905765 8.792824547669406 2.243984451853254 -3.464797794213265 1.0111557379610328 0.6169696278916471
Ni 6.091795492500961 7.718821658897415 11.922083832252776 0.06753208141370304 3.455596587329971 -1.1996191423451856
P 4.0633510876284955 8.35704545450392 11.965118910227103 -1.5561000245543135 -0.11842501160882829 -0.5747935087442294
Ni 0.22091943172758 2.5362778964397084 2.106204994645412 -0.1731648263538695 -1.815045594119429 -1.2796434426886285
P 8.64780180013664 8.378112480404345 11.83947376451949 -1.461914087998508 -0.5190756463566351 0.7045478293229479
P 2.4403223016943048 3.8929777471410576 5.115155128687882 -0.5471685479381093 -0.6269946162278169 0.48325272312075485
P 5.988989883198977 2.482511744448441 5.737328472396721 -0.6086739635417582 0.007215029691200477 -1.1816113929138552
Ni 3.710335310500393 6.849857615545419 6.525155847372883 -1.0937963928814003 0.10069519842923305 -1.6448102827075286
