# total energy = -340872.2148498624 ev
CRYSTAL
PRIMVEC
9.23337636425729 0.00000000000000 0.00000000000000
0.00000000000000 9.23337636425729 0.00000000000000
0.00000000000000 0.00000000000000 13.51397963307442
PRIMCOORD
 96 1
Ni 6.060843778410757 6.555281860162169 9.704496678919565 -0.17891972655977573 2.7495048105586712 1.596554275914618
Ni 1.4864997601696275 0.4134465958620272 0.6440344788664258 -1.3411115772964388 0.3726443793428679 0.4117462304403361
Ni 8.171796795762555 0.8934399833130435 10.95198586998097 0.16970540705035936 -1.130594535546356 -0.0811733263462215
Ni 4.451263108611699 1.3345368486406588 13.303593920807456 -0.4354183772462953 0.10928859652519887 0.23311575298620496
Ni 2.3771974306424655 2.697798731779229 13.676012931234569 -0.25178504726093415 -0.2905678244560867 0.5731724282010386
Ni 6.6304507787888145 0.5701092960632674 12.917810521138211 0.7371861841832594 1.0207585511581194 0.6916673738158541
Ni 7.817678337689944 4.390285889767532 6.611241662180182 -0.6439685250779943 -1.05367124272574 -0.18295455875078168
Ni 6.437131573619169 2.655583734117882 7.947760916769637 0.8512038107530114 -1.7392944672300432 -1.5233871077023247
Ni 1.787221601559042 3.6631020849081652 3.357601971145665 0.4929226421103511 1.5574583383544212 -0.8774966830112694
Ni 5.072632418020708 8.818779491766616 11.109640234825436 -0.6100453899679881 -0.08307208603083112 0.6925641745985105
Ni 7.358520987798551 1.937448638293537 5.396429390787086 0.9072407470429215 -0.2171332615150196 0.60461470587072
Ni 1.4908948474152095 0.23209846341065338 6.936293450821926 -0.4327732263139643 -1.497730326366169 -0.3772286562794407
Ni 3.1182867006107533 6.5989280311913 6.486994577090423 0.10925851461821183 -0.07415190072306584 -1.156329221308299
Ni 4.723112181478141 6.177387457431211 1.1881841367134038 -0.4545954643953784 0.7520250489683049 -0.5368422263114367
Ni 0.7941645651469743 5.354425837449109 6.649553711566933 0.5873438346054143 -0.20900754708409167 0.6527406148436695
Ni 1.1300175576960327 7.053634893577714 5.06214791892962 -1.6274553363688486 -0.7909062994145347 0.36445901531859815
Ni 0.20081116691558046 2.089762418132027 6.831452153261662 -3.0960509501525904 1.269986893435471 0.46474669389676737
Ni 3.713137752521209 8.557530335198342 1.208224257213007 -0.06778559218540584 0.31594024178260427 -0.08508166026169219
Ni 1.506840888745294 7.2497425784703955 0.7113716474894946 0.31416232394657506 -0.814138787579914 -0.043659902781795774
Ni 9.356642143509566 4.402335446186617 1.5273232879824257 -0.8464022755993101 -1.292453449969103 0.17560994546025238
Ni 3.261284003493798 8.26709447530384 8.121969802459908 -0.6605428844969076 0.3858346527808968 2.2527620233712815
Ni 5.612129377415904 8.014404658812573 2.6208200713455785 -1.1004290677065693 -0.09417796613600554 0.24852386001115911
Ni 2.360291118149481 3.596510973111658 11.29449797370968 -0.026801950684192548 -0.383019809039921 -0.3228554808451988
Ni 7.665013689541934 2.548033363873051 1.200764612285054 -1.881979636937817 -0.8848261267931471 -0.6944220537428557
P 6.563241030762362 5.846527874929234 7.768592784525578 1.6155462436360886 1.0051671244777658 -0.5179525884957854
P 0.03354208705257532 9.039050923133432 4.974238787316726 -0.5102624189403793 0.0432554682545255 -0.34790805293845245
P 0.26293701780460177 2.1527525130676586 2.084395979671665 2.3522578021757745 -0.17856260033067312 -0.1819770253288608
P 5.524144532115166 7.660138466714901 13.067086520086372 -2.6422419862142497 0.21886515660446176 2.333873386131316
P 5.649561486015882 1.1633500471005518 1.6558001828772295 0.3285777280409567 -1.4463753689329608 -1.428430868639398
P 3.210186497575623 1.2395531039026286 7.88115041488234 0.8408000989211842 0.0884588042640412 -0.3554084750805557
P 6.912918234706558 8.65150764189064 9.949099904214025 -1.04409722588406 0.5855340350901852 -0.5598949943658422
P 8.370138957784294 2.415765244560104 8.866009136241146 0.6040400643141726 1.052352781024633 -0.07436967316082677
Ni 0.751281071022224 1.8849753592669767 4.291161898977151 -0.8084800466322398 -2.0230306134762777 1.113616770041437
Ni 1.3831228761327863 7.4161741910788335 11.819799539971768 -1.3933666779464131 -1.103313845453532 -0.2132375260050392
Ni 4.6003636734051 3.753893876685073 0.008586116869047759 -0.34468517512578056 0.5579520117068584 -0.07693383434357719
Ni 4.161870620269195 -0.03814677194621347 6.181672667495654 -0.5286460636538896 0.2840068834091173 0.2570149282013058
Ni 5.259432859334511 0.6372987306612745 8.870589814355712 0.9016897353177051 -0.07114910934100005 -1.1021985009021664
Ni 6.210821513977961 8.869230661325146 4.993928962844465 0.4873364062718253 -0.09306082181242682 -1.624156353902603
Ni 3.5113977079230545 1.40170042978428 10.184068101061499 -0.8316063482370581 -0.22786787432370434 1.371658339735044
Ni 8.676751693423038 6.110759412128438 13.145480657147642 -1.0223369513888327 0.5501276305664331 0.3538699269488422
Ni 4.389187117956136 5.0068815434917395 10.668341158551018 -0.2121617764423572 -0.7415588593296584 1.2676353624841588
Ni 4.173910943311714 4.205184389741937 2.44870623879821 -0.6003929544798885 -0.508230219001699 0.16001903300053086
Ni 9.087821618156887 3.0465987649496213 10.809305271914152 0.5094525214445742 1.9891704703937225 -1.7556921918617763
Ni 2.7470310956310007 9.260707360985203 12.241719605508735 0.7574505908592503 0.08556914142107198 -0.565815216505019
Ni 7.165441850419631 7.746682905271289 11.93220943630347 2.3420559219421087 -0.8930243463332233 -1.3196215257434627
Ni 6.22738619153799 4.405197792922185 9.363039026794732 -0.5540863581038651 -0.2086033696671375 -1.3438770558567177
Ni 3.9069463266488706 6.099660893495687 8.713814466960361 0.07439229886864607 -0.7532257541446254 -0.3332003144146326
Ni 7.663323981630292 7.4169867282166715 6.191240292293704 1.3027232073262274 0.2680601302718738 0.7158719960865155
Ni 1.459455200206792 1.8417631569364643 8.98058056602703 -1.2317440479041883 -0.09402421416696065 0.07349961185104761
Ni 2.282730754992151 8.829656409361775 4.612307969331329 0.5545285878476063 1.1524098316492346 -0.35356525122422977
Ni 1.5151232275253088 6.662287461189585 9.372066499063653 0.7552062749097638 -1.565946064110458 -0.8428225286678517
Ni 5.6740668674229715 7.873346365008462 7.5374361255246916 -0.3379162318330632 -1.0502892136273847 0.3446599783148
Ni 4.168851052953355 3.1927538826183564 8.762045932792342 -0.804375280435247 0.0006211785237666721 0.21624057449742112
Ni 7.511924306071871 5.091616240241122 11.03255631389893 1.9189027352164112 0.03614045447629905 1.5050589988170984
Ni 1.3889953036289842 4.83731981622731 13.185671698665647 -1.588680529593496 -0.727543775997489 -2.7428453962606247
Ni 6.251540704635558 2.4280548687699146 10.316842209410282 0.3779943308008716 -1.5692776995868523 1.5991446623496135
P 6.5541738549742075 0.4760267288781128 6.805342934344997 -0.31731758174610514 1.3763991968541391 1.3857873229372588
P 4.6800015462898585 7.330294555635223 5.01914623758482 -0.8386815099162847 -0.6863960981145857 -1.0912561429580496
P 1.4317089036249138 1.4393356726687179 11.207359829040076 -0.3715933123705343 -0.09417385237094748 0.23049065665853208
P 3.3090113269652544 7.742186250883477 10.38387190659369 -0.872121020521653 -0.5003536444670996 -0.002432520700892585
P 6.18867064359529 3.911267546881922 5.077877899248052 0.3403621222703944 0.7340036726902197 -1.1964656843178685
P 8.918139856997096 8.584307127240754 13.041922798930102 0.5484407297823135 0.010560806234981812 0.39368731605609614
P 1.750057260879488 8.378513630329971 2.573696610701561 1.0652129248167526 -0.35611398578801245 -0.3588596668539497
P 0.706507504714342 5.243763819301418 11.028894356752716 -0.381236234776937 0.339495403394725 -0.780975670564384
Ni 4.385475300576465 0.32701480449974923 3.771481612368654 -1.9563554807462304 -0.5423556999304981 -0.30936953054362204
Ni 5.760906774029482 1.9592763404963855 3.5673122663958927 0.6403021319700005 2.14524748802737 -0.035948135959834863
Ni 3.3142928183612064 6.66310923170399 3.277220811447316 0.23755476259416505 0.5347148955557888 -0.11275007271123809
Ni 3.8041880788419746 4.659180282132742 4.844869948245614 0.3791685536146308 0.8842589414357673 0.7345657158412768
Ni 2.253350150758029 2.6701817024692795 6.308379524102689 2.4371276035369767 0.49709939919586005 -0.6206447627503892
Ni 7.790236742534756 3.325040468684436 3.5225137699712814 0.63820951110703 1.4392251310414246 -0.1315857173605024
Ni 5.161808368898506 4.484872599313209 6.952888598524624 0.1954136104497409 0.29903369583525274 -0.3568398082104435
Ni 8.56152838725157 4.9236241869929716 8.800844581124139 0.03986212630226038 -0.22846539869838717 0.6274394170747194
Ni 0.8517392847264423 8.753794987492652 9.936585908953651 1.6773010562463824 3.1629356277902816 -0.06813217689154719
Ni 8.507051465510113 7.269225003025392 9.748080062988043 -1.235636440980059 -1.7808262679252427 0.01561225261596021
Ni 8.009981871437292 5.686171824101455 4.6554038311171055 1.7293494402021896 -1.4080119386634138 -0.2547248466155484
Ni 7.722611492562818 7.742823353866555 3.5715965531226783 1.7333256512411181 -0.3860855924494383 0.352913990793476
Ni 8.03883617320713 0.8368292282471023 3.1398383248542685 -0.3828136065663859 -0.10047022690262052 0.1503496282315669
Ni 0.8517365147134726 6.106392025012555 2.9409393902255787 0.016681060200106755 0.732256608092126 0.15660460800234322
Ni 2.5678204898547365 1.377185815000624 2.63599604907003 -0.2576679884042724 0.13612551421238492 -0.34227862256681696
Ni 5.003068158969837 2.203480683923179 5.930542368306442 -0.8453882325124988 -0.10382217409398893 0.5112751764756097
Ni 6.075183212218296 5.8018198655949735 3.4148202823896723 -1.4033595274930668 -0.10521365512487686 0.8773249333200955
Ni 3.266260793463059 6.122218032447277 12.542365733210305 1.3211168793420667 0.6032468789889158 0.13407454522062714
Ni 6.466789179150282 4.620991036654323 1.470793786630268 0.8904506720687762 -0.6123853509550744 -0.8740123240070947
Ni 5.875225209297446 5.580717430337185 12.612678819100708 0.19508425213478015 0.10387385326753078 -0.058307991712273764
Ni 8.14958129174392 0.3133863406878184 8.30893552121425 0.18910823705700333 -0.4879696689804499 -0.22606193146321713
Ni 9.179342846682536 2.1150618699238226 12.831983515941028 0.9494842290931647 -0.9607893696933388 2.0130843008968426
Ni 1.649182621892127 4.188287310625519 8.952308890318525 0.36023366438334087 0.4797794198601737 -0.07155560075079935
Ni 7.351660589009755 8.48892634731037 1.325331172204009 1.030336938875174 -0.22526128993879269 -1.6086991388072682
P 0.17866214320822293 7.660507801777555 7.710969128050308 0.9867217732883845 -0.3130588064697512 0.03858094559699162
P 0.2693486744922744 3.8224886311964785 5.045646951667898 -0.41953255925397426 1.0070409444617108 0.8459934701966656
P 4.50333011906934 2.9062514411411198 11.475950443316252 -0.09800813851537314 0.1757359295151554 0.36163028762055144
P 7.5775366799523445 3.5978405793372117 12.754885744949673 -0.502432124262683 0.6905042067456882 -0.26351287722082356
P 3.032545565815638 4.496728254824401 7.28934637723878 -1.1101609502823524 1.2782619889600695 -0.15665808694809796
P 8.022059127986076 6.065783634873753 2.039124734366857 -0.33767480524621846 0.9139505549629292 0.33369268067001884
P 2.6391667905829137 5.212268771833601 1.0997607060257641 2.389933719459994 0.12021861317414134 2.878973995796803
P 3.5101512020865973 2.621189406408233 4.365988259333185 -0.4416337620283878 -1.4135189845245721 -1.7741126033504928
