# total energy = -340858.79380118306 ev
CRYSTAL
PRIMVEC
9.38626860901190 0.00000000000000 0.00000000000000

0.00000000000000 9.38626860901190 0.00000000000000

0.00000000000000 0.00000000000000 13.73775288785643

PRIMCOORD
 96 1
Ni 0.2317206892461553 2.581749485615643 5.79429564093204 -0.5782197608169589 -0.3463229678395197 -1.2859197626156433
Ni 0.5170200766984622 5.738924165430528 7.891651719371064 0.1403881461434808 0.02715084938317905 -0.1184959740560798
Ni 9.305724991563809 4.77295510889963 3.9519804359816972 1.0831162874597347 0.1797046843549163 -0.19920778738485048
Ni 5.624590028075647 5.218342938439607 7.147670730214284 1.389757106218284 0.10504061988212232 -1.7374191045842016
Ni 3.8640545652262714 4.937609032015904 0.7587033513964253 2.1904919616874663 -0.8084468794014592 -1.3197315689587659
Ni 2.641662037847496 4.037916417801959 9.776128165448624 -2.183123694247853 -1.3478653510805043 1.1783417210236482
Ni 3.443024102604931 1.9203554576561703 8.397394194392168 0.20070159832155757 0.0010163570796563142 0.32833784411600875
Ni 0.5454426365313425 0.08998709533166238 10.369695139524685 -1.7606724186851872 -1.2538352233762728 0.8284783441310376
Ni 4.839766568524624 4.920047323536223 3.033007487514354 0.4338752011288915 1.5384059497086602 0.0825061862250321
Ni 8.51675280130834 7.056296344389144 4.251408973500526 -0.1313394056776512 0.7029946259032152 -0.34212795592156564
Ni 4.544239902847058 1.0082729689402607 4.445880255958007 0.9336259219046695 -1.5482818140614756 -2.388539153105312
Ni 1.4972694022197315 7.754897540928762 8.996991846019375 1.1169849151827214 0.38182784561434885 -1.1936102171469445
Ni 4.765342845095771 6.656272350809773 12.632303046387387 -0.21603102958977632 1.4406497793030932 1.1256017103174552
Ni 2.5221560665149005 9.298704062679361 3.736256764245921 0.07258738444942338 -1.129626515206132 -0.252006676353437
Ni 2.4045836665060967 5.304508883839641 11.892237069847859 -2.350818498626087 0.4259068382114342 1.819306426278312
Ni 7.29228590857734 4.545704160742744 0.1928831258167742 -2.0910224081352182 0.8204246205886256 0.054581434790306
Ni 6.012261692227302 2.565595717420277 8.832948968986495 -0.4548389478647521 0.3932800533153485 -0.12814995220607608
Ni 1.8518075383471893 7.597189456548438 11.371864218019017 0.2901111965346423 0.31484186651210294 -0.18767279016205743
Ni 7.396107425142675 9.240725081771298 10.055609005019289 0.06100045094277236 -1.1778529543126877 1.0918397833756615
Ni 1.3810767836895557 2.9882124594286106 11.956007378458732 1.631534905754861 -0.6365992291971165 -2.022082133520079
Ni 4.97177504958193 0.24053814993338749 9.575034870520586 -0.29695290204682406 -0.1407334452980415 0.326332897870838
Ni 2.011158219725879 5.777924111306033 1.4276955637569138 -1.801773302490555 -1.0119188413793023 -4.806811571608999
Ni 3.1339624376608244 6.431414901136222 9.714693160456 -0.07697291511162872 -0.506032954240064 -0.39352302256409
Ni 4.8809629012436595 0.24258811098734906 6.514992113666829 0.5414270174686416 -0.8780831516423588 2.2327369863996065
P 8.929025875361244 5.737234637089352 5.87946945774506 1.568049997827338 1.9180010493377482 -0.21340181949704537
P 8.412790490714572 8.265717048615103 2.440662605605078 -1.0393689671704551 0.30205577049102816 0.11732895033117212
P 4.581794363364001 2.515088206287643 10.415167856200611 -0.9717504966905329 -0.347717277083885 0.2758102065309379
P 1.9682160410542933 7.794150916055443 13.480389956046933 1.2846444954476455 -0.9898775453085469 1.7260769400985048
P 3.330351334785541 6.871752918189791 4.1461091196366615 1.662447793283634 2.028275406814984 -0.23599050343083874
P 9.041698643180634 8.456427253259752 8.581850328293893 -3.7931430945284412 0.0774341710187634 -0.623573763471726
P 3.233653996058837 9.039333303502985 8.160911851104462 0.5939628825838287 -0.07320830586287391 0.012362378220094838
P 6.152192183951016 9.017172323427879 4.694341355184659 0.4845022792571398 -0.8290866671389979 0.3345725121718109
Ni 0.34885662776682164 8.876941471110179 12.744320652661143 -2.4096774777458245 -0.20315571628900497 -0.4076890296518269
Ni 7.123445709682373 1.2982805087033145 5.6162409421896635 -0.9255775976788962 0.7187673153564396 0.288047114916762
Ni 8.726629766356785 3.8304329512368462 12.169890402929482 -0.6764945227301575 1.1326794430998428 -0.8470568784641734
Ni 4.6391913956212125 6.788384080821262 5.756077571227757 0.1509921469115722 0.3024506919366017 -0.9185867681833599
Ni 4.244292304676746 3.083314132499759 4.5565105717382846 0.4640658657796588 2.646572238158487 0.8008446415741691
Ni 6.759005060221905 2.6650995504470476 11.59548737337665 -0.9288272149644454 0.8841638106187999 3.702388552251688e-05
Ni 8.879119085416583 0.7136839914920483 1.584842349277223 0.10030747607251111 -1.89273430435116 1.023903010324372
Ni 6.907965142302355 7.77841014367681 6.531916494511143 -0.5152704136779319 0.21108859798283647 -0.3692937177030801
Ni 9.213242087421484 8.345002859159122 6.185326650602067 -0.02032919847565531 -0.6618957989803762 1.091658263492475
Ni 2.8993995862940665 1.4965091144662017 5.953900690188761 -1.2454523986292165 0.7931040783968019 1.0721795859425727
Ni 8.316243332284863 6.436154966760079 11.136001368456407 -0.13121496428464496 0.29432600594693825 -0.9536391318018026
Ni 7.607448648086809 3.534192929148561 4.597036724881987 -1.1917263698606702 -1.3986865474974297 -0.5669058784660366
Ni 1.8732551620115767 2.1692792999229336 3.879912665961931 2.6032522352146135 -0.3514574608526076 0.05160255466764016
Ni 4.373259634719933 4.669293158899852 11.595652571703344 2.822709773987435 -2.7066491488457256 -0.6445051143077546
Ni 7.75094592186412 4.3472502845343675 6.709422096542637 -0.5351188158624268 -1.3724908629386685 2.306988388815014
Ni 7.520841548064357 0.7211845587000185 7.846317919469856 -0.1484290141700863 -1.2545980696842265 -0.33442390240908854
Ni 4.561482478195627 9.38655015015201 2.075389394123152 1.7756046145149869 3.3415496501841804 1.4512085286555458
Ni 4.8093456721148735 7.325644707047027 8.02979882006798 -0.34878042824107675 0.904232556344217 0.33364305837900604
Ni 5.535824086283914 0.7096375711149291 12.17059155719107 0.48813781912719806 -0.34743291307424684 -0.022287350643290647
Ni 3.565890358082757 7.590253004081051 1.7004314307388562 -0.44640315839257316 -2.920998676968021 0.2562883344479263
Ni 3.8234214086209612 9.062996086548027 13.592997958613243 -0.5858158279966621 0.24744142558025772 -0.6138115418786396
Ni 8.04622854455907 2.186906712282548 9.639588932556396 1.3494722905563081 -1.0175590703842152 1.6292144851518005
Ni 4.481689809149255 4.638825331147291 8.823539234752994 0.9688639191713572 -0.7379981385615935 1.522789326217326
Ni 4.3079781368705605 2.7505709119734862 2.0210428991486213 0.6165204561693705 -0.9387470451813188 -0.04863267340603882
P 1.0468411464619096 5.676909089040765 10.218552750003548 -0.6678394181583208 0.13538992159794103 -0.2488465334579005
P 5.317086483712848 3.4442349312494414 13.308900952163741 1.7171001905211913 1.1360658430735726 0.3646451631874752
P 2.745746369932569 1.1319558297829884 1.6991126600058817 -0.07938409565628264 -0.15999563596176317 0.564435305438357
P 3.221451846928113 5.242005721484649 7.1856006414737115 -0.8923836274254309 0.11248447775467724 -0.5247133042583866
P 5.220529939014575 2.507917097106202 6.88702437714032 -0.5944899587318924 -0.575886484698092 -1.5325829152689798
P 4.069304099873605 8.603988781324452 11.407472905063035 -0.0926306762535437 -0.8633587009479906 -0.4722728270704834
P 5.817740662546441 4.757242495326683 4.977201251437677 0.1315821178160766 -0.33694101240398744 0.20659533809817324
P 6.584242125864255 4.813822922218993 10.500505932713468 0.6116111917932111 0.4417846857839553 -0.273049098846033
Ni 3.5500744955556263 2.4748305004248166 13.447377510887188 -0.936732071633819 -1.522289760873088 -0.6080029056166626
Ni 9.028905159130497 6.3313760508014125 1.9513104327471038 -0.4633246167382601 -1.4847233725835398 -0.25296466939133205
Ni 6.563742515324639 1.7568278867673486 2.9459235650489473 -0.1106440821118288 -0.7792951975381676 -0.3691469077125707
Ni 1.2806343238065756 8.213407373918548 1.8176968997656793 -0.88006084419402 0.9685111638176288 -0.8059580515413345
Ni 7.080099921462617 3.8987274412946507 2.3739938172622286 0.1490172825733885 0.721793503777273 -0.0005525300693603387
Ni 2.10183896030428 4.016703450851624 5.368645256924437 0.658836186218446 0.5416244781914284 0.2243593469498136
Ni 0.8311568970540939 0.7652014651219636 7.805914726444318 0.7900791755275489 -0.6693969924534278 -1.6337884776757283
Ni 6.406822877503533 8.309710489365644 0.9664890558092379 0.850810946189967 0.018582905208509932 -1.3993434643551383
Ni 1.6549399415258057 6.3404713450380825 3.289422510720525 -2.2976025767247394 0.2584395764629743 3.8122399632588926
Ni 7.482667593822317 6.338199868046055 8.625701097762288 -0.4018150873695531 0.5336568866049196 -0.16394356486591766
Ni 8.61097216513465 4.421073286775246 9.773517844161507 0.8404512002221977 0.17904931015910455 -0.7903072323779551
Ni 1.1180078346997149 2.011158219725879 9.665580448831694 1.040004286761609 2.9346980288319844 0.7034815928419627
Ni 2.3760306375402034 8.440517528047002 6.183252285249845 1.1995764620327083 1.8298934577655388 0.3035228419548579
Ni 8.389052617521035 2.336617695847966 0.3918119472143939 -1.0043474567899475 2.3615415414705456 -0.7852786688151121
Ni 1.410024035935057 3.397923082164064 7.714421135008439 0.8091498190057548 0.4817306300492736 0.08975592580890994
Ni 1.8796472109023634 6.394911702698234 5.793127989122915 -0.8134731289714571 -2.118234449773636 0.38928558744397473
Ni 1.3383223303892122 1.287401823439846 0.07499253130371537 0.7768984151712168 -0.08645540068076724 0.5752668488362221
Ni 2.4027815029421746 0.8859257741139192 11.56192677013288 1.440277740675655 -0.7573156079432828 0.006298688524518184
Ni 8.650882579060678 0.7794047667101262 3.971762935603169 -0.005722247195757887 -1.6532471006209721 0.3309693682015848
Ni 0.09637820559559296 2.583786305893617 2.936375852667584 -2.8785263667364234 1.8119903522328729 -2.0190124934558193
Ni 5.917113087813343 7.515876211995009 3.176608010245847 -0.2098323569782322 -0.8387653278793424 0.3608435300531979
Ni 5.272041780883353 6.545458064165677 10.24461278603935 1.8256477951153074 0.7316819665355786 0.8204212781545162
Ni 8.193151806361547 6.793058442565186 13.375351040449095 -0.07380608734787289 0.293169780855308 1.384196838521687
Ni 1.6847882755532682 3.656674347615341 0.26818821986360736 -0.6996223669968725 1.3947612443010946 1.8132370801557802
P 2.783235126569577 3.9932283931778247 2.9619280915741757 -0.7782919530846338 0.6975390021052826 0.08016905345142322
P -0.015566187783378592 4.990106432083701 0.14762629331777624 0.8117605171557244 0.40884191230934747 0.5782647551222816
P 8.765864368946344 2.513980626597316 7.707964320864574 -0.05025529661112634 0.6624863813765236 0.6076810035008696
P 0.9258380652936601 0.5254320505838118 5.32919007702367 1.1080608732202144 0.4205746273652434 -0.37785343434763313
P 7.270631787004588 8.408529124787382 12.328396320137582 0.22803319625697502 0.15537279247777114 -1.0320773186050483
P 5.741627410776412 6.167745230958407 1.1608336236411303 -0.02680246490482481 -0.4908788722074449 0.02956562947225876
P 6.346985415420176 1.18773842384752 0.5529141063067702 0.11840032901847997 0.014864832926974401 1.1488907627523828
P 9.098241524998695 1.5974115015087247 12.238181138479863 -0.3137010680394404 -0.21323881155661986 -1.2919538846248653
