# total energy = -340858.410083527 ev
CRYSTAL
PRIMVEC
9.29733414803196 0.00000000000000 0.00000000000000

0.00000000000000 9.29733414803196 0.00000000000000

0.00000000000000 0.00000000000000 13.60758831458359

PRIMCOORD
 96 1
Ni 8.724237018113909 -0.10923065802215684 12.836541741472097 -3.1338050289729127 2.24281751056406 -0.4163510762021991
Ni 5.659342978911104 4.113475257706534 9.523678507632573 2.830393258674622 0.6617209639654087 0.5659905657406188
Ni 1.6903668859544438 6.781559082553104 11.858835959380748 -0.347911138262246 -0.7167556842430495 -0.6625974530330911
Ni 0.8894368932652444 7.96374299037968 2.7694024516499556 2.5186344019632174 -0.6826446014919534 -0.39733314033879963
Ni 4.306831912532369 3.506229185999339 6.313485732957434 1.0352927402185526 -1.4567888509568008 -3.4287838380125013
Ni 9.3316411444988 7.331858983619908 0.15015473301118767 1.1058186141532569 -1.877819077802224 2.266571161340232
Ni 3.549266545002502 1.4783690764944897 13.649907848095758 -3.00464206212129 0.2782928637434755 -1.4474544609297524
Ni 7.872089871984091 6.952676514493743 5.660892844485922 -0.6203364874813511 0.2692292108793105 1.7824530048953884
Ni 0.0005764347068904997 2.697156588208612 2.176724372559321 0.4285990403316167 0.791780731599688 0.35832024941071194
Ni 5.569075163278849 3.7382162635208185 4.131998336199081 0.1062112431514558 -1.2749853750913267 -1.3627476675089756
Ni 1.9128613854801948 6.757441798203524 5.504514476107113 0.6115551417442953 1.168608295785968 -3.312639909128366
Ni 9.175167013579975 0.37813558931977853 8.414633007309623 0.520445015900336 0.40632943030013896 1.517845094838173
Ni 4.518904100664179 1.9644801837488408 2.0392335381651585 1.3204723037795323 1.2159664733549573 1.758640732967139
Ni 5.445243971971195 7.640614147831626 6.608783935963456 0.77619290446376 1.633530596028651 0.005800408731860978
Ni 4.277108335791579 5.916544426192052 5.892248633030016 -0.7368241728581504 -2.6670806425244837 -1.1999832105528236
Ni 2.6864088701252986 1.8122177451239099 7.1420650671760155 0.16014398861416934 0.1917140501109666 0.5190046839093836
Ni 0.19206246593552523 4.890174538571571 12.436954413455407 -2.591313060574866 2.6511472591236793 4.234586337812578
Ni 3.2456528064828865 4.233094756720295 1.6055863568384263 0.5490814486901059 2.5472703205323546 -0.22921590371116654
Ni 4.017405905669444 0.24944003287268698 10.954080778646587 1.0529379641041414 -2.549077806054739 0.7973687672104267
Ni 7.772357370358052 8.458826024926761 10.32870397594089 -1.228198496644775 2.40743033358286 -0.0031141201489494758
Ni 6.544384092669611 8.642755183094742 8.377688191264934 -0.6769678628221503 1.4640326770034076 0.136677530061113
Ni 6.513544835850968 6.560217452441134 9.760110640530899 -0.3324007013314727 -0.33747785874406394 0.439954574553752
Ni 7.0759312710945075 4.88420565015506 5.436353861217506 -1.841347208128435 -1.7818873621999054 1.3728171359298358
Ni 1.0443695262098358 5.197814022705439 3.1906804598468956 1.0791279922359478 0.5288175562347474 0.29043438420201595
P 4.750073012795234 5.38594557583333 2.947253942593834 -0.5047828838830467 0.30937595830152526 -0.2110204637490624
P 5.614966803814519 8.229618850265933 11.774836406319228 0.3820674724289807 -0.8144480912902167 -0.4028314444492095
P 6.600428421913738 3.6009039379391123 1.6806186312742069 -2.091350223788282 0.20413890613788072 1.1286536097699014
P 7.49044360935267 4.96583624251794 10.986684669455032 0.7943212386333546 -0.881416844001282 -0.08138518524671146
P 8.672060379806336 6.623346350179626 3.769451586767098 0.30553678706109316 0.7162615182154503 -1.6669899041283613
P 0.13213835922066494 1.178548650239573 3.71815075732064 -0.28428327699895556 -1.544627762248656 -0.19853852923196777
P 2.999226969287198 8.658746597543963 1.243163261948405 -1.5349161913878469 0.24850920472313978 -0.05292975811949594
P 6.713409624464276 2.305004338177412 5.747572818934483 -0.6643910545984042 -0.3440907360748913 -0.1360684357222044
Ni 5.064267117386485 9.37691916099165 0.8279378181738156 1.3235599415659207 -1.3203509477103197 0.2894571078904112
Ni 0.28385597407424445 8.425532271936845 5.410975858379952 2.0809534539349905 -0.5363940830304247 -1.0454120880407414
Ni 6.537280929507282 5.386810227893666 0.13562485946395425 0.025130219408724463 -1.7761422321860119 -0.10360620142844093
Ni 6.4740311664270225 2.5258346149203663 7.872003406778057 -0.2263781771520553 0.6467764268404345 1.1576240288603223
Ni 8.27201469322433 6.826623260364366 11.817713851177897 -1.0028670155896793 -0.6920309278028598 0.13168573327347644
Ni 6.558423066982588 7.59389504457155 13.67902802786111 0.7865174263182195 1.9826591516377658 -1.4427565412334509
Ni 6.310667711027458 1.1303512708763415 11.68322977459355 -1.3587282619369374 -2.726750547581291 0.472524023849341
Ni 1.8533398533267595 3.530811337048024 8.562520120562576 -1.3431779729071642 1.5915092572915428 0.5910025144039242
Ni 7.681373660009174 5.377968463276684 8.094160413080257 0.3268882561536757 0.0008793172811597759 -1.6194226958723594
Ni 4.576817194038711 7.034799865557675 1.5134627933433424 -1.5887265523400833 -0.37766342982401413 -1.2778758092652445
Ni 3.5516652571698852 7.876998864326642 12.69778461018957 1.1893020766898936 -0.7695527734394231 1.3723250267847655
Ni 2.140488013364067 8.160827876132338 9.802933231119075 -0.07388527732524049 -0.06110458062080445 -0.3255327705670458
Ni 6.684643673123643 6.591874874650202 2.155931814841742 2.0106903467433694 0.5027367999872955 0.5594633061450623
Ni 2.3764171604939595 3.8546653716466817 12.981502983720882 -0.010071782413705235 -0.7417267523660903 0.582346638501139
Ni 2.7196375417773417 1.9549411190832013 11.067269311744926 -2.7571175899089226 0.8652335493732001 0.7408492348571434
Ni 5.392853494982034 1.0963881098397124 4.455817970662006 -1.9023561437116396 -0.15819663507981144 1.2951723915621631
Ni 3.347300558909239 0.11372777846930095 3.3985363070178223 0.055277432416066086 -0.6293839423955999 -0.24917460622128054
Ni 8.244485287303318 8.83356436840948 2.8560424475623942 -2.412592337399774 0.5233655319812407 0.4361958788422681
Ni 1.1333078230826508 7.070864224074261 7.443963447575932 -2.7543636813128693 -1.8906365412818664 2.6231150355768116
Ni 0.9767593134919695 1.2578735037748912 5.81001836262529 1.1429543426632898 -1.131803725363109 -0.6547486464126336
Ni 6.818962257163112 1.5939070458901063 2.8867822229074274 1.3088192929216362 0.24917871998633861 -2.7769472230403403
Ni 3.9260317072933186 6.34751304559854 8.278489356609468 -0.631513330033777 0.02011065470694601 -0.8866374689702731
Ni 3.9728530812271985 3.9903227717795735 8.278094219915229 -1.3321422839182928 0.252014903883553 0.5068958164609915
Ni 8.162008637548066 3.438405134599884 0.38269035323761164 0.8331364117283393 -0.1707258778950737 -2.26508429238206
P 7.210314936471851 1.4296417490942779 9.699108043074114 0.9072312339612246 -0.32779302735613225 -0.8763049766960135
P 3.7718912072040025 7.792448909093381 5.089034285381414 -0.04709438238464147 1.8309746066448596 -0.12856621380788827
P 7.026739076995191 0.9766942321540949 0.6885661331150732 1.6990495036670674 -0.2796699465966603 -0.6813279395630588
P 3.088314023503727 2.146029224417402 4.39145438697069 0.5971777899767006 -0.06881737588402988 0.431286871576425
P 1.3005389694187703 1.7089615539186536 9.340316486837503 0.6111607345193539 -0.24179116927301583 0.2741852693330052
P 5.743892934144366 5.0954317808945 7.296946564783705 -0.69789381434154 0.0884418349831767 0.14255661454970933
P 0.38155700822519306 8.44181190373951 11.114229215955138 1.5883167184961742 -0.5520209909344042 -0.3387289575423457
P 5.97652152771061 8.859773552905034 2.9783609626311605 -0.31983032086562985 -1.3888806171506016 -0.3471634614629441
Ni 1.7075297644854093 0.13740436918812912 12.62360954994694 0.6705185076523807 0.33582566785262163 -0.062116052604454325
Ni 8.471842292501709 3.410104049958357 9.150721533340828 0.3061116857279567 -0.5084238230697438 0.9651607592881573
Ni 4.250573744606651 1.5531382363785766 9.08750152172931 0.11541450691727864 0.07217729349519827 -1.589003974371186
Ni 8.623240079066305 2.1277506658085836 6.939094039279286 -0.7715883158122131 0.9911037044061641 -0.015295749816805917
Ni 6.075770567969579 6.572778150650959 4.265162191357973 -1.4353337664068184 1.1594040035788806 0.692857280358897
Ni 4.240383866562265 6.853669204918309 10.42841974236576 -0.2874583322928275 0.4750596457870012 1.9186636226224119
Ni 9.169793154538318 6.578161307026598 9.413810982232643 0.6906661862448492 0.2713819955562552 1.1689967894736382
Ni 7.930402750719852 2.5119072086151735 11.545956497814567 2.242441358171564 2.526195759250243 0.3779925310286587
Ni 0.3848278103200976 0.676776183892366 1.1907030549543784 0.7055785845803074 -0.7076879176138264 -0.00640538930571155
Ni 3.1540275800892434 4.392637007853214 4.121792652686925 0.12868679854615256 -0.898474056593885 0.3901021698079991
Ni 8.091943928658923 2.891024596403462 4.224965167886342 -0.8212617717779404 0.487823887431205 1.6882210455929956
Ni 2.488719657663804 8.613747501070575 7.083865615914835 0.9896561733263599 2.0720096144781412 -1.8205269289489743
Ni 2.3329521241276194 2.3374706284429223 2.0669925882355287 -1.4839530700764185 -1.615512562184676 0.8723593617847041
Ni 0.9955864148057318 3.7967150889362222 11.025194226808912 1.3194621173474632 -2.8223202518585 -4.869170336351878
Ni 8.157629593242493 4.708458145891332 2.7510327791681135 -1.2162271832155118 0.5429804779986906 -0.3732002518463379
Ni 1.0182533150541033 3.05917617880381 4.387344965350599 2.2293171620847803 0.9888997547763099 -0.0057811254581513335
Ni 2.142579913510041 4.874071556114567 6.404928731605028 -0.11256006818761904 -2.599629036639729 1.6695370960302474
Ni 3.4141483902405727 4.1288437507789535 10.614354335473681 -0.05563970085149127 1.4608506797310001 0.49166871509859195
Ni 2.874289395235673 6.668587177336548 3.381390163688024 1.2923336365617872 0.7400398515819706 -0.8555746861271974
Ni 5.570525547380058 4.30184854151796 11.855597697954781 -0.4639784482721751 0.6123059038673907 0.8183394559248228
Ni 7.713635408927078 0.11330289030631877 5.8944809229191195 -2.67869045884927 1.6230147840989921 -0.19024157933049818
Ni 4.996554633994815 1.1795806543115865 6.807073756200195 -0.5122730216125049 -1.7006988663450322 0.05561373270956228
Ni 5.564937849656812 2.5022565759417486 13.53485519953401 1.3590267670139626 0.9148131600735406 0.26525891337765284
Ni 9.24710048659952 5.010342580290276 5.3462580462639195 1.4836576503231869 -0.06849264555475947 -0.1808853349265788
P 0.8408536745417557 2.3243520901941723 12.671481522620798 -0.6685361871150293 -1.397753237049883 0.10448140494454264
P 4.846421284851786 2.486571973513938 10.9062236817071 0.23699246233279186 -0.25991256146407493 0.6648219714882356
P 0.7404963920721197 4.902986264798912 1.1179746598793634 -0.24123272566638454 -0.3511137043599437 -1.0519177503697432
P 2.2509961250753654 5.749768849221056 9.782970925326095 -0.6906494740743009 0.7532604640373027 -0.41177142725131666
P 4.04384752351455 8.542223110746242 8.425423493129253 1.8779671733443144 1.277389099436813 0.8451964282166669
P 0.14964152017537552 4.093011825611921 7.253933378848895 0.11281949249659279 0.6186336458576314 0.45806773921469496
P 3.708594957453833 5.445085917293499 13.279277996499733 1.7947109963271348 1.4517134933164224 -0.31693525870602196
P 8.403209373045812 8.04585704410963 7.45810097362912 -0.12676747003625266 -2.165182793498716 -0.25104251266795474
