# total energy = -340897.6054928221 ev
CRYSTAL
PRIMVEC
9.01075860402395 0.00000000000000 0.00000000000000
0.00000000000000 9.01075860402395 0.00000000000000
0.00000000000000 0.00000000000000 13.18815603843495
PRIMCOORD
 96 1
Ni 6.4694092940117 1.8802749958304674 11.497974860854757 0.8198870029176009 0.6534396977932231 -0.8014876744748068
Ni 4.441141599031765 0.43812921404497646 6.079515571796792 1.1622988086281723 -0.5680595324545056 -0.6496205811574489
Ni 2.8130236716985406 1.6333171350420188 4.717653846932996 -0.3242940130639383 -0.39815023692345625 -0.08299752403915382
Ni 3.4891369320481034 4.626790258345969 5.0897837596555 0.6128273235884995 -0.03135434594156536 -0.6365987149764843
Ni 4.743876055517682 4.445863236535072 2.5947038038738546 0.8337578473624222 0.2558872423547658 0.12216828070134444
Ni 7.201299150058732 6.196410340886308 2.647970903302866 0.13243855227910092 -0.8354768869360578 -0.8775223940428821
Ni 5.252452281327177 4.563237377981795 11.557176445893843 -0.400229230939672 -0.9475317333524843 -0.7446734936992401
Ni 5.74206987105469 7.91528462877929 12.49750587296713 -0.749466029991877 -0.029363540763781688 -0.4068423653808155
Ni 1.7186670404453166 6.546811710335004 0.31772115017962066 0.9868161327744036 -0.5739404167153148 -0.3751136668189669
Ni 2.730998736216465 1.408498708119269 0.27158065972268153 -0.5085858025689048 0.6416879565739336 0.3972498365963739
Ni 0.6790660859408489 9.101136502796987 4.6667349511936065 0.07925168384347642 -0.6611180402740872 0.8147085440404549
Ni 8.559040255017445 2.4748138586276593 1.4546274845900358 0.9904714701388039 0.19204855063224988 0.0753081258146961
Ni 6.828352862607602 0.757345249075358 4.766674175836609 -0.9459024252791773 -0.39142140284005494 0.05268010400253508
Ni 0.9065814329108122 7.293722500958396 2.475086884613061 -0.657738582278893 0.7367017883476732 0.3031970831843229
Ni 7.584058153618835 3.950893256202665 3.7954856038061133 0.7161635591850053 -0.31937549271639837 -0.13276508238058424
Ni 7.592924740075427 3.896828704638076 12.70963715178939 -0.2301643836673649 -0.24007007281685108 -0.28085085427863893
Ni 7.856165041643411 8.922777547185406 6.904210834907876 0.14413270078757756 -0.5803761450383295 -0.15564224408907387
Ni 7.002711041403401 0.8026098937969508 0.528130473034548 -0.3237345410160425 -0.21244999710673734 -0.6777780174282714
Ni 1.9481620510784032 6.234706064911226 9.22187075612345 0.20471714723885392 1.4251951353109198 -0.05965910642352951
Ni 0.053960927840756956 4.920045396790895 1.3949636476350742 -0.16311438409640294 -0.13559715251274065 0.3657306829421701
Ni 6.267496215435148 2.003929636017277 6.902588898360939 0.07918663493349588 -0.009647807502409192 0.5247477570407478
Ni 3.451093509263821 4.324884791650709 0.43658296787022927 -0.05462385799246721 -0.05088778798880268 -0.3060587210028342
Ni 5.910877422556525 5.58099355042659 4.695049457923842 -1.0035092771593686 1.0459998422234114 -0.10604000768091415
Ni 5.5114935693903115 2.7512188785016214 9.225022719479664 -0.6058174679295696 0.5000255717037195 0.26652183925047646
P 0.27810084464137097 5.486605854153412 12.266910648709704 -0.7855751170096082 -1.113137516412173 0.7542359405766946
P 3.9726542382074124 6.142643144355325 12.438304287928046 -0.42085487760982354 0.046908234515764376 0.971122890408863
P 2.3539165105706443 8.404667938783355 1.2036958792615895 0.59633703924296 1.2138098320232706 0.7716047708724453
P 6.174847595570631 7.786620006814161 5.8093432936423675 -0.5534191568335115 0.19483151269402577 0.1166334669260443
P 4.819133911295589 1.0058980141349623 12.49362854354409 -1.0107983546216142 -0.3311879119702941 0.4335766960518661
P 4.014238889119175 6.044930478160924 8.320776875196442 0.14373006603252023 -0.45944199385440226 -0.6916691735880668
P 4.75288681411178 0.9669625262498641 3.726643408147203 0.4941176908597168 0.20760038232391992 0.23888016627380793
P 0.10600706948026806 5.681346368889062 3.6577615651504787 0.31145855186216675 -0.5493542427355184 0.08453170129549313
Ni 1.3626880114268738 0.9910663054890767 2.5697782434508603 0.6589398016758458 0.5714474750901319 -0.8093609065752965
Ni 1.885834633883026 6.482898399627066 4.767623909792427 0.25122608943367053 0.3306695775729789 -0.5869579120209052
Ni 6.0738730347651675 5.497157452467101 9.335829820063008 -1.0903416015635803 0.2579942613954396 -0.8147890195694033
Ni 8.587198875624003 2.2106544596830773 10.133449555750547 0.33555775890321565 0.9632604569416506 0.467217266924447
Ni 2.2621509450483486 5.414213419608427 7.02595068889344 -0.4056182631657273 -1.3407156274096006 -0.13635357106279097
Ni 0.444088929779113 -0.06931796371267848 8.874600625286202 0.5849737917113409 -0.03330529902034909 0.5704282897969982
Ni 1.4543544586046346 0.9742882729868658 11.257712894777583 -0.21532449044105498 0.36382472416870887 0.5454065709416801
Ni 4.011634779885481 6.88832847180992 1.4065956359041956 0.04601040529184334 0.2167645653216912 0.06843119618920472
Ni 5.710171785631582 7.722139018314794 8.109146594552014 -1.2442727764988184 0.10947602994565662 -0.2814884878626378
Ni 5.1640026749675085 2.936101623335328 4.905466890461503 -0.20367945000295887 -0.5269730468268408 -0.7987782459634437
Ni 0.8443882760184871 7.431361838483246 6.693780787308183 -1.4270347596228197 -0.165651805806276 1.040448316277563
Ni 5.139871863452514 4.366451421045285 7.278041978852947 -0.5457379861391698 0.3201661069384938 -0.3186188170560319
Ni 7.93716275064576 7.083726771922938 9.067912033708827 1.1729627160999219 0.5194248021659377 -0.3156851883490047
Ni 4.62452855793885 0.3846215273615026 10.327143921413423 0.25510768387626387 -0.81115579369219 0.9369357030041929
Ni 7.954102976802664 7.40159930284694 4.7051388043216535 0.7597761536686335 -0.527783201432962 0.02493353001688609
Ni 7.00932493821147 6.08608261266017 6.901230075964949 1.0106767414420854 -0.398111670376037 0.06031165240586388
Ni 2.229901440040071 5.193503898604586 2.5819247460357047 0.6126270346522352 0.5222435025616554 0.09811381085530199
Ni 2.348086549760263 5.0804278890072485 11.363100024066577 -0.2773621243990901 -0.24669400589127188 0.16690419015613833
Ni 1.0869497876888754 3.378800193063371 3.7717990226898075 -0.4466345576770889 -0.24253344675567906 0.05635472464064488
Ni 3.577910925717159 2.4183704667942285 2.5067786236643634 0.49892719643321815 -0.07216932307539828 -0.10670232385526139
Ni 1.1287506968068968 3.3143822798741636 8.280341997081285 -0.1662974098100749 0.3174286534026727 -0.7029637726652797
Ni 3.5298565501348333 2.527274495162499 7.0673217848265235 0.82434401024769 0.5927125551164953 0.5235740484476208
Ni 3.967689310222064 6.892806818831186 6.1983143141772405 1.4037765604258277 -0.0772883894695185 -0.6868555542495074
Ni 0.7695584312737987 7.2881718736644325 11.310808789793306 0.3396941496690924 0.6816267017504003 -0.935476344849847
P 0.09842451612333444 5.606953545936188 7.882798140819987 0.7521548896779497 0.29392954183946796 -0.36878335372556487
P 8.422211885766064 1.7313992423387774 8.004247848378819 0.5243497502713809 -0.3386564524331974 -0.6051710925948224
P 1.7491143937347744 3.0886537663334104 10.36913495753778 0.539093998460091 0.06447709663746315 0.43097371121138034
P 3.990360378844815 6.2304890298891875 3.5785272616049952 -0.5854131932416047 -0.3151234023082637 0.777564588000306
P 7.0272923908481015 3.8930712183043372 10.34812637387564 0.31044707987851694 -0.28058525932207806 0.6591837993658518
P 6.329823632630526 7.743927032595324 10.273824559584565 -0.29664616943968264 0.0030565274381366713 0.7586145292603644
P 2.4515390691791037 8.530692408480412 5.870154200166358 0.011661495498328303 0.1943484024100201 -1.3264951129348446
P 6.738065061494738 4.016230266768471 1.6954165800449652 0.798181235809393 0.4856952711239765 -0.299208273739904
Ni 5.3843878086619625 2.6843590497334127 0.48747483133383634 -0.7763762241191597 1.0941774303699028 0.17116527942533746
Ni 1.5153572942866793 1.2004673244573245 6.950645977170843 -0.6655907313334603 -0.024161684847868063 -0.1409555886111766
Ni 6.857827053968897 0.6659824644622183 9.146104693560835 0.4274826673389864 -0.46987295937973916 0.5383146970919052
Ni 2.75148019050085 1.410688322457635 9.222504212452614 -0.16038695786291088 0.8466670992249224 -0.33037287226816653
Ni 6.505127941078706 2.0474876430611477 2.644726129133131 -1.0025520554524217 -0.4956151013408497 0.43776168066749127
Ni 4.1335683651808175 6.820846900698718 10.408119103519287 0.5010969503910274 0.5803373213805941 -0.5374590339598293
Ni 8.111574993993123 7.021255182590056 0.2688666192341392 0.08265865264249636 -0.006438556536492137 0.3406084339532457
Ni 7.6434390527539415 3.850531426981599 7.969246457695906 0.2843858640150909 0.044166924325201355 0.3414173030077862
Ni 3.19436798615937 8.390439950963275 12.176110135432838 0.05154393351556285 -0.7995050968271392 0.41943819976795504
Ni 0.08255026270811168 5.08271662169015 10.005722052679204 -0.6864742596506888 -1.6165435745523518 0.7856321954997889
Ni 8.48020512807768 2.283073926503844 5.8502395225975405 0.6366557934666649 0.9184492141642312 -0.4775327899178421
Ni 3.695483303852952 2.7509665772609866 11.550754478243828 -0.37731838777976956 -0.48152237069320947 -0.4633153607668795
Ni 1.0183869255463822 3.355201016305428 12.66992763974106 1.0544657136025775 0.1828108340840658 -0.3182436931048003
Ni 3.1804463641314884 8.427230878302977 7.944360544610725 -0.2862781959417973 -0.9584334678666526 1.0612323429024497
Ni 5.603583522221995 7.783006692617928 3.516291754147278 -0.3731516579965896 1.016642472107217 0.218659725461875
Ni 3.116451956596203 8.31563263311507 3.4978683571257845 -0.0883392479670414 0.20474003005698935 0.16772771449869822
Ni 3.4158704539194913 4.0663841491032215 9.238593822998237 0.35465591318524725 0.24740517302568363 -0.1638468913870533
Ni 7.204155560533061 6.044876413609359 11.43584568034845 0.6193396707857205 0.08781165759834554 -0.1764956904993154
Ni 0.4355575435422208 -0.05275618941672604 0.3461374784819687 0.29150601999963993 0.5081692838567765 -0.17249248287719327
Ni 4.5360429085448075 0.3157721230957173 1.5275443452851971 0.7984537727444895 -0.291488279387827 -0.1399472019513203
Ni 5.7871146532665865 5.552717789958311 0.4214962547561306 0.9648118605891707 0.4302723142689815 0.7057048257455266
Ni 8.003175568106123 8.786922339862189 11.45879337926004 -0.5340878034947512 0.2829223920956869 -0.44778975432745466
Ni 0.07781060368761603 4.839894699096392 5.7543488317908675 -0.0898222602704711 -0.20523162498142716 0.16970797815352065
Ni 8.051293018998606 8.85730537524069 2.5791287076439557 -0.1656932005671727 -0.22040781850123334 0.1443296472897321
P 8.56605963596225 1.676208345949926 3.6758822006832106 -0.690729692492933 0.5576324235839106 -0.3482106717805358
P 1.8798695116937332 3.2993253022634255 1.5926804159343546 -1.139306204387741 -0.7979544645105676 -0.5786360224187712
P 4.8703420523858485 0.868334366982303 8.257644797258612 -0.5733518912016965 1.0030863306893372 -1.2979350419089646
P 8.674332911228932 1.711629637983326 12.40125835612013 -1.3736190630058407 -0.7726386114535984 0.5621786481936962
P 6.450766034480512 7.857381494053614 1.3987094199826406 -0.674645899557193 -0.38856362167628566 0.4644880409187419
P 1.9572358849826599 3.3198788426165637 5.839992487924333 -1.2368446023555473 0.10789660127367869 0.7498288126479344
P 6.803771513162902 4.051669580319059 5.860301836719571 0.47554378451227125 -0.7755994938541353 0.7599029090544848
P 2.3173148091614175 8.330923890449256 10.056061556640993 -0.003921703651909376 0.08279723510288967 0.15584767523166063
