# total energy = -340863.58684100426 ev
CRYSTAL
PRIMVEC
9.33643085297024 0.00000000000000 0.00000000000000

0.00000000000000 9.33643085297024 0.00000000000000

0.00000000000000 0.00000000000000 13.66481029421574

PRIMCOORD
 96 1
Ni 6.639882751524894 3.4209802282850186 8.062415870550335 -1.762233849635036 0.5686331455697884 2.705556430002179
Ni 2.291393492917401 4.7307694116787085 13.411546420782216 -0.6687498457877321 -0.3881640722450218 -0.5497267955835887
Ni 4.437344069128406 1.0150754134133264 7.791770485149342 -1.237826249542526 0.1571406830114713 -0.7459554457354571
Ni 4.6036725812046955 7.458034169613319 7.038292522191562 -1.1519902276133127 -0.4925940551263387 0.00972262660440261
Ni 5.000078753853313 7.2313736426598485 11.591079689053391 0.7672102413491754 -0.7263235304371427 -0.9619149986573498
Ni 4.563096453588442 1.9347698512795646 2.8346831935221126 0.8939723120687895 0.2931011324009017 1.4589753170851583
Ni 6.368071245935389 4.448743850955245 4.318762997052641 0.826669573057073 -1.565327970910485 -0.4202270142178376
Ni 2.0812864575110113 4.502036197120357 4.929238586276616 0.25633847095957146 -0.05778965731495853 0.5255782233618432
Ni 6.208913112600305 8.99397971270524 6.973480887887257 2.0276215752810693 -0.5788031441242548 0.399181506401448
Ni 9.043313412273644 5.168554644979705 0.651756617354502 -0.07246911370400422 -0.134538115120607 1.653768777452397
Ni 7.265666352446893 6.967404738818538 10.907920920841892 0.3904235577031599 1.907179276131896 -1.1191523551476854
Ni 4.791157445139805 0.24648643744429394 11.456590272788638 -0.35032926078543536 0.6890345641786971 0.5516677213600434
Ni 6.143726153783765 8.666569762579428 12.998458847486576 -0.41515397057030434 -0.3016325669106805 2.534687855881654
Ni 1.072149013992746 7.650840799020418 10.33112930612641 -0.27737240881173525 -0.2489385789510745 0.1512520854411782
Ni 5.6094489096880205 1.7874689848732987 0.12584294783736688 -1.0034311156232654 -0.5312284796690852 0.06801159215328287
Ni 0.03258881119294362 0.19627417975147915 7.633805547651662 -0.10970125858258527 -0.31443357533009075 1.3414851585857734
Ni 5.675298755080895 1.4467639574981666 9.691575403634872 0.8236307862307494 1.2741209702085026 -1.1543111624370057
Ni 8.222164999945731 5.646869323743691 4.537659348275399 1.711939472255858 -0.8840869346342775 -0.048873842882567436
Ni 8.890205286001454 2.858058814947058 4.481975942220154 0.5691393957822456 0.9094177000895821 0.046219178868539754
Ni 1.182963109408603 8.606900634278581 2.2017292138589073 -0.8559318123563 1.0111179427445618 0.22552662778503738
Ni 3.565881632013563 2.6373362578886486 6.124691038969219 -1.5998434881888512 0.1932402569475059 0.7825723256275425
Ni 4.580322168142512 5.079774525904013 5.660333390387824 -1.2765043828390144 0.11848234720932498 -0.31628451249590045
Ni 6.4112615741343735 0.26474102665628174 2.2269543821961353 -1.921417531218465 -1.5331693839000693 1.1441681604657328
Ni 4.273751131233331 6.375026886771585 1.207723323499331 0.13202306200823713 -0.2838587878670273 -0.41807320109962837
P 7.135843284222318 4.997305833949487 6.77285406416553 0.42202113000378283 0.8453319253532667 -1.3689602240775909
P 1.0368759789871764 7.219142918504926 13.590815225743027 0.37983292667150714 0.36704708776074846 -0.5878364579711166
P 8.496964163344071 0.16064822766724068 2.9789422508217576 0.4870471571661806 1.5877636742061816 -0.8352187481786648
P 5.292411734017261 2.623135546866025 5.065462711356623 1.4045167810259616 -0.41960840679723216 -1.7487126752201494
P 6.857309548562932 1.1107271454493406 12.07037282574977 -0.3979208945214695 0.9373853889471018 0.2997512907275677
P 2.363946895518852 0.3257947476229101 8.66879183307475 -0.17877420212084694 1.2767861757454915 -0.4477601866410998
P 4.4013801382545426 3.235456014786957 8.773682896884589 1.6109707084502645 -0.6594072282305676 -0.20140633769806604
P 6.865282860340263 4.320442620927046 1.984198782440625 -0.6044930926911912 0.7113070024236524 -0.08546629729462055
Ni 3.1034668946509756 7.7030874649524375 5.273782753936103 0.26764309733911323 -1.7162301292114117 -1.14610625802871
Ni 2.9604327770529535 6.886868688009103 12.326915532649993 -1.6698641403523626 -1.3283789602211187 0.08077557668717057
Ni 0.9145444627182571 2.9980305832910235 7.136692899411705 -1.041960124936399 -0.6478161809588585 -0.9807084772147692
Ni 7.164711527800195 3.727093780092222 13.522395060991489 -0.1356614300917728 0.1355588430756375 -0.20932970631020079
Ni 7.745549551560519 1.1339001663291246 0.7564908291293775 2.684745663904415 0.7035047327704143 -1.7277823528253857
Ni 6.695285131017497 6.801132245326163 2.143489493090976 -0.4375835032184141 -0.416652666603018 0.45831970732450095
Ni 8.05126163684966 7.970324119522163 4.424050859165216 0.49950415198261067 0.5268133813205249 -0.3550976287083562
Ni 4.921951502152253 0.1870516535528286 5.291246547471815 -3.1220293764942233 0.6231870695562687 -0.8405946677785976
Ni 0.9389368214412723 0.2076487532155568 13.562802199212928 -1.5827147989283645 0.5110275792411779 1.439329774940089
Ni 3.037719749995279 2.2362151877604615 12.63863747835022 -0.2881509874844779 0.3770985584594796 -0.2892902432952438
Ni 1.5181596426986936 5.525430370245161 8.896775332251696 -1.7207169613381719 0.10274333920751337 -0.47039592176274475
Ni 2.9197352758382156 9.114699761043518 12.959582883892164 2.393091548362685 -0.9962258561240778 -1.5763343493233175
Ni 7.541585887523548 2.764610480545061 10.7558313991539 0.749163925370426 1.2597253636084627 -0.4165140841426246
Ni 4.107665366354008 3.521328184939297 0.9756261929768433 -0.1272356679219228 -0.04004878839176974 -0.19588489365920456
Ni 3.4649641530894755 1.7093230603109326 10.021812424962297 -1.5245237924099293 -0.6898010100310765 1.119445203797756
Ni 4.317258898074504 5.215656937622134 7.99052535452522 0.2745791623373142 -0.6517296570806518 -0.9638379267116756
Ni 0.9470501796783924 3.278506296526153 11.295919637687831 0.03227325821140893 0.3322227809927117 0.7550337538876416
Ni 5.270312402662527 2.8451465313544957 11.518108948001768 0.43670958525389303 -0.34560254473372737 1.900770801502391
Ni 7.432190929566889 0.14209113810210827 10.109486177005651 1.4006007338010074 -1.0128981745734362 0.2864561162805583
Ni 2.2759790459099376 0.26642158417375195 6.1322610169423575 0.18183561465499007 0.9180059559792254 1.6144627807639227
Ni 8.63101663465428 8.081913138682186 1.0443180478603737 -1.703801673640072 -0.5724617752872593 0.0704058034170723
Ni 3.628435717386066 6.3397631881966685 9.697368658854819 -0.472263828209419 0.35877224934646595 1.9401932691640713
Ni 8.126139810683611 5.6149387309117555 8.691174058278257 0.2292074190707343 -1.066049304675119 0.8113918209623961
Ni 2.234908087469096 7.701528281033451 8.08750379335697 -0.3971014839439677 -0.8756326332193372 -1.6424384400412424
P 7.203607097898979 1.067770228016671 8.169315200593552 -0.025164672191085695 0.3241505455075385 0.40534829733379224
P 1.8006520249547873 0.8898066560610952 11.339632806003364 0.314609953006955 -0.05565846990456866 0.5500211868955559
P 2.3396815122527124 5.554083875918029 6.866895261913968 1.2356294990015235 0.05887260596649216 -0.3412062154382446
P 9.214328812537545 3.5160997837738335 9.135021436001994 -1.1632177208980161 3.8522872089887654 -0.7360381866217452
P 8.473819151756244 7.829316007375757 9.147073834331453 0.2599521564527587 -0.757989751192172 -0.20711624359864975
P 0.7094576260737772 8.055070900555926 6.040406411252761 0.17137302456076936 -0.9454799930297781 -0.7776571477141123
P 3.1625198185287493 6.107612840019461 3.4420152065453546 -0.0745805036200522 0.7100669593689642 0.4457084463183937
P 7.241307604874227 5.04781592378012 11.344224462598318 1.694481424680411 -2.6284734716752474 2.773604531820352
Ni 6.113933603571279 7.099655279012793 8.761315860842139 0.15952795229672526 0.1996358760612046 0.13717246741966055
Ni 1.8001478576995462 6.19399349641743 1.6970055073509411 0.2569118269645382 1.0256955834484207 -0.8626431629382048
Ni 9.046469125834227 1.1056294543130143 11.814772164702395 0.36869670754902956 2.1618560431183287 -0.26798942493493844
Ni 8.275438673249536 8.481222941263766 12.363482596944015 1.098757079320785 -1.3921621161153506 0.24995930690610504
Ni 0.12338653293266456 5.217365504431562 6.474113491644696 0.128037852108244 -0.009581215930531885 0.3266231754177472
Ni 2.4438293961826036 0.8562067094284737 3.6073325831819663 -0.3008311540553077 1.4161849613925093 0.6611046705376485
Ni 6.389853138647934 6.749539129539827 5.410745390680731 -0.929959785906992 -2.138532023680407 2.7816909083729127
Ni 9.191015745197973 5.922181990827926 12.154110338629986 0.5132035038465742 0.1732504440891403 -1.041159997632607
Ni 0.5423336501058844 1.7363613634808983 9.53538625524732 1.2307585440624675 -3.897721944282797 -0.1136407028463075
Ni 4.126170171907487 8.557809681907145 9.492793458610102 0.4450628423145948 0.2320950250311745 -0.25168348868606333
Ni 2.332072321270833 3.3536178811264197 8.808308917245933 -0.00851240834638534 0.42202652932042156 0.4457357000119033
Ni 3.3323401556691166 8.37165992755536 2.6717298011267423 2.592634350489451 -1.8457728479999567 0.32071195213963477
Ni 9.085131285166694 0.6025209503079504 5.331216740738713 1.661116733177036 0.048823449260606236 -0.5123339567574273
Ni 1.1349178372702593 6.967068627315043 4.050208972117832 -0.5717817185010992 -0.47327967106844304 0.4496278359774579
Ni 6.959113988399018 0.9704566113244917 4.743547250669874 -0.5345979103619503 1.0335245925745362 -1.166736789794868
Ni 5.786420952708288 4.614810942973262 10.02130732406399 -1.3282010398823578 0.964512841291513 -1.4603315740027365
Ni 7.774595187320796 2.325826249164235 6.6370939596889595 1.8614061836618394 -0.5290630965866501 -2.483786441046097
Ni 3.2623075893438704 1.199703329568737 1.0739266703890036 -0.5266956247957381 -1.015055073015439 0.7972800641513624
Ni 0.9580111492645594 4.535843412513466 2.880897591609479 -0.9945986049332999 -1.3548170998079891 0.39614811889176293
Ni 3.4690628461459725 4.131631983839265 11.017990902734734 -0.41508146546115615 0.7198214676525668 -0.16421044537405913
Ni 7.107955365862965 6.550710502361793 13.360344501440224 -0.5332048866691655 -1.237230010719424 -0.04850823201303259
Ni 4.4705630893904 4.442096312330586 3.0730245288650675 -0.35305231614355326 0.08356985160285607 0.32530368527537523
Ni 0.4271314322832999 2.0703348243554967 2.2550355646699973 -1.305717514067861 -1.2237335188948861 0.4087514094780702
Ni 8.144803335558183 7.358190380214283 6.961851429866364 0.27608222924540193 0.08050355397270652 0.2408540021707271
P 1.503436091559524 2.028507615031793 5.217442996805978 -0.5063306879861409 1.4774692621242878 -0.3888428434796013
P 2.3633306910957796 2.7669912703614767 2.298913054165015 1.8929340790667917 1.056694088712464 0.6061295998533496
P 5.646673258699986 7.935788662538149 4.040137764372859 -0.8746057346167194 2.025559550545718 -2.426820565184014
P 1.7025728209490938 5.342819123110714 11.019931013024348 -0.11396774716842308 1.2404117508815153 0.8617728445181093
P 8.798680256313894 6.413296916016644 2.6132305275866683 0.9819770595145474 -0.38026512911291926 -0.6473929773785109
P 0.511711091208381 2.3899395184557246 0.13931448362602133 -0.3660515566166986 0.617121322978163 -1.4395303209866692
P 4.468938550456846 4.77258728457176 12.94487987290043 0.08956206463054898 0.48160207489120926 -0.3288903741853691
P 4.5296720318520896 8.575418190117974 0.8152683283028989 -0.05152027936647901 0.26276340064930875 -0.06754288004698045
