# total energy = -340891.6667072069 ev
CRYSTAL
PRIMVEC
9.05327263661211 0.00000000000000 0.00000000000000
0.00000000000000 9.05327263661211 0.00000000000000
0.00000000000000 0.00000000000000 13.25037962250711
PRIMCOORD
 96 1
Ni 6.582706999820211 1.8970951858572944 11.394411890496347 0.038186024151418106 0.08322866621335342 0.756050368077614
Ni 4.579770002932233 0.348966543820684 5.997174819274168 0.8631548124673005 -0.16251865949393304 -0.07099715714416806
Ni 2.852061549123873 1.6750636731100947 4.710430455718072 -0.4477373038229644 -0.2847892701010966 0.6717888897243721
Ni 3.3370182073635966 4.267884758726687 4.880009117148054 0.38076392312620877 0.5550996298597278 -0.8186482454144934
Ni 5.122051983851479 4.287267815558155 3.022610721386333 -0.2701023575128832 0.4285820710507522 -0.8794381230083563
Ni 7.281157934659505 6.019792610438137 2.4579852634656567 -0.33368342469863826 0.5159340154038599 0.5273165462091887
Ni 5.133522480350997 4.767797423451972 11.667383452694093 0.11782311635877127 -0.8144156953903845 -1.539047439947401
Ni 5.623639504024601 7.7248497759735715 12.300181864632668 -0.09120217133713325 0.35815929835281546 1.2609669493250477
Ni 1.7919323702784373 6.348408302576683 0.6222576865444234 0.37994065589396503 1.1099742881928434 -2.1909323916589947
Ni 2.7724470690790666 1.6095089255544386 0.3659187969346139 0.186262282967776 -1.7483907731043566 -0.397943777339605
Ni 0.4892424775316516 -0.10160306875674902 4.798943397490879 0.7221408598143627 1.3080888425135149 -0.46272374992946763
Ni 8.541482132521406 2.5623296631932457 1.2673975198153928 0.47492003488534335 -0.979750227066558 0.07466535002437465
Ni 7.0696372715065765 0.9655224792243046 5.044512513907454 -0.8613750948590585 -0.8048118537520333 -1.8299279105479
Ni 0.6373178056659307 7.28289616301618 2.6197590985087142 0.16295163326629356 0.14391261435697153 -0.2967976074158824
Ni 7.610506941886024 3.8102599307411444 3.6515795989766078 0.34762677425260774 0.3222944661354062 1.6952671538064998
Ni 7.49389173635303 3.9174868924935535 12.533904773733049 0.9319865865290335 0.1042471774465495 1.0038388925846453
Ni 8.098125262296907 8.637283864137752 6.702095222778463 -0.33455991376632055 0.13294043161618396 0.6653117666404607
Ni 6.948948093262625 0.668237447887562 0.4369869875590997 -0.7348405667692183 0.16021366550984023 -1.0309624882743147
Ni 2.0385163585636756 6.476303885882684 9.219124120080398 -0.7248199493084226 -0.6266878836206756 -0.6195193908966944
Ni 9.068572721865124 5.000339785793442 1.2306901203623941 -0.35776489112787413 -0.981821764883606 -0.386402866579541
Ni 6.609042970078381 2.0227455575359232 7.133752548704361 -1.3924115131219954 -0.341001041405974 0.6459989252444616
Ni 3.5057440505060864 4.209563576051154 0.5371161835217512 -0.7841245006060109 0.7537777699933534 0.009407666467145089
Ni 6.052538297761546 5.714570574933179 4.748312969966364 0.3410452643803481 -0.3096400105961893 0.6373885578676313
Ni 5.373606218844086 2.796818479163285 9.564786219368859 -0.368701592645036 0.5316604250001811 -0.3570113007913013
P 0.2693584010667615 5.668842494570851 12.22771584870469 -0.07453525220441357 -1.0865451106356256 2.491904699277857
P 3.897759811299826 6.254326692771631 12.759413648520866 0.02543515224365297 -0.1698365333115849 0.42442228324610776
P 2.1952466153905674 8.568270766414127 1.4544680094116909 0.2533768172280862 -0.3852103889333366 -0.008446330995140292
P 6.280291478849469 7.780346337569509 5.672964449627071 0.4425806993226894 0.010503984855117394 -0.08707786475611456
P 4.853540969108596 1.1523367612034467 12.653768293507579 -0.32926986901197486 -1.9704014173163353 0.13415013565356898
P 3.992257871648665 6.249881535880341 8.046253631086454 -0.2780452665090437 1.6815783434654974 0.1144580565412803
P 4.632460049993954 0.9946106443805433 3.7094173368904406 0.9489178150667334 0.5572606420667886 0.9166877513884343
P 0.2064318185733075 5.405564271443376 3.7466643113958242 0.020848818424551187 0.08264245469258025 -0.5708682055478942
Ni 1.4848272540537482 1.1660343627849559 2.774775570815196 -0.8463027739069683 -0.10228645417575287 -1.0189608358277484
Ni 1.597232687785419 6.573427395311918 5.1286128905706585 -0.04455901755729745 0.3865802726976697 -1.373333670554938
Ni 5.934999658414069 5.6971701848210445 9.156436543985984 0.25791018632206547 -0.15257054714228563 0.660315856087766
Ni 8.761277486913924 2.0971272459653214 10.055156734677812 0.7179527898749443 1.112465172935497 0.6711715678553473
Ni 2.315446916909204 5.202644217346915 6.878205820455015 1.4657838553665594 0.09531465084361004 1.9375239498620245
Ni 0.7918979102287057 -0.005891869867314062 9.326239726578706 -0.17502759059422116 -0.2095351374527875 -0.7541935173745333
Ni 1.695478803028339 0.8487615160009853 11.458530789003209 -1.0761619676290886 2.0184293672588396 0.38776889368913214
Ni 3.8636561330727646 7.035732765278716 1.6305523525974392 0.4871173482824837 -0.6883681342392919 0.010544094064433452
Ni 5.855638670004611 8.00827153083856 7.905229897051208 -2.015709911445148 0.5690314094494716 -0.5890747012535918
Ni 5.261236998203179 2.8281699624922783 5.008497689815318 0.4042725477711102 -0.44997724889707663 -0.09784795878842503
Ni 1.2238032958263372 7.803912006384226 7.242299477615121 -1.1012168537151872 -0.8956574130806964 -0.07619232819186232
Ni 5.194758816833039 4.823864341227442 6.998148103701959 -0.7521967986594786 -0.8525994055489574 -0.45603065418000815
Ni 7.824173230666723 7.320793162500778 8.871725603089796 2.21234942388219 0.7606433867649351 2.131362759625478
Ni 4.563048608271924 0.3569334237887792 10.730687499045256 -0.3075553601530187 -0.19030868512300775 -1.6696767069319052
Ni 8.248319056240884 7.097503244849528 4.617518528744699 -1.4070909695110412 -0.1527726358507627 0.53153829760002
Ni 7.339696395879622 6.220902009996395 7.054595258930451 -0.7155961167173095 -0.6406374038222322 -2.8685417447198858
Ni 2.194250755394555 5.069941346241983 2.5233091525676925 0.2670764262023658 -0.4002310307118849 1.2002606325839265
Ni 2.492673783108559 5.197040241551175 11.525630930207221 -1.2664053467317995 -0.027564025661197693 -0.19774611523765945
Ni 0.9522594347319643 3.363308911258311 3.9665538198243286 0.7718724227115352 -0.4876822196470182 -0.11691243161904381
Ni 3.5853494772782013 2.510689795763683 2.397206117254512 0.8274715001330781 0.6550479228206073 0.9607374334094809
Ni 0.8432200077868136 3.3362486791848602 8.016069114607333 1.054872719233009 -0.2343552818202609 1.3321299426231186
Ni 3.7634364043832025 2.738714575032336 7.016433903883275 0.3711438835379415 0.6292947251159033 -0.0827920928965671
Ni 3.95625300615649 6.739871813736271 5.695026369847811 0.5055806971939939 1.300287087080909 1.298243831398635
Ni 0.34358889984221963 7.188714967211528 10.859123562730911 1.4550474427856617 -0.04716868726600264 -0.2702142005003992
P 0.30762749005896073 5.907541082342213 7.807084273135159 0.2736995879458383 -0.2955925313641877 1.614581308619658
P 8.578998894552981 1.347597746603308 8.009019331162838 0.01181910412211513 0.5714060803292353 -0.7136515913964291
P 2.030884449685148 3.435092310425387 10.273827672602104 0.2749609711567652 -1.2351507595928923 -0.3828614290851858
P 3.892843884228604 6.122583468571947 3.6989499430050867 0.025255175022362953 -1.0136062563840544 -1.2468665053679235
P 7.021048356973887 4.004887187052635 10.464222523930546 -0.3175638934289563 0.1636661428348149 -1.5059149190594905
P 6.14316155739863 7.760899907829203 10.17006358765401 0.17001779608445558 0.0843003020109774 0.043028439845383966
P 2.536627422023448 8.654439815887228 5.77886148562117 -0.6686382599105323 -0.08899050839779511 0.4752635342676912
P 6.902314685631194 3.9370148016880773 1.6508778551160421 -0.6668099484525419 0.7751382379470005 -1.1552025639030232
Ni 5.409982268516593 2.825598833048029 0.34748180709935705 0.7438378851718221 1.4192191202331428 1.2873544381796411
Ni 1.444322912034137 1.1465245601358136 6.95750977324652 0.45911829196639636 0.24968754130195708 0.17135682661085327
Ni 6.885022934791351 0.7865682485955038 9.250421283773244 -1.324550330503648 -0.5540858438832328 -0.6532103553912363
Ni 2.8710462619569364 1.6253340462183368 9.260995506276352 -0.7525225574300137 0.9998909636804909 0.6431200610347698
Ni 6.36778230613546 1.985762938593118 2.7056484018556644 -0.39274397830622043 -0.6423775264417905 -0.5351131594354719
Ni 4.07737674148961 6.768389622712976 10.402753518340345 0.8490345710158346 0.8234053004835045 0.487020160582987
Ni 8.163535157489507 7.236407607747807 0.21499530921174076 -0.06619922153489244 -0.41826320562324737 0.02794840558380993
Ni 7.680733178150244 4.1392649136054045 8.139456168113208 -0.3183897317643613 -0.2742590599937341 1.2492476040055904
Ni 3.157690981899926 8.450062184887512 12.616905177764293 0.7909122129518056 -0.9290349600998774 1.0941535191105027
Ni 9.28530807008808 4.602946381021238 10.325040225560652 -0.953811395713609 0.41619218202683167 -0.6918270393221698
Ni 8.608992386978322 2.5717903331553593 5.960127016767987 0.25658555397337096 -1.5029010719338312 -0.5420404826829245
Ni 3.678724931813354 2.860598785271502 11.761911388842814 -0.40467518252616763 -0.4029047208893061 -1.4842171223710825
Ni 0.9946559107439984 3.195207743931502 12.460776058244086 0.3238605250709455 0.40955179389217855 -0.05066101668997727
Ni 3.210118484053607 8.508039343200789 8.185925711508931 1.4169187542347403 -0.3183105417869937 0.13896092677865102
Ni 5.529666533491842 7.741453478088897 3.4696513682688073 0.009354958852338727 0.6979868882759787 0.5730276750930584
Ni 2.840509573170135 8.276447574491874 3.692509444812697 0.8135469196321861 -0.28708449389317653 -0.8400812184772887
Ni 3.7004075199083406 4.459587807958978 9.122051308978232 -0.7385041316637345 -1.0141891254707178 0.6905309462185656
Ni 7.206079144232898 6.1174231031380675 11.395140678947973 0.397679982155257 -0.21334859766160677 -0.5940451578849898
Ni 0.3668114496219481 0.15623504281069295 0.40486507072410116 0.8021391920158767 -0.26878158181893064 0.7700492534598673
Ni 4.616191318968196 0.22899800608293724 1.7455787087731596 0.1391290769253991 0.6585255969565627 -1.6707809957396775
Ni 5.76725156872221 5.435277112415295 0.4994292199635843 0.41544116279341997 1.2689039447839372 0.9040584926601978
Ni 7.9202918268272535 8.829131765733099 11.060979857286181 -0.29986467637698033 0.24025596357541207 1.1251024020835334
Ni 9.293003351875445 4.736328247577996 6.0522304864900525 -1.6554150548065683 0.7793826150456513 -1.7411474612783822
Ni 7.781115865748245 8.841290310957136 2.503221751120863 0.9162519494025961 -0.04009352558677611 1.114112735841249
P 8.490457887634832 1.7145902616790765 3.406129080432285 -0.1079901894287495 -0.6902666368135854 1.5711836583603134
P 1.6865794359730688 3.006981151412561 1.4313459509588327 -0.674449981496303 2.333662041451458 0.7914228340396369
P 4.673951198736886 1.2405065839412643 8.1844147202968 1.540824843562798 -1.6482506758476454 0.12291724305222702
P 8.635590902144532 1.5092439305014218 12.250758238357866 -0.647417402858543 0.6637619056548375 0.13515209455552207
P 6.33137909664488 7.743879755170091 1.3299402435467478 -0.6279793487385895 -0.7933480760868079 -0.15068721407664373
P 1.9014407567489826 3.1565683760862395 6.077697342569883 -1.2169519771966784 -0.035335956297132695 -0.44590153616580624
P 6.874394392652097 3.938879775862427 6.080281146595899 0.7575387796976825 0.4139856612938161 -1.289874119277701
P 2.430722238083927 8.218542842360128 10.551131225782504 0.10113357151823228 -0.4724036962213929 -1.3684683720428368
