# total energy = -340866.87731746107 ev
CRYSTAL
PRIMVEC
9.30699128345654 0.00000000000000 0.00000000000000

0.00000000000000 9.30699128345654 0.00000000000000

0.00000000000000 0.00000000000000 13.62172250843012

PRIMCOORD
 96 1
Ni 3.201009416904273 5.3272381523052355 9.982979662424663 1.1270942357025815 1.1870389916873298 2.4627226783972618
Ni 8.601623889928693 1.505089431941092 2.8851487405258265 2.859011179521631 -1.7403614750419767 1.638591041270694
Ni 4.720841123327758 0.9166427974043914 10.91965017476508 -0.44072667683308614 -0.7163998435655274 -0.2444679447742306
Ni 6.266127451411182 2.190493511474779 9.710053999077894 3.7427173337777218 -1.23592260476191 -1.450666797219463
Ni 8.403450120639805 8.614141793450674 12.528347827804872 1.3185257215761228 0.5484731256821458 0.1291925345379775
Ni 3.280872710675369 0.6387844285805587 6.873289515087179 1.7010732189653157 -0.003195881229478367 -1.1053105641685868
Ni 3.1855505040789853 1.5233683631806247 12.826268347433155 1.3019097102859964 0.622842027512024 2.3847966553437443
Ni 2.433620049545206 5.623684444485277 12.454627148401443 -1.3483217218916328 -0.05712682691997903 -0.21110582437401704
Ni 2.2090609594497628 8.353685637270262 13.093949521088744 0.2695930219766325 0.27126526747273283 -0.6855378638793485
Ni 2.767703815214388 2.987786242414609 7.013716194426 -0.5177918945482051 -0.575880314050505 -0.010577004184897912
Ni 0.2156653290503831 3.6095398073112466 3.611772554563978 1.1378010805971244 0.06364663031636782 0.7511824984623514
Ni 5.469644428728908 4.583870129920321 6.7175937855489805 1.1822533973732283 0.36440605059347564 -0.7817631994626859
Ni 7.556541818193891 4.350692765727216 10.867383041390287 -0.45503126638121627 -0.7150518141780654 0.03336417728274254
Ni 1.4726545666815338 8.831152913467063 7.6115191474836275 -1.3890886193963494 -0.22694099163406078 -0.253132562427764
Ni 3.926024052117925 7.013739461904666 11.587713467799022 0.10635471070785554 0.9474836537233683 -0.869541946940567
Ni 8.669648690554837 1.1192122587627447 8.023562927169078 -1.1145855617126095 -0.3994339887318863 -0.6226260548464762
Ni 3.558760861871893 0.709588296858497 4.078207323076796 1.2609309538807896 1.4875634131354962 -0.9244900210416723
Ni 6.632915985092442 8.4711305625817 6.863386876167188 0.15625082420735023 -0.6969751591820125 -0.04516168413830287
Ni 6.597037532990405 1.8748189749256563 7.1118602808349225 0.23590360014398726 0.7615296460246305 -0.8829980724454728
Ni 6.439107194801182 8.843270616356 0.08101549931460596 -1.6344986163688753 0.9563704146900368 -0.09341023473204557
Ni 1.4465484556189625 6.064900988921396 4.50550712317357 -0.610774811934845 -0.14340739258577884 -0.7908445929386637
Ni 7.019630787502743 7.237963500307327 1.6712220217094393 1.218804457024385 -0.7209290988944487 -0.2188589859568747
Ni 5.140847034212503 0.5430220012878266 8.154848279489839 -1.0404555153664146 -0.2397502275835871 1.8908926231567305
Ni 2.3305078910916492 3.368265360542585 0.6654796722029378 -1.4762772986987154 -0.13734627399336347 0.3818849241045294
P 8.297797153515987 9.08796072899274 1.2801459630980965 -0.10625083814013958 0.31634596186145514 0.21140047279630048
P 4.478412609617292 8.848826890261295 12.568777398733861 -0.3924130773293629 0.010758009847452442 0.6209532951297435
P 1.0138198873999795 5.317074917624192 0.5782377955974726 -0.7062761248679643 -0.4113680211653109 0.23068503205752527
P 0.46945116444699986 7.38572129682404 11.339620719082252 0.3968875681609488 1.9625870634782394 0.12774860300259935
P 1.4849956373656583 1.3217882350151242 6.048467634089602 -0.3401916581308012 -1.1282108658055279 0.1367099259609452
P 4.6179895606352535 0.6855818430706908 1.7704289665437962 -1.3737406761853697 0.5115978499223512 0.42290687504284585
P 6.26136227178051 4.118474021655126 4.73443398436408 -0.9054695140751114 -0.10552373016612794 -1.7999673596300678
P 5.611976249220851 6.4463945691191835 7.52591995487194 0.44699785455377855 1.2119936047501385 -1.6058272165761118
Ni 2.3665724830230084 8.36195024569221 2.4148999669101774 0.15193137089638994 0.9300551738342756 0.38832065242754416
Ni 4.983503036485648 6.679097276747514 13.667355126716988 1.0085301274127276 -0.8901912477598024 -1.029351692143769
Ni 8.018159287923826 6.482366091135882 10.105778899926582 -0.6220632403644706 1.3436479705650473 -0.8478485211275334
Ni 4.346653531430904 7.556197459509643 6.1400735589935485 -1.2836713329010987 0.76460391407458 0.7238002497946567
Ni 2.4720951522663 4.01162975962364 2.9932513078035368 1.474626393358854 0.5268750877963958 0.07306920918184835
Ni 4.5883654067984745 2.911022176801744 5.507711885223785 -0.2682154249028155 -2.0299340254643297 -0.609255289966525
Ni 0.13252318218576023 3.7815143956229007 12.588869331911 -1.6610385716409328 1.4330483128067513 1.5433982607169292
Ni 5.565739115616982 2.3675776381013534 0.5874721925301938 -0.13922549329394732 0.26291355307392783 -1.376978723506693
Ni 9.287902826660199 4.009098257944845 9.234915332145924 -1.2110664649501788 -0.8219058331198424 -0.630887780634636
Ni 1.90971088593228 3.455462563589013 11.308004869071716 2.685301279297569 -0.09901472540301656 -1.7572289402212768
Ni 4.620995718878822 7.82470416330828 1.8539713140414638 0.8964336291250884 1.2635586213116239 1.5367810125107275
Ni 0.17705806705046948 8.25591569191828 3.2984592017498193 -0.3420811618440302 0.21547721396883532 0.7225594354090201
Ni 3.2136017763579834 7.403348738660942 8.331535928279955 1.1376830669620215 0.6931082200274385 0.3260328501319159
Ni 8.253030524563771 4.567275764136163 5.352029185473639 -0.010967297644781111 0.6928876193762002 -0.3856760157158455
Ni 6.722523698928604 1.7083820465363655 4.626591082148276 -0.37253819278230677 -0.3195199887140627 -0.3393370234399898
Ni 2.780370630599828 6.559102235774348 0.9121400749330645 -0.025724915569929892 -0.6546519729337693 1.1127456802903932
Ni 1.3313185942764691 1.6967669211866012 8.859200462949476 1.8141912165389336 0.8147131720261453 0.876178478420478
Ni 9.025957551845202 3.0111654049775964 1.1556537838484835 0.4916969972333661 1.465585109092192 0.15230932306109898
Ni 7.763836439119612 5.695143524962433 7.447962732953114 -1.11093150989979 -0.26337583742232706 0.8211771824839341
Ni 5.737322810287059 5.568391608184837 2.6302181451788726 -0.8942479343276792 -1.8514912385409723 -0.7716649346864195
Ni 6.345311334805249 8.327328237438104 11.155482823623478 0.7259849161508013 0.7069829211270018 1.8285328299725863
Ni 0.6112720311074512 4.868664068784734 7.094192818934715 1.8104335492687145 -0.22555182459601802 -1.1072378630982866
Ni 0.47521870705857755 7.526135877073955 1.1272386082031587 0.04478218931169707 -0.09297751807000117 -1.5878035263051817
Ni 8.677550326309603 8.821994833864364 5.634584792890441 0.7904666407739548 -0.2535925327833181 0.007858576812470337
P 8.248442177770956 3.2790392333565355 7.249794547859106 0.08389072527738456 1.937819369615256 1.8112447323160998
P 5.236066863902758 0.28071561520394284 5.569813716480866 -0.10117265228628383 0.6781634257921483 0.09258979571327924
P 7.232109402675114 4.9458004140562455 0.9124648889352334 0.7051643798610243 0.5646247957413437 1.6727070091177967
P 7.152664923519995 -0.04787144130532662 9.155418733838596 0.09242215978716341 -0.05636655171518679 -0.03574039082440296
P 3.565843482377638 6.917104969511554 3.5022264729098667 -0.1386966173736708 -0.7623755389646935 1.197776432709492
P 5.936483120671357 2.7142351492413144 11.811137104935593 1.0555915996769045 -0.25005855148813066 1.500553654747577
P 4.518823566563348 4.128106757822599 1.2780891179840757 -1.2048677923386346 0.5555711701795076 1.1306490429333753
P 2.9940312336884007 0.14056163071508027 9.189200320763307 0.5097276294828318 -0.10719751832412505 -0.8110629768680677
Ni 5.097718435758331 2.8658646542079484 3.089597283461197 -0.9643583179915196 -0.021886258550130048 -0.6112885183464698
Ni 3.9729126751244257 4.100688360963299 12.855473686653955 1.264104723623081 -1.1133681443657406 -1.0892409123002338
Ni 1.1865483420203924 6.308697630377386 8.919449272205645 -0.8005376518567117 0.4703175031163255 -0.08564138941990412
Ni 7.153483938769017 8.694991628317183 3.6486189337784944 -0.2468834961942587 -0.630673864851617 1.3453035038905994
Ni 8.828453885941878 2.0525918189207264 5.721763381953936 0.19026626192084653 -0.839026037739897 -1.8820089475138555
Ni 0.5460625953998202 5.380334538619664 11.04046050819068 1.3010404203071657 -0.8715324950080344 -1.4674645855030921
Ni 7.904381317250054 1.8876812371318856 12.939669384952548 -1.7149052397524014 -1.2151221230767912 2.7935226109005176
Ni 8.52565091859045 2.0990802412941822 10.98052534454692 1.0598220928184843 0.21581428559327992 -3.545815054597597
Ni 6.644168137775026 1.0103949145404336 2.1772822370885687 -1.2451631495235718 0.07467537732670365 -1.1210714265472694
Ni 6.197255714561619 4.80562781558445 12.688090237232556 0.14306723563754073 0.0777200776902984 -0.39917919240860283
Ni 3.589110961043031 5.2516374606256395 5.3764535231782755 -0.02278408777405108 0.45844877670319756 -1.1832615269227686
Ni 8.797684972154762 7.813116958932915 7.929395718213644 -1.092498757115899 0.03160811382358428 0.7233667618016639
Ni 4.456420188782763 3.164405019467876 10.333820666228661 -3.5208429580332914 2.0870881060778186 0.38436938108928
Ni 2.2654240997688113 0.6206274189292325 11.122163794174634 -1.45005333200518 -1.0685401894177726 -1.7477431122180287
Ni 8.558048555884143 6.081616345594615 12.7286007789873 -1.245943479333022 0.13282447486360996 1.7342443064006454
Ni 2.2060827221805925 8.564488993978724 5.056410284834938 -1.4849869106575715 -1.2456385464980935 0.39914422540560934
Ni 3.176476187399482 5.104354320673701 7.756549064801611 0.8881451638640511 1.36255612032346 -1.7099484099677582
Ni 7.38729417838182 3.424647114844566 2.809521058570979 -1.4820638234735055 1.6972047371488448 -0.13463658837168424
Ni 9.22683965565074 9.227221242300853 10.125680039778667 -0.02752648755504292 -0.9757603891808743 0.012777097160010253
Ni 9.062413037418139 5.873418946496676 2.5678994610206303 -0.4582001510275012 -1.3429404029750613 0.12891331273466183
Ni 5.58393428393332 7.629173579595783 9.168468066573295 -0.31973596137961063 0.18053849311012132 -0.09321868754652977
Ni 0.8655567212466541 0.8901560303908543 0.7487967905071243 0.11213095107000043 0.030790245907979227 -0.1157981155089425
Ni 5.72765284615372 6.89044974595248 4.505412191860615 0.9779134309681351 -0.0767379162826872 -0.47673163417278547
Ni 5.713487605142229 4.94607962380023 9.114239950096582 0.24964383254821523 0.370941023498516 0.47049876588919615
P 1.4599412163387628 2.1281366686515253 2.6247428420993324 0.5791684978834735 -0.8188418494825382 -1.1194989398538269
P 0.941299809895682 1.8890679788603428 12.307580406032743 0.10468220810143906 -2.296811448282012 1.2054403770126532
P 4.985978696215646 3.1283125065621182 8.142057681117898 -1.0378005942420707 -1.853405167734234 -0.23544825777412356
P 2.094287140689111 3.8795263227530032 9.087296209802059 -1.26745795636603 -1.9488519732803338 -0.27640361714056266
P 5.729877217114132 6.223789947231634 10.841678992359054 1.160238326554718 -1.152328841899654 1.1991555724452057
P 8.222941021153684 6.729178197826906 4.475703344401494 -0.08468930991927995 0.8682417400719046 0.02770029412874584
P 1.891608787530604 3.88295129561255 5.1121507874249 -0.40799679070023276 0.47718209144664264 0.47896797970247185
P 2.0182583274020724 6.72960631943435 6.464611143515893 0.14164104471397543 0.7940075640476777 1.336039304979854
