# total energy = -340859.3101952882 ev
CRYSTAL
PRIMVEC
9.36668779353640 0.00000000000000 0.00000000000000
0.00000000000000 9.36668779353640 0.00000000000000
0.00000000000000 0.00000000000000 13.70909438514729
PRIMCOORD
 96 1
Ni 6.3398052701965835 1.655852461964202 7.654473313683774 1.1777053729912297 -0.07110771458010334 -1.3026764132486919
Ni 7.681218017778934 4.81529250662566 7.7546594079652245 -0.562747890433605 1.6133307240420085 0.6465149456489316
Ni 0.3010003905154515 7.504056481948778 1.798674783111746 -1.7659084702731458 1.3181629389200653 1.1078978652797888
Ni 4.377362378350142 3.099455775048667 0.6181311543444862 -0.35492202236244036 1.5255522336744436 -0.5057658166216064
Ni 1.1234405523669762 7.972072411910161 7.77943148757874 0.2939323700529454 -0.33421924259745023 -1.0416212535397416
Ni 4.041323081562434 1.394784135504536 5.9933005729656585 0.007374695197516332 0.1573787671642064 0.41001844911595187
Ni 4.1448811835048165 6.962746218801871 6.082245705041877 0.34991145652172645 -1.294668198232235 0.053779507714300935
Ni 8.403427125246862 9.016092817174256 10.615404204014997 -1.2183732830242373 -1.3635315968628519 1.3733205579288157
Ni 3.601613282576981 1.7608249337865858 2.4086194521905266 -0.6567875312195334 -0.44306200983448213 0.537310424197107
Ni 3.1238559971506845 4.806234919380881 4.4883164170955006 1.5339420004000357 1.3164693532677263 -0.8124899391225814
Ni 8.396786143492417 6.680827644972113 4.669975836477821 1.7215458849973706 -0.2085717450982537 0.8211689549538179
Ni 6.312876042348869 2.2652772798619223 1.6165901160966296 1.2158967964592866 -1.4971315164399055 3.281278621208265
Ni 6.325118303495639 7.655300392229497 4.736176776881058 -0.7408428070992403 0.475887026784303 -0.13511712755252858
Ni 1.31130821252059 4.629579184699863 12.389497987947347 2.9472781794898406 0.3593296645118328 0.4766575864017404
Ni 8.813922224525525 0.28291518942732274 6.027861778152616 -0.7644974704037028 -0.580053214481272 -2.6820048679344843
Ni 6.407498323989782 5.16337736411325 3.68503206876445 0.07887655989224479 2.4664824025500103 0.38833839303935697
Ni 9.041139340744618 1.6664087192805068 11.30738419947147 1.1466580167671219 0.9813545954392002 0.7199227691171215
Ni 1.5523411934615552 0.3460476028591108 12.05181577409373 -0.2624654097929157 -0.5010136466486016 1.4622028228835204
Ni 2.60260917958632 2.2628794077474823 12.86098146578672 0.4273286582596253 1.0193393022130897 0.5045399146343053
Ni 5.195542570523357 7.5990721644834665 0.24953418692169138 -1.4251228873120874 -0.655793028516748 0.013877015092408358
Ni 5.9573165678795466 6.884684241451309 8.05206392697781 -0.15882681246464259 -0.6854548172472389 -0.876456414672213
Ni 5.7879200163574795 3.9660242771562473 8.862723605398354 0.2875760888176144 0.5818015646309463 0.7380819565246515
Ni 2.199110996204091 7.056094630881989 3.357508027989389 -0.6864202664843017 -0.9616792284974598 0.3471722032136924
Ni 5.088987128437925 0.6928614007922889 0.26986739311710767 -0.8516280427746237 0.04019559838227916 -0.8391461082575291
P 3.4244423800588772 8.778300710262963 13.046382877003882 -0.1470493602137403 0.22478152208889673 0.7108357192141888
P 1.5701098004970744 5.903514312311797 5.413858523186386 0.7566070119120324 1.6983257381271657 0.18802374574357295
P 2.862628436995919 2.8263793546409066 4.770792308858107 -1.0398150535689383 -2.5356121674681367 0.39269641289773666
P 8.2262843227926 7.610255989892222 6.972199080278015 0.297610590235481 -0.5864310929831578 -1.3966270938652396
P 1.449251425916525 9.103924250053572 2.887697440617355 0.11597423607549061 0.32716105019908814 -1.2942915316191064
P 4.4755252680350335 4.550243337788506 2.5102583197725616 0.42702835341038714 0.4181135674192606 0.5274304460792335
P 3.618023719860181 4.287863675016255 12.506505717112871 -0.8707560218533261 0.5346647590441437 0.14273659177099932
P 6.1605830630180805 8.53962813468465 9.533496482673954 0.9606294470767069 -0.24530483885322912 -0.6179546175127357
Ni 7.91413944695777 2.3138060901154933 3.877932450352004 -0.247495932967277 -0.747220685601126 0.0957738498682157
Ni 6.241417580000964 7.947981290510395 11.934328470505317 0.612084531885204 2.575042091328984 -1.2984770304553637
Ni 1.80113915871061 2.547748488280556 10.653172563155017 -1.6063789753145237 0.9295941750374571 -1.085807718248969
Ni 3.501876789316988 8.610262328493215 1.6889056303916874 -0.8313114427044587 -0.14572498497536193 -0.19412445932467212
Ni 8.695386788555838 6.262567561385361 12.029401289836482 1.574611710205256 1.472989114865747 1.4918111326682566
Ni 1.3784017982851777 6.6211243759977325 0.10346818173809041 1.3635616787698388 1.0812010727148926 -2.823110094749648
Ni 2.560721351087195 5.621801805616873 7.847524498947275 0.3677736815141279 0.4203100608499471 -0.3478059801429494
Ni 5.2487359913745495 3.168919132863854 11.650797889679874 0.561050448126524 -0.47620404380408954 0.4405094186159575
Ni 8.39658944304553 9.219518546007889 3.074484184981881 0.1654808274460505 0.0710542356343486 0.9432071378352015
Ni 2.1865409009791743 7.277804134588228 11.888595616603936 1.3668622038979814 0.43151698530936006 -0.8321082275741412
Ni 8.563456988821898 0.13117952802938357 8.171004003866809 -0.7944089132511545 0.8327276063256948 1.9809583668965753
Ni 3.0621107902038522 0.24350953323416064 8.604417515214267 -0.15816269651808246 1.4330565403368674 -1.5147088632020367
Ni 1.530591744048548 1.3013888899846835 6.462686849373693 1.009936263731635 -1.170483915542126 1.0578572557826298
Ni 8.007141291583848 4.337441554319893 5.341735025994243 0.5585395087792122 0.7784313068759755 0.6403167872580198
Ni 1.5795045885079473 3.258661370084364 1.9419476419495423 -0.5252997728894759 0.5862801692275904 -0.3386860201195522
Ni 4.161994122384043 3.8410820266307923 6.9593123910004895 1.7347395008695092 0.4268288358050714 -1.2890595937962057
Ni 3.667086431326732 1.4568009764018326 10.589398531598857 1.3732454817165058 0.9845792730240851 -0.17914032721101408
Ni 7.002498442449074 6.187053323156392 10.683511265415452 -2.0837312737904434 -1.9044909306664557 -1.0450683315480775
Ni 0.9165041888907952 4.345581206145864 9.206959690808509 -1.3265725031399993 2.0567539738706513 1.6285177161950921
Ni 4.006244835200801 8.60157004207837 10.764024505001753 0.25234194820566863 0.43913439264530174 2.938056660891572
Ni 7.416890083913701 1.0202477512545285 12.9114716604964 -0.82857116095516 0.007627691748586864 0.036749034594575423
Ni 7.216480428599012 1.599633600906118 9.85904602562978 -0.8984488597829043 0.7062776675298611 0.26634443313234774
Ni 3.698951903722534 7.461541085357201 9.074077298910355 -0.9296257996063408 -2.709216909572902 -2.9359342152319305
Ni 8.945617857060789 5.3708869688917895 0.6688555162528413 -1.0235194017327083 -0.802168245481599 -0.5463373102860656
P 4.944693300613902 5.76952384122951 9.678483445406055 -0.7205496040678429 -0.26090089351927326 -0.45074420897008827
P 0.438560506374353 2.4399660100740626 13.570865885253946 0.2579479815385364 0.1816738922661452 -0.7397721997428808
P 5.6691129464373295 0.5864670657395457 11.204758082979817 0.9747867124136954 2.2752959428077393 1.2027054945799933
P 5.42727443033292 1.5635250188703111 3.4697031528877287 0.4786489058001564 -0.9201672252966022 1.026576186281161
P 0.8592943322479154 6.512611296131372 10.452266473379135 -0.5356188954272968 -0.9511898989303617 -1.8339280328462289
P 6.068901921392535 5.133413329370696 6.317535032933722 -1.0900240703231614 0.01845769248455531 -0.3766157052857901
P 4.6229850363851535 2.294838547022754 8.612711717391363 -2.8103805629981213 -1.4619251437421017 0.044833354264606655
P 2.940193979885288 8.689401474957686 6.460191563704604 1.440423779335216 0.6775257922081493 1.5306628154281317
Ni 7.477745455505565 7.759832629718371 0.12040690022150245 1.286482577097649 0.09677812276301397 2.248321985322057
Ni 2.9617092620996193 4.826260898211634 10.207311660194748 0.9752772788968688 0.48246673688434966 1.093818504368587
Ni 8.835250172980915 2.9538880776638483 8.167001618107042 -0.01034971866544024 -2.366670892277311 -0.15515244893684893
Ni 6.561458573775141 5.335799355842209 1.474138715791788 -0.8524878196717576 0.6406047508120838 -1.7591068739702804
Ni 0.3710557230088906 5.502067433589968 7.020674500410289 -0.6190542783348177 0.9130139020812728 0.35632481624723794
Ni 8.342056585817911 4.221154123457495 2.5643546893418483 -0.13234419279308177 -0.7805830631116557 0.15276800786507239
Ni 0.598819853804091 4.650635499204791 4.061004366276737 0.9973581699563081 0.11019773860302956 -1.9511448830795688
Ni 2.2074192484131077 3.2628951130364228 7.741964735790613 0.14193697868783944 -1.6025660293263368 1.370660494598149
Ni 5.5555512217675185 8.861083498338829 6.7355384692707245 -1.2319016565279752 -1.1210588281417788 1.7270390469014578
Ni 5.901603507970603 8.766264516251027 2.108568843832904 0.9261026169444309 0.1613935447505543 1.7496125613265998
Ni 4.670951845361902 6.336910963620952 11.690375892931263 -1.3695736892918735 -1.75381245834056 1.4005151160657365
Ni 6.337416764770092 0.8239894120379636 5.273313243878766 1.2339621386014297 1.0810588907100738 -1.590609628295409
Ni 1.5207098882644294 8.859135227245845 4.980308258194901 -1.4622267341429205 -0.9608888713856806 -0.09572757001131256
Ni 0.8533858254909278 3.353386685292695 5.93573665551838 -0.6828369200084174 0.5224607607787841 -0.6133739401205889
Ni 4.533832900505306 6.7800770704588595 3.3266073244521315 1.0631295599251627 -2.4345770692009814 -1.6455178502975145
Ni 8.77127569430269 3.960067063621935 11.745650591844285 -1.8328684812334628 -1.7954501884860046 0.5208365949117997
Ni 8.067743762601141 7.283077579902407 9.063219434242155 1.759616466616847 -0.44675565663598543 -0.32186740590031665
Ni 3.753999928787239 5.830135678934751 0.9009920169817162 -0.8332654811070359 -0.6893037586796839 -0.2794061514123124
Ni 1.2566161215978722 8.767697619506922 10.05533340157898 0.7506705918229394 -0.8855658331726491 -0.9556183670153607
Ni 6.075496069707245 3.3673711503976134 4.745979015817626 -2.8604016321112544 -2.566470290499573 1.6637171469143603
Ni 1.6325294089760933 0.867326267162495 0.9755611563968298 0.057438187512810754 -0.37951488121045607 0.21527949613573247
Ni 0.8099721635252308 1.5710183692279367 3.9454503470805924 0.7289604538393575 0.6705773859147741 -0.2504966674668137
Ni 8.695087054541533 1.7874075941802616 1.7155014041484893 0.7068430531150279 0.5451636016929385 -1.0947469297201275
Ni 3.863580811079562 8.558979711983218 4.246488204347832 0.1924488713944621 2.885349560305844 1.1438825109045139
P 8.115551337882792 2.3100125814969457 6.131529470343978 -0.5172581335319221 -0.13696112273980282 0.02475509545749285
P 6.661710234872221 3.2438058030003716 13.682443745416576 0.035665314612093414 1.2358285023862072 -3.551474309765903
P 7.7226843453204435 4.164195294051596 9.97180315180494 0.394962583224094 -0.8026369575879015 -1.4151022698512918
P 7.554318129472549 7.203535665856214 2.762834806939449 -1.1005308833917564 -0.01417372039722075 -0.6758406911962426
P -0.030756456542873126 8.268181517979672 13.054553438900077 1.2448283918919723 0.7527824959596197 -0.5993454870519807
P 6.603468169217579 5.899964337579872 13.035443522150544 -0.3180724576342586 0.09694061648280725 -0.49262799368806764
P 1.492441224040288 5.596689715230881 1.7834576618729985 0.4215881562314223 -2.5071379712878437 2.7106276738774993
P 0.9096833667277668 1.2045373366123762 8.849687049113676 0.9842530000329178 1.118149367804468 0.23589640105513565
