# total energy = -381162.26184606896 ev
CRYSTAL
PRIMVEC
9.20321439354089 0.00000000000000 0.00000000000000

0.00000000000000 9.20321439354089 0.00000000000000

0.00000000000000 0.00000000000000 13.46983454011637

PRIMCOORD
 96 1
Ni 8.601232261823545 6.14241864070719 9.360551759004968 -1.3252951790894723 0.40960167329350744 -0.8451272655416283
Ni 0.5250654762991918 1.0495437875117632 13.087493795467052 -0.23884417082954992 2.204552039324958 1.09790270174029
Ni 4.811320911267984 9.200269495179448 6.711439589893631 -2.2057172632776525 1.4946118353418454 -2.731916922273579
Ni 7.666084430842952 3.00833756033407 12.324777391804883 -0.9712139074607725 0.9290992376789097 1.5551438312886314
Ni 6.615206177225233 7.643656197048385 6.435846570013273 0.5013718013189687 1.924408495525989 -1.0074803459919746
Ni 4.457935879982072 8.18442787925394 10.407979727497706 2.671513995705489 1.394270420707605 -0.6944518785395266
Ni 7.420423025558435 1.0117369822478817 0.47186997603001885 -1.0181594229723754 -0.4657005731696044 -0.04049410345930445
Ni 5.661771558985797 2.308000544714401 7.557573929999768 -1.4893472445087963 1.6386918285146166 1.861657380440697
Ni 4.54666407120629 6.635628110253606 3.4734661817253856 0.5449229464370421 3.155094020258676 0.17862430680654398
Ni 3.6663489923586576 3.2392922288095103 5.894831002622836 0.29610932309960614 -2.59266366106549 -0.413273722828456
Ni 7.386499976823609 4.818729498959664 2.684134081660309 -2.604843233850817 -0.6101515765285492 -0.5876976184004072
Ni 5.19590483978967 1.8369063996687407 4.59283659847233 -1.829762074393997 -0.7299248746351558 1.1262912801853118
Ni 5.946758299930625 0.8107746695841413 2.6726843624712155 0.29906377774223974 -0.19450935346791662 0.1104849308261452
Ni 7.685714887422274 3.730486194375209 8.291787978281645 -1.8331425608304557 0.7823787215594977 1.3907099570498564
Ni 3.594287822637092 4.1261231835400105 0.16497038130395744 -1.0758585774560567 -1.0896162933617815 0.46633126477506787
Ni 4.4613686789994595 5.821401314901577 1.4268056385582921 0.6081589715785527 0.030753479132772845 -1.011558115605774
Ni 3.1148923780909397 6.311527707582512 12.504640414851297 1.9310087744513262 -0.9319050825588209 1.400232551828311
Ni 8.065908882616094 4.958333060071598 5.475030053404274 1.9629675867461098 0.13579101369110164 -1.9193125690603203
Ni 9.034620836965086 2.568350280378945 1.1566563200687772 -0.14538251403427865 0.6980899895127461 1.1998729102272045
Ni 8.24014413998119 6.367243968309761 11.734555917641353 -0.7499167443760505 -1.47827735984788 1.7158827731743225
Ni 3.526561366956248 1.1563654984898242 8.390292744294523 2.5333858492407786 -0.6090763411864994 0.0707449319240459
Ni 0.3209565845897549 2.0130743320838387 4.579703611346829 1.6192920838317661 -0.2772094008713097 1.2487297838289073
Ni 9.636133735027899 7.1222756878445335 6.111290608223249 -1.2798676428842926 -1.3937929668505544 0.12116735024065584
Ni 7.083751031847794 5.7038854686468285 7.278761625678975 0.40010376110540125 -1.1420346590624977 1.3272918978045272
P 1.8866681805990737 3.284065867467929 1.2246358641490256 -0.06849033156191431 -0.22665431363157743 0.1995014073658693
Ni 4.08509525319279 7.168733514760813 6.396003093375268 0.4588640098637452 -2.3010697093377344 -0.27953779189417016
P 8.514243478144332 1.2912202009074623 3.038808483301009 -1.0229151924898061 -0.8895844674137388 -3.9560453626140384
Ni 2.4419165192506087 5.419064385563429 6.7207744103851494 -0.15213808759055736 2.2354690406187885 -0.721821528801731
P 7.743529481060956 7.998007565859298 0.2861702743325933 0.09687145380776865 -0.5082207059200021 -0.6868270150044171
P 3.409137552846739 7.687500311039897 8.732278674071223 -1.4654542399412827 -0.2979995981437836 -1.6678831053665921
P 6.092491201915427 3.348221475913528 1.0188317403243 1.035955827723848 0.593367672201991 -0.23900177945333675
Ni 7.714612981027091 8.314506113333712 2.371485238821213 0.40655902981244174 2.515694345498287 -1.8574934788709947
Ni 1.4603384709973086 3.882164372942403 5.422685850478555 -1.0332721102440978 -1.6709848842203672 -0.5458732261654534
Ni 4.262892154578605 1.3591583305223538 10.537761618069808 -0.15793772499146996 -0.2146688591349271 0.7487810881097104
Ni 6.117247848984522 0.17146140850761268 8.30932562387825 1.0782126795105302 -1.4962316303334555 2.5612301251465563
Ni 0.45375989049003196 4.906666213734833 7.393538595291432 -2.248946506279933 -1.558522003732245 0.7359037179264101
Ni 2.3209770771929974 8.392807062502433 5.877117575628826 -0.4578700213815921 2.111478104886409 -0.5131561955484065
Ni 6.122760574484294 2.6745185631258144 10.509541801375399 1.2495556221643125 0.7884033304870228 -0.466809489963067
Ni 1.840035492606842 2.0128810645788384 10.15832964903856 2.173877750169553 1.2768116296667882 -1.2458933428213768
Ni 8.956347497439936 8.180755796658932 10.689957017293242 -0.9182671800604121 2.679472588430934 -2.1278002390851998
Ni 1.8107784736355959 7.279531014413167 10.671153009378159 0.18421234241728277 -1.7643529528605677 -1.7306838427428968
Ni 0.11294092831495346 7.6364408768617045 3.7787598155170388 1.6975307530296957 0.017055412820389984 2.117191096110786
Ni 4.316611317754184 3.442876537291089 9.224196932619947 0.8549463085145793 -0.7557086684674792 -0.1830761719303105
Ni 0.8269539207170293 3.653160785946014 12.523700272130144 0.8577701511166195 -1.7198792959282254 -0.3202707508371581
Ni 6.560318205805129 5.778946886303163 0.11307529524700134 2.3258823975060396 1.0695704304545 3.522317485696288
Ni 4.949590006273962 3.4340598577772625 2.8741933460776714 -0.12365412121825158 -0.5364632457054632 -1.0346394229052698
Ni 8.784597107996275 2.741131429849275 6.645612677690506 0.1020555691118694 -0.9245185602867626 -0.8297201869579387
Ni 5.673413625358438 7.922320329615345 1.5639289333560535 -0.1807953463159338 -0.5625961953470892 -1.0099933422218155
Ni 6.188140210461562 3.8065139495565443 5.8535996812346385 -0.30598287345957625 -0.4610144805478447 -0.13321913919886735
Ni 3.089160190282319 8.449581692899923 12.003885229716795 -1.7874882533264507 2.3381794697058376 2.39025407891389
Ni 2.300858850243911 5.280344333045783 2.165060818337581 -0.6100924411558397 -0.05518950068795011 0.3317972634195189
Ni 4.572018927219433 4.788966303189608 7.181294061942932 1.6874340309153262 0.8739182216313918 0.7848081569365968
Ni 3.121380644330238 1.5019738135031022 12.716924522022248 -2.671301365474051 0.7247088776518552 0.1749010923186859
Ni 3.1626294518260307 0.5014279401161943 3.542391816258683 0.6561182730666506 0.9112796929989854 0.851342907434037
Ni 2.6171089109261807 3.007840586749783 3.317768039054184 -0.23083055649645406 -0.39852047577868144 0.03495800413242367
Ni 4.157101203627213 5.995627369052148 10.476136893618262 0.7279466678628624 -1.7238647629385344 -0.10854657615285176
P 2.224886314349719 1.5099161876371647 5.591610853063401 0.37859031251365766 -0.563019913148069 0.08320681183648251
Ni 6.57207991396658 0.4284933853363171 10.673227413931828 0.34365416275810495 0.9477330507300131 0.8272902373602073
P 1.34796722166138 0.43471659899732895 11.313934041687265 0.9678154233021848 -2.1471544752420955 -0.1386544512818257
Ni 8.883881386279322 6.442544669543714 1.9884842631976252 1.3711626310455483 1.9808496092328531 0.9351793824347184
P 1.1689554959584194 5.767323226359569 4.609808246375719 0.00463904143390814 1.0014521375200236 -1.5691404026780396
P 5.566509085449662 4.916219150410566 4.056629710670593 1.9021717956149755 1.0379060094716834 2.0468495702727463
P 0.3653169989160538 2.7832085266522117 8.770950581500344 0.33028185521625697 0.45561876345357016 0.09260830765604051
Ni 8.924550391260114 1.7695480725688506 10.96930770966368 -1.7033622721098083 -0.28895831387712173 -0.99434689393381
Ni 2.9014790364979137 5.041741793301043 8.769374070852413 -1.291077138446867 1.7060835276957136 2.33199828059579
Ni 4.9120224845877 0.16661407541791295 12.822717313616547 2.6911970759567136 -1.6989510304159903 0.3741484746922202
Ni 6.7800725622050715 7.489999327358568 10.112343947027354 -0.4406731978873314 -0.8111151702622419 0.108563031213084
Ni 5.1898951407056115 2.4445578418189475 12.809556716847474 1.7413706330327818 -0.0818343569689881 -1.684142761758564
Ni 6.771541182341484 1.190757911165366 6.143604935059311 1.6010940727665006 -0.34408687942014937 -0.2963535778999283
Ni 0.9308407265834416 0.24948534091916622 1.952034932076008 0.10439578720927181 -0.3162747423038876 0.07605117462830774
Ni 3.336110045600171 3.5491644618267677 11.343405495556917 0.5080769812532863 0.5314418812314718 0.13576735954201782
Ni 6.460978708234939 5.0168470980140905 9.966869655370672 -0.3263552664683412 0.1982881037840585 0.07109717305714208
Ni 5.442458956882997 4.659605919842695 12.240038794076744 -1.2485611194615271 -0.8630879637851071 -2.5387720532533566
Ni 1.5053697996623943 0.6083729741688744 7.984176975072892 -2.211613831267746 -0.4686596557979284 -0.7245769800596812
Ni 8.007118748237888 1.3780065138671516 8.712262602803351 -0.04098132750836813 -1.2125147673609311 -0.05908755019077566
Ni 0.5976696356776635 8.109706980534988 12.776218992556363 0.5141861794748178 -2.2165799170237697 2.0963294221704283
Ni 2.345623285687806 7.599278296614491 3.0964721442215 -0.15493159117529448 -0.7964472838374219 1.349533739921863
Ni 8.73245169450427 4.942172215367757 0.6799841067002252 -3.4848097185588176 -5.213779663934401 -1.2233622515983964
Ni 7.041084929315331 6.85254787658021 3.905537776868566 -1.1690592672804576 -1.0096932944828931 1.1828360093495758
Ni 3.5160881088281335 8.78362156725675 1.3069135223134922 -0.34004741924345305 0.0037180722815355325 -0.39916016624520934
Ni 5.385196556115745 6.722009481774246 8.369993214019317 -0.9954411554392534 0.5200315825120011 0.8759187970011882
Ni 3.446640652031334 5.214274455979229 4.805404164650616 0.02260591032497397 -0.12113623989240427 -1.7980732279311484
Ni 8.860882553184277 0.061070690937211694 6.338876900182968 0.762008642543578 0.5903440548843187 1.7901447171126912
Ni 2.27654395747196 3.0557341151317794 7.808921081217105 -0.8338668621364606 -0.38133779335180773 -0.5682906746287051
Ni 7.713931943152328 -0.04589090890161132 4.458798221182954 -1.5045028692033122 0.21768964823912187 0.3622591794538019
Ni 4.286323538756268 1.855846615158777 1.3303513487413225 -1.2780550151555858 -0.33327179108251637 0.5893112427444303
Ni 1.0901943860635075 5.770645586802671 13.211590860427787 1.545351270678242 2.0724958100859405 -1.278784694232759
Ni 8.904588618957932 4.265054909991704 10.398510540074138 0.7239596581906564 -1.6066774803915491 1.013942042456918
P 1.8840360612452594 5.099583996583295 11.051002804348787 -0.7018509992170752 -0.15125748475781692 -0.1900189217967308
Ni 1.1811957712751093 6.785235565552939 8.279408734425646 2.845650184833693 2.8387256897997175 0.24916457891895155
P 5.781983947096025 6.995924755646912 12.157872494808016 -1.0829517368574122 1.3219982535057555 -2.2575705005035185
Ni 0.23370182801080278 4.135363210921933 3.156103452407185 1.4178070703769647 -0.13545059963254735 0.6331205266198967
P 1.999858516027623 7.266987033017191 1.0693500254884913 -0.15029460662391536 0.013944892215866308 -1.1174752245555786
P 5.413303173271513 8.500779175295973 4.543199981259521 0.11796864079770006 0.367529940934438 0.09649735829780154
P 8.54319679103629 8.156670984250077 8.3699665246972 -0.2878388555606978 0.7176751107335253 -0.6269820178223267
Ni 7.2443563285031 2.675171991357006 4.022214289958741 0.5933805277177975 0.885917560085113 -0.27147455527006153
