# total energy = -340893.60502673365 ev
CRYSTAL
PRIMVEC
9.05812197416713 0.00000000000000 0.00000000000000
0.00000000000000 9.05812197416713 0.00000000000000
0.00000000000000 0.00000000000000 13.25747711819839
PRIMCOORD
 96 1
Ni 6.355948385357819 2.316333917862454 11.50100701227042 0.2720556245845121 -0.6061889923363754 0.3991647942308997
Ni 4.761329401620749 0.22855272446991373 6.025403923805578 -0.5309929666195113 -0.07821424371789756 -0.7370476017228661
Ni 2.6950721178932104 1.5239475153394826 4.794473976090578 0.35436049343201553 -0.1326128730734361 0.887087412023498
Ni 3.402810369663111 4.251782860763336 4.84770221881613 0.1733113792340628 0.42777037378273425 0.44734855302497795
Ni 5.048326941316875 4.564423944042336 2.8119635599700517 -0.07845824140790358 0.2098341567504451 -1.434811318244445
Ni 7.1499561917314916 6.075309647355502 2.6812847502890107 0.10368282030264724 1.4174270613297266 -0.3770769611929248
Ni 5.19714282882059 4.49120714334281 11.275802169717931 0.016579758735552088 0.5451528030596612 0.6669004512838193
Ni 5.6346138923594165 7.930621384294648 12.401866238217487 -0.5230865672882411 0.1273922481044451 -0.0372794531767487
Ni 1.9107293277692465 6.558288716178804 0.5022529409658797 0.26278011281985714 -0.3178914519717041 -0.5699955731349539
Ni 2.701177292169034 1.6190487389624357 0.5509965074541009 0.7790951657122195 -1.470430095889319 -0.8656431261067931
Ni 0.8168605425464839 9.059843114148139 4.443005252554431 -1.5549800520172574 -0.5523614049929584 1.0807693844941129
Ni 8.515930058153526 2.568358048242626 1.3153434931064323 1.3793785911974374 -0.2799489112896598 0.012691222314423305
Ni 6.955777228896436 0.7714512707925811 4.725508152078952 -1.1796506696430586 -0.3273757373130555 1.0749895445875421
Ni 0.6030272664418715 7.597101329642097 2.373698099125603 -0.24651222889776903 -0.6708933744932962 0.2483027451392885
Ni 7.595099484664417 4.063609432861324 3.7948603858893417 1.2860190071976692 -0.6287169982355624 0.8123945511952976
Ni 7.658542571649384 4.160123723527346 12.768144085527439 0.4427920440025471 -0.8410389544048676 -0.5272949489426338
Ni 8.1445108207561 8.504417185001342 6.892840490935237 -0.19236633898298483 1.2655147165967302 0.457547862155483
Ni 6.803754766179605 0.6304181217722314 0.5126308314225724 0.5096407261959803 0.8438597116831145 -0.981752345098251
Ni 1.8787813312249892 6.459600476215753 9.38666468752922 -0.40928568471498544 0.06850524396024978 -0.4990506093849599
Ni 0.10099624946673025 4.980481607005426 1.4275917418097026 0.3182706896879938 -0.15816912427598567 0.4960138794411651
Ni 6.258646038071624 1.9863737051837889 6.989885587554617 0.5337345339203906 0.6544452562396019 -0.610335153294265
Ni 3.4054462831857584 4.17098441189042 0.4124307908858791 0.3200475790827585 1.116755572780735 1.4751611828164013
Ni 5.935823625584871 5.7567264359979555 4.924397338390903 -0.3048593013780943 0.7065985412043895 -0.5487983702320485
Ni 5.600419481541563 2.99120024463686 9.145445085155282 0.3559738606657224 -0.40635154178732596 0.3152815251526828
P 0.3181266820051702 5.643816944383507 12.553107890811804 0.31938911956315313 -0.1408522302640929 -0.8698715623658438
P 4.122514400688742 6.069548681718374 12.60503719883238 -0.36091783493455903 0.3493075043891404 -0.016673861111255156
P 2.3095131519430256 8.499589205937523 1.4754113798466861 1.387557527463804 -0.31413172781895576 -1.6181443433805682
P 6.393584882562636 7.804179058306191 5.748547857580091 -0.25862803832469655 -0.3926886995882527 0.026314983745445
P 4.689072761860744 0.9978155529701523 12.840741310677311 -0.060860325820482286 -0.2679508583875192 -1.565586366778194
P 4.187125985420862 6.138453816312127 8.206988311928303 -1.8684610336260918 0.10010101648865986 -0.24314331242553608
P 4.768829526695499 0.9501698308769309 3.900946394147742 0.5036006906494875 1.3530561512528245 0.22509648222615428
P 0.1850284479189766 5.829580911814644 3.530134956741278 0.23726577059883658 -1.8750469143737256 0.2687309310866533
Ni 1.3807114310314768 1.0789219779934802 2.490563272648439 -0.3827637271650569 1.6130409607157319 0.6499658803120097
Ni 1.9694259587890328 6.415632351683339 4.638910693456211 -1.4381095293797428 0.636888221192445 0.5671316213235974
Ni 6.020290613896524 5.611787424740611 9.153863703808028 0.03786026538088319 0.0851726773136017 0.3383240087944432
Ni 8.275907939517369 2.258262297265564 9.866439898576024 0.9129074584103956 0.15674550445558166 0.5425228216359818
Ni 2.307312028279783 5.189126390787795 7.190763031661143 1.4882910353301402 -1.1249188253178175 -0.13736067217106668
Ni 0.4459965680320087 8.870528362865187 9.093502189951598 0.06611386090993776 0.17461929941220894 -0.04406382308843379
Ni 1.1575193032031539 1.0017558360710175 11.399853151479654 0.5705401327845141 0.5993179762481549 -0.3167439686308222
Ni 4.2045809866515915 6.854607063485944 1.5320337009122238 -0.40035624343583953 0.9111907328296049 0.3715781428618827
Ni 5.61899768990909 7.83575567184554 7.851264082643221 0.3496836567816365 -0.2699516908676319 0.4562180876004659
Ni 5.35920169079204 3.033293337900586 4.477447855917029 0.5429185144125037 -1.3808700881412992 1.830861220995447
Ni 1.0580701809861426 7.199241433919556 7.013364239962531 -0.3226942726769862 0.7667980935124215 -0.3062631237041564
Ni 4.990644819969036 4.484621888597226 7.025786548570638 -0.10472128886949061 -0.4065963108082804 -0.04282712246785527
Ni 7.94563069256622 7.075661474505521 9.234694761920398 1.509689555610574 0.7225437516797362 -1.178043473056939
Ni 4.695042064305502 0.532353080607662 10.528465431502644 -0.17134602797757587 -0.6402129146903038 1.310254739816582
Ni 8.266578073784284 7.215102205665797 4.805955145815513 0.08402056598702949 0.3213660407838659 0.07536391875329602
Ni 7.331363202446501 6.160664331630108 7.035557544848577 0.1723821825515741 -0.7236855785936633 -0.45501275443845507
Ni 2.598267967320918 5.2462921991775895 2.5663163475278323 -1.5406235261852692 -1.0692061051365458 -0.8182378973499521
Ni 2.453555409115346 5.099550621628124 11.60717363781525 -0.13328315966758336 0.6518242736769871 -0.5831683630714859
Ni 1.165318346306246 3.4936814502789275 3.905652994375809 -0.8001722980974929 -0.1105486941845451 -0.5999666655757473
Ni 3.4964804099988527 2.4781482105379884 2.818897552415368 0.9253593110205032 0.9834068499825387 -0.6093203388765055
Ni 1.2035073889573908 3.179817520520349 8.338701559149849 -0.5394732361763805 0.6083554038600749 -0.5955628800810969
Ni 3.6843368036283812 2.3360081590005675 7.030227745822027 0.020624618228887063 0.6532754043012168 0.2699735452445028
Ni 3.8344661188323843 6.752666957699421 6.036513710525603 0.8239274915355617 0.6975516005107728 0.4383121538543226
Ni 0.6138453816312127 7.595362170204474 11.382180755319222 -0.6646530500105393 -0.9297325003875342 0.6404186029432067
P 0.35540176013935565 5.413115633358362 8.144028928661927 -0.5055241329244455 0.3500770355653133 0.5311006958419692
P 8.27222128383449 1.4537923598999387 7.868471797141414 1.353143054539676 0.2759930119657053 -0.7353113357580497
P 2.000105818243356 2.952440540295245 10.313720908317695 -0.7420756510650768 0.9074104398515663 0.9900328399394885
P 3.9712256458596573 6.1611715864660805 3.856308874394284 1.0721831854869988 1.1701465868073653 -0.23956022305996805
P 7.240184145680271 4.119126663034205 10.316610449258329 -1.2355960746604269 0.015025526874554766 0.6301784132724373
P 6.274724204747568 7.844560166498508 10.326912251489626 -0.504677211543118 -0.8353555308668451 -0.2645942832104604
P 2.369568501273455 8.548213205214408 5.790441672158257 0.6144108660255354 -0.2641427974953386 0.5413907649140676
P 6.8786654357064 4.159163562587825 1.614071300884446 0.1813728160859586 0.03186059615402255 -0.5444380363808237
Ni 5.380234650240797 2.725462117441263 0.5385859744046859 -0.45932706554309277 1.2734180306042069 0.11618223832123861
Ni 1.3593614373102365 1.0660685027747956 7.105013413264243 -0.24900697029516472 -0.37197280719714004 -0.9499035760187705
Ni 6.721253390357349 0.558891566651145 9.087589953675888 0.13089537616169714 -0.09291426893223353 -0.22954474780549497
Ni 2.654944637118881 1.2334625986460377 9.221529687302473 -0.11456732842563495 0.24727481809540638 0.29344437467293333
Ni 6.553424504626702 2.2226004706722153 2.5286381829614895 -0.8065974848975463 -1.4319905609661983 1.0555201230090208
Ni 3.9999217765804413 6.787404855841531 10.365053286093795 1.0339249133367483 0.7039752446489296 0.6901735628791468
Ni 8.085759841003888 7.206750617116377 0.2231866929550802 0.8295114133812422 0.5623390850309605 -0.0393353072645129
Ni 7.752982552361156 3.984414271594967 8.14543384339513 0.10733764344641515 -0.7008930061791799 -0.8934892017847839
Ni 3.058964055849672 8.345501491388514 12.467464252443134 0.5056298052643743 0.20884505336429837 0.24451191063828856
Ni 0.3531399470582383 4.5485722304181655 10.569072992746735 -0.2582308028862778 0.027618275937900824 -0.7966871677623698
Ni 8.568738909827191 2.348562716190911 5.754726402644689 0.2806132843465361 0.5946740497182403 0.13646104317493274
Ni 3.4889621686799606 2.8295489981586033 11.826823134101623 2.192007369890728 -1.6379294964272952 -1.3417846921040633
Ni 1.3478213897918403 3.160206686236732 12.583043172631895 -2.4995218495034823 0.6581674422861955 0.6680175956073979
Ni 3.287065685840452 8.444742276797893 7.854365583640316 -0.9094750356900788 -0.7987018841995535 0.40195675515373996
Ni 5.505698699045589 7.973556882910973 3.5361269044912143 0.2704687397133665 -0.8885567974801728 0.7138806766880995
Ni 3.0659478679663783 8.513357551485374 3.486345277213662 0.24633867943438223 -0.8706452073070747 0.7625809701072803
Ni 3.6285568879154426 4.177479085415295 9.305622575172594 -0.9771405573578527 0.5269000274970603 -0.04739288746166676
Ni 7.418275883717311 6.094829900418409 11.235008916971386 -0.16020852330351765 -0.0737772909924665 1.5473544171511997
Ni 0.47882410822935545 0.22530810514409777 0.4557947386761603 -0.595047116786943 -0.6198868015384421 -0.6919303976692536
Ni 4.57945136855805 0.43915768586843795 1.7865379451154226 0.13794534102994307 -0.3219262841627101 -0.9594027737584573
Ni 6.024104083288396 5.836120875949874 0.4088673256631656 0.21980900857496982 -1.1007309152177045 -0.6052795931482285
Ni 7.839904291754038 9.246259266368385 11.112284950093057 0.0642896632170054 -0.8624194769631729 1.0086064891766178
Ni 0.2388871359406659 4.8912681627285926 5.918999975462488 -0.5218868905531852 -0.38905855903483316 -0.5210523104670317
Ni 7.717565295063723 -0.15700533566806418 2.714282583181291 0.5984502289312209 -0.6278955307755315 -0.5357137691339483
P 8.558430766910444 1.633967466013298 3.5400382016014524 -0.016803187600267833 1.5051870397545302 0.3797815046082814
P 1.7876747394353276 3.1824353177988547 1.6791656835229476 -0.8004777451530537 1.3762223049566429 -0.13730745033562805
P 4.7332763975670025 1.040434017313994 8.426107908073524 -0.1470845843270499 -0.0209892006571574 -1.3467772602226482
P 8.424162223452683 1.7310614764918608 12.527400940374434 -0.31597443745464937 0.6080301593101722 -0.221932739786192
P 6.389680831950054 7.806778739340556 1.3952433762699092 -1.3019169093748482 -0.7578033462129787 0.7292725857631376
P 1.9440632169903598 3.192018810949925 6.007387319006448 -1.6230641492796887 0.07196826280818573 0.8457199048203049
P 6.819796700367266 4.080874213528563 5.928903220322662 1.1414330209227568 -0.9535527427355834 0.4865627613305943
P 2.2978372325935648 8.42791228599006 10.373405780455421 0.7718407981426514 -0.14522130586606602 -0.8669376765485005
