# total energy = -340862.9218047148 ev
CRYSTAL
PRIMVEC
9.29255843466634 0.00000000000000 0.00000000000000

0.00000000000000 9.29255843466634 0.00000000000000

0.00000000000000 0.00000000000000 13.60059857533579

PRIMCOORD
 96 1
Ni 6.693392470830309 3.701495398438095 9.245591710358294 -0.721239688156332 1.2274009404441442 -1.0624101652606348
Ni 2.04722490262848 7.016076552859895 10.861301806836304 0.26131072736318217 0.13673435144097743 -0.13032819080431748
Ni 3.9699666961750784 7.626235214059164 2.0609806764694705 -0.18720022140101308 -1.660898703628959 -1.967566776081018
Ni 4.745718743746334 3.6619276858021848 0.21812050061476324 -1.0912584569508947 -0.3710754921938513 -0.7397997105467066
Ni 7.594380324694227 4.988263804223057 12.063757903199736 0.2863627852358036 0.5507598648337935 -0.7066517630398281
Ni 3.617407039668168 7.135969138211823 12.64013718623959 0.8251449088824305 3.4239712471152064 1.7276522550054247
Ni 9.161598135681576 0.7865026081040136 8.639453939073904 0.9545989246119108 -1.0443006001441175 0.6758466047335134
Ni 4.555444322907233 8.270534733930187 9.198655928359065 0.05129736472239552 -0.9484611871452893 0.3871322885463978
Ni 4.2843060609789605 1.6849080600558797 1.8799839456951162 -0.6162126951209645 0.4719704653387162 -3.392324309633887
Ni 5.666787815789258 9.072213018761705 0.6744659514186888 0.29861537735091154 -1.4583919337778626 1.0699802642984086
Ni 9.12678821282246 2.7539425356454434 12.598845704065408 0.24151271880064856 2.4167323277100765 -1.5454641421070223
Ni 7.437178118338734 8.377947413676193 9.275117884648886 -0.877931713666159 0.4101835139389064 2.404122609365866
Ni 0.5634310325027748 9.150131118914853 4.656572445571117 -1.2540691937639499 0.654977474593988 0.4624213881977004
Ni 2.276035562147976 4.310966410333687 6.352431785415963 0.05146037266282105 0.7617301920712107 0.050819910865344736
Ni 1.1298914389649923 3.0925168921248662 8.22205081174187 0.5120853310817309 -0.27772619260672815 -0.23654920414778616
Ni 3.947887577992147 0.8622146549505004 7.81843969922764 -0.24360096878824497 -0.948333146207857 0.5873109244849498
Ni 5.4580583744487665 1.6540103041811967 13.115818592058265 -0.06418836175245074 0.9615113354610278 -0.751477661105267
Ni 9.203823519950618 6.854609062309971 2.655530627731084 -1.8879050012833163 0.10598524318357876 0.397949947987192
Ni 5.180313103670298 4.593190694144214 2.1863094083437113 -0.9472329711651429 0.010239675450137204 2.669974676242828
Ni 4.9085429477872955 5.867665045486408 4.986197139288763 -1.3980915942259082 -0.6320332070929889 -1.3022758353761639
Ni 2.0149983109372314 2.5405203524352635 10.594906466591773 -1.0181329406098143 0.21025787455142497 0.06055667853713441
Ni 7.903181324836061 1.111696610092021 -0.07220503539773324 -2.9651252349735904 -1.7738266966789582 -0.146858841469489
Ni 0.919309061527836 5.158373373859734 11.89796658533899 -0.9086638526426932 -0.9278689648162343 0.566350777293515
Ni 0.6503814991853042 7.749705434301845 9.091197715078088 1.4524616843363565 0.8177565868381594 0.6944652482759652
P 3.9868512743478 2.723081950003391 11.579767091876358 -0.14013823491620384 2.304263276574367 3.042502584612489
P 1.9579698815228164 1.4754073363882911 2.0536218996643094 -0.6624460150568914 -2.890476597119764 -0.8746242465594808
P 3.288218166928122 7.907929822054696 4.059819228770289 0.6149952777740957 0.11285343105832175 1.6779898547832908
P 0.6669389793108712 4.248464664164328 0.6551262793806766 -1.1971138594248287 1.0475651298280022 -1.0641551729761995
P 3.6051594480161877 3.8966577048681987 3.7602522436698607 -0.7815341141710154 1.0267116834177608 -0.12567655096491903
P 8.174681996532486 1.372455084558031 4.070332829070023 0.23154429473402705 0.8594094864922553 -0.5777060544053341
P 8.226785370123268 7.66522678808929 5.570968531600924 2.132414855039076 -0.43552662068938536 -1.800375907922396
P 3.4741065003167426 5.752632468051008 0.677472093982737 2.9376334573112244 -0.9604186166174815 3.1008612270570404
Ni 5.109429470042604 9.120683002112786 3.2176978723243983 0.7158362577525736 0.26969149522770974 -0.5447967052718231
Ni -0.09245816590265714 4.002871644611846 3.3524929331939894 -0.15843523345317875 0.6123390710981712 -0.5231547015220153
Ni 6.57008022407631 1.9518182080223532 1.965775630375368 0.6510192612771885 -0.845380519203015 -1.1722528345170908
Ni 3.162294711331782 4.961426896263332 12.482764926069809 -1.7382428860370773 -1.4556259409969512 -1.7886516775069325
Ni 6.268155716971248 2.631392278660384 5.9250865501108985 0.11547749894473014 -0.17056698371970627 0.39097943020662984
Ni 6.122067410172483 7.7817182971554635 5.522073878342031 -0.9631786958611218 -0.9914153221093118 1.309024724064223
Ni 2.4189922768475625 2.9616312104722606 13.402029383318487 -0.42055354431932085 -1.6354033875713319 -1.2646374561980995
Ni 8.347737307105186 7.4729358821299465 7.573901385026068 0.8155688351582212 -1.8852441666217015 -1.419903033674045
Ni 3.130393359176056 0.11372046822351804 0.14838542717537306 0.8047792007418849 0.6207681757021308 0.8016969622721354
Ni 8.357550248519821 3.3565835172950527 5.453595158765574 1.0764661291330686 0.2737013877180512 -0.5111826167618035
Ni 8.710472314794886 2.424948806626712 1.6244553229603154 1.9939982307996689 2.6160709842458365 -0.21275081617660777
Ni 1.6974344284525933 8.357643174101401 2.7141081265904043 0.6041133407542693 1.8114231668754934 0.30678248654273615
Ni 6.91525229684777 0.21775716159079328 11.432009841632452 -0.7253254281899314 1.0518660711962016 -0.5278749898158198
Ni 3.9069073965162513 2.7884272189690367 5.521883380899796 -0.6863935270114244 -0.39574522702638937 1.8489617872508997
Ni 6.255211183457433 5.9445052088932515 9.909790314268431 0.5059115981708513 1.3564651769343736 -0.2595243248867208
Ni 5.102181274679521 4.7200991609052805 11.474606928227804 1.918707845596786 -0.9692300442615244 0.3270656622718045
Ni 2.3452279501909503 5.865741485947743 3.202396746061766 1.3120156883717466 -0.5257180913738171 2.1190001242950665
Ni 5.015463121950936 0.4907771665460198 5.364525059567252 0.4640663800002911 1.0990761532231008 1.5157892407504088
Ni 2.6560547280111844 0.38799496853004756 5.873132786706456 -1.4669902169698348 0.19222004321310768 -0.028743904901911792
Ni 9.086951015999974 4.219174520850944 9.89459884019206 -1.3685835574644625 -0.5846873708191737 0.10679102691432575
Ni 1.5082007741271655 2.782452104073572 4.422329356552571 0.6580234605091635 -0.7886830665109708 1.1337919594377313
Ni 4.847788202551603 4.592168512746856 6.991401093927673 0.11520033402394353 1.1201964801414834 0.13491812416784504
Ni 7.701700078858653 4.825486062972884 1.936928742086111 -0.6396884096454015 0.12037879290108944 -0.821604756939656
Ni 8.101382297783765 2.5213869751883546 7.673076211965183 -0.42660309294751053 1.1259182131166092 -0.3101454894776981
P 7.640731604785331 8.073012117728004 1.0636020460905142 0.24853542997538486 -0.41124795064767883 1.2390590935083627
P 1.5018167866727572 8.104569645231889 13.080674137105467 -0.873806892864508 -1.2418317711574935 0.282486590109849
P 6.092851607324361 9.0879360271647 7.720923593919692 -1.2937505715139719 -0.7184896362150206 -0.8268850315019889
P 1.8353731617469682 4.893665562176659 9.941520683354053 1.1552647845995265 -0.885777692073139 -0.0504239609785067
P 0.7968405790545655 1.4700827005638721 6.779952650070211 0.09065786879788902 -0.0003404140585542524 -1.3913439910894296
P 4.2584169939513306 6.5578698026569615 10.7719324872653 0.568442112604905 -0.11245285318579344 -2.3500798206878493
P 2.359241127892912 7.350478550726465 7.439880394251022 -1.8433819791702768 0.3981690059765336 2.2346560577991905
P 8.560388207988268 1.5188965085667925 10.578790382978701 -0.1564320869802209 0.7627213523398865 0.7942842147478321
Ni 0.7808443694417295 0.9522920674531292 13.474384958158378 2.0709580332851756 -1.3114806418038834 1.6138583144107044
Ni 5.39005543384999 2.576947180413837 3.6947517889829795 0.2546934791569807 0.018555651515000302 1.005505995874423
Ni 6.440151675913958 6.626411711628891 2.9994491344070573 0.033613060068755016 0.22844071610803882 -0.48946039459336343
Ni 5.801855148612872 5.713770989835091 0.34773310179974987 0.7238766115585469 2.03537653663614 -1.1146601237042868
Ni 7.018353229608555 7.658740582495146 12.6915473349918 -0.8893114162580105 -1.0236744392533337 -0.48518285026393215
Ni 1.7051193740490933 6.5985897925044386 1.247105909055843 -1.142101250634375 0.22297043702208696 -3.0978149840315488
Ni 7.15772301685923 5.583052574229327 5.702649656231837 0.6317449864286088 -0.3003357024761279 0.9273364893515319
Ni 3.532027015314306 5.979863392683678 8.481972026717862 0.44176000319360686 -0.6864894291593402 1.2039123704039008
Ni 2.1171885729985522 3.5026904092101336 2.044006889738434 0.8409361102784162 1.7901254338389814 1.2780395885366183
Ni 7.230204970490067 8.647691791880794 3.9766378236765627 2.6856308947228458 2.3205368169234104 -2.8809938544403093
Ni 6.031102558365784 6.789904979857214 7.6627949256193935 -0.6220976931468318 -0.21515454052209396 0.3839364073169194
Ni 4.170119106335921 1.0418444504198425 10.482293671300665 -0.7437422401342224 0.2263331828467328 -3.6700319902978538
Ni 3.389562806197083 1.329235396566106 3.8091060096728597 -2.325129835610731 -1.3302358109241996 0.46495701013536056
Ni 0.9709236465595171 5.572756419790485 8.1200872880996 -0.25078077436613583 0.2678282167667258 -0.915905364696455
Ni 3.986758348766222 7.749863407790527 6.321571199773911 0.26985424605781916 -0.24003382026227693 -0.20300093587869555
Ni 2.0024533574242023 0.23390112287833825 11.57805354415206 2.4617567149395665 1.0013971159123722 -1.130484235220737
Ni 9.259671794478992 8.730256171112842 11.394784782908122 -1.5557081884325337 -0.49848496668947695 0.3091923815358094
Ni 6.511304793728229 1.3716094617656716 9.221219188822017 -0.4282830517530946 -0.2948870206567309 -0.18473324791775927
Ni 1.1802292265057919 6.940174937826988 5.823694518795332 -1.125661617021113 0.10660590748671318 -1.3501572324384747
Ni 9.003113556300308 6.563315241737432 13.39461670967601 0.36798451197335336 0.2844575977932907 0.9849232866270652
Ni 4.061024473563355 3.5490416893012373 9.630556375673084 0.16117242987868372 0.5990431253202135 -1.9771271660759433
Ni 7.705760926773611 0.4321401953144896 6.367500597724651 0.5393613931888647 0.30374575659894143 -0.3338425759843218
Ni 6.9068332391568035 2.756674547743836 11.386965095218335 0.03734295942483246 -0.13616973718675904 0.5157915762887245
Ni 8.936736813379147 0.2615604222350283 2.0472434877447956 0.17094056500904106 -1.4068032630672933 1.116732432852283
P 2.193554815939348 0.1791688845847153 9.438625091714448 0.19628392886983614 0.15100860197180443 -0.5384051999231825
P 4.911005475699112 2.6520960982359614 7.6251619235919375 0.863251743056481 0.5736953905840442 1.1596078920595707
P 1.0003160080126368 5.07507488253322 4.7565510787908805 -0.09932942842995797 -0.6621117716459242 0.4218205839572026
P 6.933196226650481 3.6910041002779392 0.16098985306061225 0.19237713761626224 -0.6904733535077529 -0.18573546393002852
P 8.193006921219666 4.798100894081849 7.587814203099926 -0.2580168871032589 -0.4482037019364216 0.677035482835292
P 6.54131975657792 4.367279312769952 4.030292125223881 1.1147066606715061 0.7382238814191544 -0.6724262661980549
P 8.081514808442389 6.940007671780148 10.838180992883883 -0.13949494490525008 -1.1083712053717816 0.3677232878921667
P 4.776904568923909 9.267821367983382 12.000474652889306 0.5793389620230667 -3.5102764953713543 3.1065652194203532
