# total energy = -340869.5331051242 ev
CRYSTAL
PRIMVEC
9.21586183574856 0.00000000000000 0.00000000000000
0.00000000000000 9.21586183574856 0.00000000000000
0.00000000000000 0.00000000000000 13.48834535020915
PRIMCOORD
 96 1
Ni 5.609907078461022 2.3242219291429973 2.7751061274274225 -0.501286183583698 -0.26488327520578897 0.33267478092846575
Ni 0.31317894721328016 8.00696196387654 9.704486854876563 0.8135165806148827 1.1067897198172745 -0.3520184755624002
Ni 5.279315681851146 2.7219140159490296 6.766469172607153 -0.6413819952977405 0.41002076310879704 -0.7148859780241623
Ni 5.391011927583519 3.770485562416334 0.7345769954794928 -0.1006365772771557 0.9751566941586044 -0.6531067399338365
Ni 3.35124679058371 4.863818549933319 9.25496107463017 -1.0467300355212168 -0.3318826240444736 1.114192697149565
Ni 2.3608273324473696 6.1081534340117685 11.732095348498024 2.561269720135241 -0.7900323814500135 0.6310603016567583
Ni 7.447697386956649 3.846175435865178 2.149489188294334 0.5549836731071538 -0.001565030494274724 -0.10449631734287809
Ni 8.591560945047117 6.079740931900142 2.093067838820511 -0.48712377604038687 -0.36045992146153405 -0.499644791325533
Ni 1.5579875265912873 5.128599477007315 2.0491625513375404 2.155133893903147 -1.1373976745111187 3.5172333863051617
Ni 6.265901341454097 1.0157815099726022 4.947430378236251 1.2094566972608976 0.4368057445121251 -0.6031671747909161
Ni 4.695831819965522 4.948798012136142 5.6827879572152105 -0.5732924987186707 0.46982256575777803 0.39727066253198035
Ni 2.15241983236553 1.7034599060372868 3.668708348802917 -0.6064946965022523 0.17014789390441662 -0.5771517245637608
Ni 8.152968863310369 4.11211756153342 10.163859783519412 -0.039742312894944454 2.9505002859715637 -0.35347063462789446
Ni 4.257884848558911 0.7488265610860436 10.459861285813501 -0.8116841553918344 0.4439528970798677 -0.32303520095617266
Ni 3.92610460576921 2.817491719289826 4.660412498082417 0.7384766208599088 0.628054424950899 0.32322726236232074
Ni 0.025075438532443487 2.3464690196708813 5.02826638894722 -0.021670285884582034 -1.7325836308687708 -0.6089490715800158
Ni 6.454909452322517 0.4995614590380404 11.245287720686802 -1.6495321136632302 0.21670671550056225 0.06288532667031105
Ni 1.589726954834051 4.819517901976592 7.85120191783722 -0.3426172368531583 0.8029562886005333 -1.497466531181821
Ni 1.636294704808117 0.9258439140895797 10.07549717842811 -0.406109600979849 -0.36874273029561655 9.204549317403503e-05
Ni 5.448758517992682 8.15088607853021 8.821418363606027 -1.0873622072202822 -2.041021393626743 1.7515275189611255
Ni 1.2480212288220918 1.662117549737334 1.0692215281350044 0.6036816525334894 -0.4364519607171322 0.8060048456188699
Ni 5.521287350823852 0.04658433852541267 6.883709680833966 -0.19622813593123625 -0.4110854569278856 -1.7740534679777833
Ni 8.924483954707346 6.090763102683634 6.290195274900889 0.5963694351427923 -1.3574208559794234 -1.1831735951946525
Ni 0.48878995969711647 8.272701340583883 7.106037740253986 0.29810475626308014 0.630835587240462 0.39310856073449074
P 6.20551901455323 3.20113883262258 4.669098447884625 0.8865189411145378 1.8390059615897685 0.7267197374342967
P 0.17341579418899714 2.179975259324259 12.14665983519571 -0.8224640196161577 -0.37056872776076183 0.9313157857142541
P 7.394752260576081 8.001109891596007 10.229750431053466 -0.8592665331564879 -0.793318508400453 0.28894031615499266
P 2.708007280403638 0.2115298340797048 2.1198417606935878 0.004829560178159424 -0.2201008287837758 1.6462099912685326
P 0.05463255068697057 1.0844396808229473 8.433224144031989 1.3547492226845312 0.029857706791380834 -0.9510790843841104
P 8.3276186614023 8.49742091615634 1.5048405728360046 1.0621903359403448 -0.8093611636856126 -1.0682242008392504
P 1.3306598621127015 7.883810401853298 12.06413824335071 -1.8776023338057277 0.6902589235041016 -1.8166070250692778
P 8.39829510599979 0.17093672734889745 5.039974219853029 -0.2430322407689685 0.5332352256864686 1.681834682450678
Ni 0.9671033276328005 4.3191150347508165 11.757628815364866 -1.3281287918835256 -1.6739277688987755 0.47397181203946115
Ni 1.0806519615988546 5.722395888313279 9.955707562811067 -0.44307435112965626 0.199648731577011 -1.7808324385728298
Ni 6.851670737080781 8.13890545811337 13.244610891090293 0.5563126763312225 0.47883325389682047 -0.3858233399269871
Ni 2.303099173761925 1.7583127158226899 12.349375618993363 -0.055125994439866356 -1.6540605976612028 0.6027938506118973
Ni 6.83691614224435 4.530241214081093 6.551546058190925 2.183515273259317 0.3075088231857995 -0.3314432225142098
Ni 4.597240529796798 5.278790377725177 11.182822609005775 -3.8000326225594234 -3.4983239509951685 -0.9718448561765519
Ni 9.135822098860382 0.563354576412963 3.119557258687209 0.42917933831511895 0.8688675465813618 -0.6472546520284337
Ni 8.194172981682435 1.5327360650973347 0.6030343912335331 -1.3314797106336294 -0.6151284609178502 -0.43490775615846394
Ni 6.374666943115276 6.3902878289664615 1.2041638638207888 -0.40538814943279217 -1.093380388389904 -0.945459424204488
Ni 8.17469986557414 1.937220242093529 10.174596262585268 1.2049181859605957 -2.9230172500599467 2.619739177126043
Ni 4.603092602077331 2.770380233466072 12.118374511977738 0.1393566195551729 -0.004463435087992313 -0.5881799573534645
Ni 6.6831863505725915 9.149277257174678 2.600782570845303 1.8468072028017422 0.16774905465493692 -0.07465120895698757
Ni 1.1502593662206875 7.68951238627775 2.1744429774502376 -0.9674148454296564 1.1582796601664502 -0.3996980410265504
Ni 2.4306098384445254 3.7798396622033272 13.532587220877474 1.7317158835518367 0.5243811177299484 0.5681320375636537
Ni 0.7344866800332736 2.8095199987816986 7.058842390087314 0.27103309685726873 -0.0730021033893388 1.5132027109701554
Ni 3.3016285903342792 6.813756681392415 1.7422761946016585 1.4538289969975282 -0.08034003181164874 -0.9635633328940503
Ni 1.9167794604900301 4.2146163771304055 5.170257937369035 -0.46938342133783034 -0.31624491750721667 0.12298434884473657
Ni 8.070339445881617 6.671362399807357 8.321864277257474 0.2982986174414411 0.03466309859982417 0.13388299803511136
Ni 4.701665460522337 9.266272623476038 3.4374510408276087 -3.4906504936103104 -0.8040317810528992 0.14420340612451293
Ni 7.639027895013563 2.1748143766831594 6.825709654223677 0.2251957268081799 -0.7714939563261939 -0.2946710479911828
Ni 0.8223295105157211 3.1287482377192966 9.55464523532316 1.873260254786948 0.49596579981204914 -0.891820041612477
Ni 8.346879812687833 7.441660997438934 3.9664230798166162 0.3273523402742879 0.527073319850131 0.46758313490429787
Ni 7.449310162781992 3.39241404550834 12.501241041811026 0.6490281989890887 -0.1956270120121276 0.8158650262424013
Ni 2.3113381542639666 8.636184148168912 0.24450418781158867 1.3902733837330703 0.4791356156285878 -0.9954655809192855
P 3.2937674601684614 3.782438535247595 6.8612377232767185 -0.8211321881786117 0.24663847006298814 -0.19655363759145503
P 4.819499470252875 1.3607588669445443 8.24769133467064 -0.3696505868218666 -0.7123917508473989 3.509954079034929
P 2.6937042627983043 2.9637382311319906 10.730828820953516 1.1929589567161905 0.9093210266107179 -1.2110389541463529
P 3.456298399915667 3.611862148097389 2.6198142471705443 -0.4361881655327843 0.3586280104591178 -0.17546184991816233
P 8.25343097343649 5.62117807751471 13.485215847749293 -0.22308767932624163 -0.8110213249968549 -0.7650410016119986
P 6.1616054327945875 3.835079538186813 10.819838379547324 -1.1910159740572068 -0.7801009812689146 -0.3043587075925919
P 5.855528228729935 1.5841974377185868 0.7595390789110693 1.9763170114698225 -0.11266856874102531 -0.7659817682587131
P 8.621844267116142 4.346182021031013 7.914326885227357 -0.6621557375099821 0.5649626386967367 0.12061764838477292
Ni 4.897014084349821 8.755345242007161 1.0742358785725443 -1.0004344948887867 0.04095535936643914 0.98852848747982
Ni 8.524755162430452 9.151885346080805 11.820066279460313 2.8043554398499633 -0.14033980940404864 0.3205831398712543
Ni 6.360142744825324 5.6658842233932365 12.230894655760316 3.6508153081600865 -0.5248644851242703 2.831555911524156
Ni 5.116065904878929 7.268024944151504 11.35045637146437 0.4218218695087832 4.64485649792802 -1.0549956179641187
Ni 7.401249443186751 7.853766692192609 6.314785037513357 -0.9096043621790916 0.19899849958752178 0.015099574645599802
Ni 3.753215037292368 1.9711346137350416 1.0032037017072934 -0.7068065434501376 -0.35588772870981933 0.7653253656216368
Ni 1.7388395997143977 0.952901684507917 6.241906923517728 1.103295333510771 -0.7889545750048026 -0.8980539383373307
Ni 6.5610485333538495 2.6061443592749316 8.906340687465322 -2.1190343199671116 0.9680650774191457 -0.47928782493573585
Ni 2.8345687113147506 7.942708974994848 10.227996652541677 0.36674909690435553 -0.024739668838525134 1.075415062160735
Ni 1.2082179214526096 6.293134213247758 0.2571133300072185 -0.9042783219804877 0.42905104026737073 -1.7821287887867503
Ni 6.599709073852803 5.9567183919429265 4.6085364116775045 0.04104509086676802 0.8347140406281044 -0.23306613069519214
Ni 0.3122951460609918 3.803929925103032 0.7533911774648592 -2.864307394923564 -0.41123998022787883 -0.3143253318870006
Ni 6.531345810581949 5.856984334903673 9.721091073188115 0.4275289471958896 1.4535631449306514 2.393037812306614
Ni 7.316813716833615 0.2216331834358435 8.643588171586519 0.7437080444621772 0.42226281370094376 -1.0896723434106974
Ni 5.335928721251639 4.8562707590707115 8.332762955492052 -0.7143607016483117 -1.3152676196501414 -1.5704956311543534
Ni 8.775933477400406 4.698495204042804 4.256220463907156 -0.4890906699587706 1.3422762870285012 0.3339947852914699
Ni 2.1192335138108866 6.51142111724256 6.115346414192801 -1.1936804082632475 -0.2279064408711236 0.31705275812049266
Ni 3.0652233019244735 9.117077035838959 8.134497511386162 0.07428508386682045 -1.0610418241581985 -0.3528497132144439
Ni 8.578695601891804 6.468281667880082 11.312445549226483 -0.4744317823950152 0.25823800197512947 1.7126745506496697
Ni 3.484047359973438 5.6592488028546795 3.8149493311279663 -1.7424317273074443 0.7081442884249546 0.25129422366744464
Ni 2.8444020359184177 2.2599136450901507 8.365296791027072 0.18233440866827955 0.9460597767926482 0.25976677991483005
Ni 3.9931684325179297 7.580203048766886 5.7730250686086535 1.4837491815957284 1.0323868794256672 -0.5381732864180344
Ni 5.397057532963093 4.853413841894388 2.8579511960236763 0.13408945761896263 -0.5665017010490825 0.5070904489703009
Ni 2.090507672396051 8.247800081840577 4.245106134505074 1.0580981681488422 1.6182662136704131 0.8742987448992621
P 3.8918123837914735 5.362571777886316 13.390892423207523 0.37248291406433914 0.715607172460903 -0.07350501116768632
P 0.12033888098384378 3.071738916258862 3.102143887704427 1.0726768372939655 -0.9665244724049031 -3.124801539922722
P 4.6041892896385646 -0.2508179747712627 12.542205547774754 -0.6574778724183385 0.48573152367855055 -1.8586288780270186
P 5.546345279218763 7.129298575586371 2.9388950323183964 -0.8431742555803156 0.46428440954836814 1.3730030266883968
P 4.039846772834306 0.7460286254256188 5.32329653940136 -1.7750641686304849 -1.1955884239192376 1.1336690607066218
P 1.1505266262146017 6.403982599689094 3.982272519041908 -0.1507682038262242 -1.920191629231164 0.5733989423895479
P 2.3575096221780907 6.874599801386238 8.491129247265128 -0.7701215014586995 0.09380387062603845 -1.33556005135059
P 5.389850728989272 6.620140639594442 7.103502456656544 1.0975640874539485 0.7321213680658424 -0.5128911148124781
