# total energy = -340865.5182752346 ev
CRYSTAL
PRIMVEC
9.25854661334427 0.00000000000000 0.00000000000000

0.00000000000000 9.25854661334427 0.00000000000000

0.00000000000000 0.00000000000000 13.55081883686168

PRIMCOORD
 96 1
Ni 5.413527602758638 3.489620188095475 13.020140967518765 -0.047669281051504996 -0.39149313661825474 1.272028863566164
Ni 0.9068236930840344 6.737101613470973 3.103097172594203 -0.9084838754214032 0.6212962802914591 -2.715533852929865
Ni 8.71385681070614 2.3154328227579275 10.494553030410692 -0.8258650748779066 0.9577356704686795 0.89494521750502
Ni 3.644978595866714 7.422835848964227 7.1062389306341744 -0.544188639374179 0.02554211013516246 0.1792313442629236
Ni 8.841059979023724 1.6240786496295638 3.8077799490495914 -0.5257903393726494 0.7247237900501906 0.37008870280054973
Ni 0.7465267766891258 9.659163651698467 10.913192091494613 -1.157449193845355 -0.020525373646861425 -1.3620539838760606
Ni 6.446642497344674 3.246259297257155 2.972873866456895 0.7381228370649159 0.21991185270142127 -0.5525233844921195
Ni 7.5423636823567595 8.502391612047315 3.9775853925470663 -0.364610710405114 0.21218620192238938 -2.433972602847763
Ni 5.775536765086137 4.604238066210129 8.773219832345406 -1.2641484323768228 0.2966114595470053 -0.20478990945831824
Ni 4.392180320584834 5.201377271669831 3.468169062054642 -0.036857020927349424 3.5666098798557613 0.6909816606027389
Ni 6.20086512590872 6.764081017538041 10.674006805060634 -1.2275338664775828 -1.2238445905514534 -1.9877967299746473
Ni 7.4334461430825725 6.599260375395992 8.892914319572256 2.823930276658098 1.162963438795365 -0.37901248765274076
Ni 2.697986699438489 8.747030182282085 9.866906914724158 -0.19272449365335195 -0.5647320107431694 -0.6333318712997544
Ni 2.1578893980478324 4.070131044308626 10.05566923187548 -0.9068386265084963 -0.8443793316320104 1.5656347035176261
Ni 3.7641083117661496 2.1786840931523734 11.049364013662496 -0.36241036031968554 1.1601563083638728 -0.44748662126473904
Ni 3.429208173154633 5.545785937383916 8.896573297090207 0.44284423739672124 1.5762798419362982 -0.567010522364701
Ni 7.818897944771024 5.975039921859358 3.906551973232257 0.34659061967860955 -1.1137509816264561 0.22153756123030233
Ni 6.3319846593328135 0.7065891111490772 13.147031196969682 -0.5724077821208723 0.99345497824716 0.3891526614105362
Ni 6.711872074664261 7.671187096285783 12.53266461431451 0.8788951060206928 0.47673343394499823 3.4686112544220844
Ni 4.907511010486332 1.0975451186432497 6.590751771299343 0.8840062019950131 -1.056336448262729 0.32453466831983463
Ni 4.085398387241568 5.179610429198426 6.268147908096704 0.49834792689098045 0.7218786072919116 1.78268800372433
Ni 7.667326282457379 7.050577475826075 6.189851159169467 -0.5978187659948091 0.6960624175597561 0.4336571715808144
Ni 7.11297081968605 4.635106059744653 6.672490847759913 0.19761961696212416 -0.2285754419136902 0.6643182923789398
Ni 2.7376966047383005 8.43291548022876 1.4039326379119592 0.4362961518655583 -0.6527614407792758 0.17947019974660705
P 4.606413824602635 7.933333577670459 9.093940507220232 0.992449162690465 -0.11677899136497308 -0.6358970609237694
P 9.110159628718066 3.4054414846713925 7.730945457854239 -0.6815958485124648 -0.23365259932628143 0.2965127291856119
P 6.1922176436168055 1.4788953842981698 10.756883756867754 0.7356795177307459 3.5058945642535746 0.7488327672832522
P 0.7776845627244388 7.872541962329222 0.3016073317876431 0.4203792235249857 0.4329249214004803 -0.21244639756231154
P 7.819897867776941 3.7840049278746353 4.668636811209749 0.20386148410677796 -0.13630754831620395 -0.07783989109761433
P 6.909042077757008 2.5437393172293805 0.894630187539653 0.18391460867120585 1.3195863016301532 -1.1210580568108306
P 2.188729615943303 1.487376212755765 9.500031460434526 -0.47867770215556277 1.1280637987047026 -0.36298165944212324
P 7.404503927189075 5.598781856697537 12.166331710841055 0.5919695063028838 0.7188169376474525 -0.22644451161361648
Ni 3.6640234257108997 3.0061944489198216 8.7284205041164 1.0109803887254332 -0.5742276089384304 -0.499194848272308
Ni 7.136293097944438 8.96360609852671 10.505665137741266 1.5628244877623405 -0.09736793382821295 -0.25276103802095823
Ni 5.118078130149104 9.275582076372936 2.8031628601322014 -0.3987840138527132 -0.8070911367045133 -1.488738921500836
Ni 2.4243688791248164 9.281692716964653 12.314455490493554 0.655443358486813 -1.0512346082597896 1.1945679530745235
Ni 8.653592932506916 4.193565984261317 1.9439188367464024 -1.962056902006382 -1.3424403234101914 -0.7659108058114615
Ni 2.8160701996002517 0.3921929492866777 7.544038553391672 -0.24901956870065503 1.7919982253816622 0.900779821908926
Ni 3.102853672825169 2.244790114099134 5.490344835978972 1.5507032790187745 -0.2408755994372819 1.1773852706476498
Ni 5.675063020084142 6.9959890865400665 4.598686641818017 -0.9229285900918233 0.4094903445266238 0.46863985830358645
Ni 5.8300696030940395 6.559319006437402 7.572116021055977 -2.6197990838297014 1.0354601190343522 -1.5165376888806592
Ni 8.165158319755324 4.542502079141081 9.405988701727996 0.41121195520342085 -1.4241137293212829 -0.5044843788060215
Ni 6.675411919133681 9.150082480583952 8.14055928795512 1.1045024664449945 -1.181436815009204 -1.4948316646621354
Ni 1.8649212158603883 2.3835757239019273 3.412801103165872 -0.08130445260744708 -1.9377046984142625 0.7744437829831372
Ni 7.918723591528444 3.681614663777965 12.740343993370379 0.5681888589435182 -1.5593558124874498 1.0606918970179475
Ni 3.9536955653973567 1.606302240635477 13.288217547841313 -0.3670159774124969 -0.3227320678934571 1.6773712473626854
Ni 0.6193245342261775 6.1347961391473635 9.250601592463068 -0.669073290565422 0.13103575839430334 -4.282320667774064
Ni 8.633298198905333 0.10159495496511206 5.775060875803692 1.2090548338367886 -0.4948633107764897 1.0229997817838126
Ni 8.9209241998482 1.1000912188897987 8.437931760641778 0.5122604232070145 -0.13238378778176554 -0.5070187151921011
Ni 1.594256871832713 9.085726324897548 3.7640518346334075 -1.1740718900037006 -0.4763112588059151 -1.177729798471262
Ni 5.848957037650257 1.2972427048898438 4.419693942776359 0.443411679864417 0.6472988750028078 0.11050292854827419
Ni 4.561676528634182 6.713334924987733 1.2689689560428945 -1.180075158774987 -1.1847967326203723 1.6424968040830035
Ni 0.016395033878504748 5.403519114153113 6.273148448980926 0.5476925387623794 -0.5632114603335849 -0.501450219965388
Ni 7.000840564828035 2.6236127966002076 8.415044634061891 -0.04219437397986281 -0.9222888996252955 0.2584907414158839
Ni 2.3242562174305137 6.504554704770722 4.879636304987116 0.6824021464638441 0.21015245932181226 0.389887996914664
Ni 1.5823781568642683 1.1608458000456312 0.7572278045617121 0.1189528590878403 1.525197421438186 -0.3161258754308491
P 3.6910306054170205 7.906780066735542 3.486042685785415 -0.8855442359060942 -1.8737299953345148 0.017430279661305465
P 2.820717989868497 4.317176836594679 4.9211831058829825 -1.2541357853358273 -0.708068955102329 -1.8597863886702293
P 8.934080594213095 8.25667905043582 9.181587462107432 -0.7730463884149784 0.42252609466465946 0.38613187230634144
P 5.022548448898588 4.417326532474386 1.5874916520139737 -0.3059376220439376 -0.2644065926796866 -1.03935868275781
P 6.401923718468924 8.860697355834379 5.816946539496009 -0.7700351123924802 0.3116786382927729 0.5670467749192749
P 0.07349156337102278 7.399495053613137 4.800837742847649 -0.29033051163429996 0.5526473116644933 1.5009583463851632
P 5.128790268277311 3.1147879390717206 7.134898760863964 0.522490585575455 0.734528177735122 1.2815871966785606
P 1.490116742475687 3.3171242110283745 1.6675095647078777 -1.3373305129874515 -0.3528188599765085 -1.3507331595466028
Ni 2.026029180915652 3.904560459912138 7.460524613595597 -0.2192726764555256 2.010807331937208 0.911074776077031
Ni 7.453490895932676 2.0316028258190064 6.0218613166114405 -0.20080598510990577 1.1651105670453548 0.658668293182014
Ni 6.688846069889108 5.891064906455 1.8457569507682736 -2.0572031455929283 -0.7461505924653988 1.657079586993185
Ni 9.272619341540588 9.1960511632171 1.9581205209943346 0.31803646219000065 -1.6448671040873928 -0.053219007225140606
Ni 4.04504038369718 3.0858457231782226 3.4032610970057116 0.6562103185598247 -2.411844660600472 -1.2402497713823544
Ni 2.208542905134629 5.177582807547538 2.135893869481555 1.78899054890359 0.4263195002688206 -0.69150359454448
Ni 5.526611487890814 3.7124085889416802 5.186020120837283 0.4075519898533304 -0.4796014995214128 -1.2058728365643812
Ni 3.217650389032296 9.034137704629291 5.321284705462759 1.544477609824037 -0.3214436880993367 0.30086252151387544
Ni 5.035927048375909 1.1175065445761931 9.042189862390831 -1.4816316210320934 -0.6128175533964866 0.022197104922329517
Ni 4.862218201736815 5.758454747068382 12.366571847903822 0.6450681859000762 -1.1704924001825583 2.229921628437998
Ni 2.2219215046119496 6.33306790925589 12.716358803193254 -0.36664805255011695 0.6963208134274652 1.4993737755068628
Ni 0.9454457191875936 3.161793578896189 5.723526880958907 -2.017561877052222 -1.1129066313482896 -0.7209424686308874
Ni 3.9163002966853164 7.308178010952367 11.175576517520513 -1.7597373084654275 -1.0721731581846696 -0.7571289458537734
Ni 8.523436287903335 6.182820219070451 0.8489374095877688 2.338980368340578 1.8960361150308829 -2.2041229222073393
Ni 0.5365272059176773 4.287845761754435 3.7717345763955397 0.5064921532646697 1.4541791812480958 0.9638129870110111
Ni 8.660379446982263 7.390505005106231 11.435115792252722 2.113440370819102 -0.35854856337143415 -0.7352915382637077
Ni 0.7775799411506714 4.422826109006932 0.05363383315721151 -0.06334503991554896 0.04008272695349871 -0.9192254302086235
Ni 8.641649407714015 0.3974666172882569 12.903306445259764 0.9468660747440273 -0.5508377692595804 0.3906647271796885
Ni 0.3005379696840926 5.012715872673733 11.209426688834721 -0.25684163584823505 -0.5191977737567961 1.70315298431248
Ni 7.215518479070689 0.8785017997960595 2.039154096222953 -0.5631669802488947 -0.11459509633977683 0.4948286008838123
Ni 6.369907665186866 3.9574823108549513 10.937312456448465 2.317628127917047 -1.3433600070109832 -0.17547779075776232
Ni 4.74589382538176 0.07077232830770853 11.373026128713063 0.2685494112034665 -0.013428614701080099 0.8231001105382598
Ni 0.8805951571260403 8.368587100181408 7.336941536901288 0.09387637573518672 -1.0123952667950886 0.40844313420903205
Ni 2.9194789037955413 4.080945026446695 12.845064633583616 1.0393617680816034 -1.1478044716667393 -0.7058693763478489
P 4.441269133338297 4.42247428424559 10.719605145839736 -3.4314336169305224 0.19273786338979063 -0.7937813069694846
P 1.7292835118169647 6.702956094528165 10.721583697194964 2.4140784350269975 0.9836392777083188 2.2018289839668403
P 1.3272959463454719 1.0302725208562522 5.56414193137958 0.049766272789849776 -0.769946666443732 0.521552904252534
P 4.8681158957624575 8.077998364406191 13.378099515817665 -2.098638272809263 1.8437396196200118 -1.440961397006241
P 1.732005524444184 6.298848321942273 7.05615482414797 1.8436246913087022 0.04937058001332788 1.4855728650680284
P 0.784467373781245 2.2076355675922223 12.473203452083927 -0.6251099976105944 0.5184133301822879 -0.28349549099033755
P 3.388239105551073 1.2756147406137048 2.151327866248817 0.35112630276543394 -0.08953044006166516 -0.8160426894708462
P 7.237470492469116 8.01741969563103 1.5631277872910883 0.19999737316568136 0.020335883343874653 0.03457388132012756
