# total energy = -381167.1329157579 ev
CRYSTAL
PRIMVEC
9.30930666282572 0.00000000000000 0.00000000000000

0.00000000000000 9.30930666282572 0.00000000000000

0.00000000000000 0.00000000000000 13.62511130018008

PRIMCOORD
 96 1
Ni 4.338741988192895 8.079063128467547 12.126062618469033 1.487906912517844 -1.9441795075053292 -1.949907925348674
Ni 6.975612396607228 4.72066560143912 2.7441927497420053 -0.48511831557458385 0.3708775172504322 1.4216837797235515
Ni 8.707208592412096 8.167315355191436 6.578230679724398 1.429440540850835 -0.19526320091480565 0.033002423067949614
Ni 1.3419272394537622 6.235718016038889 8.822095676296291 0.28686260769035754 -1.3095849674430673 -0.6238956655875191
Ni 4.8856078960692715 6.318831505510499 3.6427139913319007 -0.12816974970041797 -0.6621984178224596 -0.7992598135855525
Ni 6.291015297340564 6.50872274187272 10.726967858014353 -0.6064520161897748 0.9239475182746409 -0.6534384122416423
Ni 5.181169071834748 3.0271444696955077 12.693739481286471 -0.20878283266779527 -1.1656026761904246 2.390843889979089
Ni 3.4515743769524145 5.034100645908168 12.591305456863093 -0.8446210153291713 -0.4095019144908496 1.082949165754251
Ni 7.088748399916869 1.4038899842928123 0.31964528291287714 0.5533376528632987 0.9948649712208093 -0.042109013354908124
Ni 0.355815662840408 1.5298728307331468 6.147881915320756 -0.6182053000709611 0.6084675039579069 -2.4945807034481233
Ni 8.016374257712416 5.861372178378449 12.153885343153599 0.7743141993838084 -0.9702821396751226 -0.744959143260459
Ni 7.328984366460819 4.776782101723043 5.250395868626608 -0.757919817186185 1.089651260364775 -0.7795643920391542
Ni 2.4347560524647203 4.291404164048279 10.088604499127596 -1.1799877412675033 1.9105335373161096 -0.2402917019093539
Ni 2.987710246868251 1.116902679921082 6.105303008718465 1.0994505058433839 -0.16303982210472565 1.3331275306496975
Ni 3.9732586104313103 4.047267598032039 3.8860862632749305 0.7350333995063147 0.0034743317018456287 -0.05093226807349292
Ni 5.885604303501053 6.339488856892388 8.238218758104919 -0.9991440582121374 1.5825584758561584 0.4569277120729809
Ni 0.05934403688784451 6.765296541528529 0.07617712511169825 1.185485274046965 1.133055852602655 0.6423302181436228
Ni 3.742732250688312 7.8074454893195675 5.388499432281553 0.981292117632381 0.45620446075371107 -0.6184500690919156
Ni 8.91348420841926 1.1734380990027453 10.148541538846908 1.591285571316511 -0.7035376428908787 -1.3023321425353958
Ni 6.862373990924805 4.5593818643092305 0.5374150997993627 -0.28822426392457456 0.039096708891145575 -1.4831508858900972
Ni 1.7528214148903603 0.033329179548192214 4.46757813711117 -0.12879144244481688 -0.47778604357922877 -1.3310752761063591
Ni 1.8518352000628566 8.273422832005663 6.660362968278636 -0.949614841133758 0.5749063801730099 0.6352715115246285
Ni 5.4470894153334655 6.1530699918981 12.965479072351128 0.7222588734494657 -0.21938940453904796 0.4952417771618309
Ni 3.0145862150699245 1.104111692630088 2.280352823855045 -0.9789251600621011 -0.11406750597108098 -0.3167192860404739
P 3.5837944588257664 4.855436433325378 8.24595851562583 -0.023770105836404223 1.4221365509902542 -1.050761782388429
Ni 5.01854479455209 5.803738261116045 5.824189876821711 -0.05229726674181961 -0.4436826741376165 0.5125758975649044
P 8.830798947052005 6.669755127723966 9.925988600220892 -1.3234195593333142 -0.7375073149681041 -0.32949252654574224
Ni 1.3741653682665071 6.234749848150779 11.14008137214831 -0.7926718759553898 -0.10023497096336285 1.6900763536341794
P 2.986025262370675 7.672441924767899 2.9151879555341687 0.824975730294418 0.40590494116821063 -0.060780107401850164
P 6.512967785689819 4.329786435227876 11.8182848396308 1.2106882556751537 1.4190579120649305 -0.38150851460171714
P 6.787071009704391 2.5162031760519876 8.629927383535689 1.2878056667844466 1.1648043486588455 0.2414193877558939
Ni 2.3445767992712288 6.036964319777813 6.711647938428625 1.0078382435520254 -1.1821505532467769 -0.48997435811530454
Ni 9.076555332419506 2.2872221612073185 1.4941977059176108 -1.5021443962734646 2.4686256741452586 0.3609260624646752
Ni 8.341073563187361 2.7391983067422827 4.123353491938896 0.44509318133189796 0.46385786353391084 0.3256299582665424
Ni 0.04151485285603128 7.154230062656937 2.5127838677317675 0.8215844452246818 1.1198252128449941 -0.8866721788629504
Ni 1.3894233218108587 1.1072675475730627 11.793487639596577 -3.7260923236265313 -0.832749460702566 -1.9073782795165795
Ni 0.5863895000471506 0.4471893000727891 2.2173371964376747 0.8567391387489438 -0.8945742073188465 3.4905021409579047
Ni 7.101744191953426 4.726707341433192 9.353448555627027 0.9424394064312415 -1.020329691150817 1.2696012279612778
Ni 7.609371372441491 1.0163994056899543 7.288467471274071 0.4143628421275767 -1.3104108057784722 -0.1899415315915761
Ni 3.7158097359535565 6.286965748962412 10.675261176274638 0.834747207858885 0.7124110341211086 -1.1704474058772358
Ni 5.3002444127656805 1.504560826043036 7.565383967748133 -1.1184419593442223 -0.275236593415655 -0.7620767767773521
Ni 4.30140235935434 4.926903980219817 1.7074441307191663 0.7014239389819856 0.3991264847937965 -1.1258909594230997
Ni 5.111544767650364 0.5121561581569658 1.079297735843957 -0.2533287375989701 0.07711304023391881 0.35202875997504535
Ni 1.1238567319635655 4.817072780759013 13.086647145409438 0.013305201749338375 -1.2455894384277126 0.3189772288367152
Ni 2.831723505203118 2.7323559663791968 11.771959868046052 1.7555721213441442 1.3843490478288352 0.7692691807607333
Ni 2.007449569463332 8.387629405576195 1.0719871373580636 0.005066358779313856 -0.44143964373971073 -0.5784673580513908
Ni 1.2885383660084568 0.992986499549598 7.926680950324303 -0.29415888424145464 -0.9892658798664768 2.266345161372355
Ni 4.900633116948212 1.4744638377520731 3.5238900016796117 0.4904980918292585 0.4979445208049747 0.993061085242851
Ni 2.382167779388429 8.432881945038728 10.628690438995216 1.4032967925759317 0.19995932083889434 -1.0668067516664337
Ni 7.268464564147318 7.992765856133114 13.193099997499134 -0.5516432958800113 -0.0037011030006710455 0.021001541952331573
Ni 3.3071032475718227 0.5191623423165014 12.750651927286102 1.029269416842608 1.0536529878932952 1.6552103949949297
Ni 4.265272940375921 7.79644188889893 0.7360226399465605 0.37706744811122805 -1.8286906957066893 1.6680312009086822
Ni 0.6983972153948794 8.408566036156579 9.013392617957596 -0.199802740656372 0.30119676492484254 -0.4925842849343258
Ni 1.8439595266653452 3.6596187612167017 2.822483087455636 -0.5564908537802996 -0.6653320783554348 -0.24104889179035258
Ni 7.201977496292676 2.3969602676019583 10.72266323463491 -1.1403582998013393 1.3488966205584962 1.1220600157127838
Ni 7.051185347719519 9.095108780506079 10.802806124365212 -0.45706783719527083 0.685712956004632 0.8675246594002222
P 2.885810576644657 2.164143818431315 4.25227435554738 -0.5032358511109011 0.15975575203681522 -0.45780985756761805
Ni 6.342849516580924 7.9740634591406785 6.57806776685861 -0.1697051499400432 -0.3405881222382715 -0.5983856942418726
P 4.539255143404479 8.839484530125148 7.265522823256521 -0.9054885402385051 -0.150885703240695 -0.17408862371971953
Ni 9.31237868762726 5.237276262812054 3.701451992359015 -0.5479293373635337 -1.8115422089518607 0.8116666718903376
P 3.235402968011972 3.15027866831121 0.37124583855716364 0.5573645146345046 0.8827615309546345 0.5125686984760527
P 6.6854133814528245 7.00647274804074 1.4789108935227482 -0.8865063427090475 -1.574921785246507 0.44649906054048916
P 0.0189444389644632 6.361868429998319 5.498795166142518 0.21152902795436473 -0.014900828371232402 0.6294207091708064
Ni 3.9551333904490944 2.8736526222035814 8.968906234429596 0.7425713597545728 -0.4005207940381618 -0.8675439426739319
Ni 9.096104876314037 4.751460787726317 1.517129320905897 0.3606828361056175 0.04582502875391463 -0.7619181397123007
Ni 8.308109308458533 5.604872853175572 7.378910177844808 0.15755668750296734 0.4040159516756139 0.15636858073213714
Ni 7.690436814457485 8.28002313039672 8.612105646949168 -0.9251119708963874 -0.8303693905061635 1.3621313740812153
Ni 5.7820289580864985 4.2672092761521405 7.410752661126354 -0.34423317519002655 -1.586944777849312 0.23811860551743508
Ni 2.1905915585286313 5.781489018302745 1.5689998464420603 -0.9896615726429987 0.8211743542704566 0.23227551647309672
Ni 5.282398471981958 8.487117965386132 3.2792237361168968 -0.24825440839985635 0.0799152855694043 -0.9956830962467303
Ni 5.6036998805419 2.780112709321554 5.544234822668042 1.2070907681318823 -0.13749745485924708 -1.138338184047517
Ni 3.541334711348166 3.453641043021265 6.132581138965969 -0.23417993258466122 1.2417021875581649 0.15231523659836993
Ni 3.4028773940417967 7.619592991106346 8.614735526068314 -0.39676158410604573 -1.3851774572674016 -0.8751402669639509
Ni 4.7158619992250355 4.088172691304694 10.671963819871094 1.1767730909849476 1.075755219108973 0.07042508669078193
Ni 9.093935807872406 8.283346552858792 11.39963973550535 -0.03320939687243313 -0.40138828424477974 -0.19514441594875423
Ni 0.7904681196928323 4.178510202710664 6.217574177443439 -1.5826440935914292 0.9776707188297098 -1.7644768800329418
Ni 7.652631720288106 8.869860797614603 1.9388260157402162 -0.7709036310403626 0.5958223043900707 1.021821702315311
Ni 7.583454262821311 7.000915091990722 4.082791912080388 -1.1318610609636055 -0.28921233886945674 0.23039218340745482
Ni 1.6711694865575315 1.6807394537592357 0.3031380204205989 0.02847573884218967 1.0069848944127948 1.4875096770794252
Ni 2.0156231406725693 6.291089771793496 4.207243377582318 0.4550958010705646 -0.1044307542122653 0.44628154521304425
Ni 5.107625549564841 2.7702913908412055 1.6955226326661483 0.7708010440242274 0.8677789415028733 -0.778882278370465
Ni 4.927034310512448 1.447634416083482 10.962437459570681 -0.4187622567468531 -0.22296400926418375 -0.2950806247247757
Ni 6.307576553811219 0.3955273030048341 4.947073523935004 0.8781080913430231 0.31345887012164725 0.7614738530860304
Ni 0.11065879681900621 3.770287798272985 11.084859496230226 -0.278621707837804 -0.6500712955416225 0.6219953632410127
Ni 7.916187499906247 3.158982869997585 6.584839356491411 0.09653926727933052 -0.2896635674742624 0.5805365818755938
Ni 1.9129414886931941 3.1264189154532644 7.690775673218323 1.1182640390054612 0.2022681714777291 1.3132405619177834
Ni 3.3275092476750676 0.692482081970791 8.98878532777835 -0.7429269433217786 0.09617108530663439 -0.22291978628980963
Ni 8.564133859023972 -0.22496218717835018 4.524995147529411 0.49172810758161767 1.3096477023602024 -1.2111842214749657
P 1.6067770126915892 8.30419009037301 12.478394738773568 -0.16964421479512073 -0.6808952229010145 2.8225639924381904
Ni 5.1149054273389005 8.804155711515742 9.693912240926256 0.43910636762084376 -1.7845942196081073 -0.7081491735209611
P 1.7890718548547924 2.308577710585441 9.870466964629761 -1.4295269299170543 -1.575711628137654 -0.9805881495868211
Ni 9.224889824045922 0.012733269589971875 13.814772700553268 -0.4349764046128703 -0.10083660910310374 -2.4287851451095523
P 7.090591642626926 1.8037898686153901 2.742544071540233 -0.7342103893843872 -0.643502384074853 -0.6935810458987991
P 8.77209445952871 2.3466713932599292 12.942097817853268 1.4551515724636939 0.06518260734492 -0.86648079151674
P 5.848776686526401 0.27023986176874804 12.59615653654092 -0.8673994466762673 0.45541487497288025 -0.4635989534455693
Ni 9.104995264132741 3.25708434312167 8.657218546812453 -0.5038801695631192 -0.1315713191827992 0.3290546676773752
