# total energy = -340894.047000289 ev
CRYSTAL
PRIMVEC
9.00404780547853 0.00000000000000 0.00000000000000

0.00000000000000 9.00404780547853 0.00000000000000

0.00000000000000 0.00000000000000 13.17833410642144

PRIMCOORD
 96 1
Ni 6.241794859650788 2.1743334230900553 11.505554765503971 0.35974309790016756 -1.2575772069172084 -0.8394250729505286
Ni 4.591001782445228 0.4052865875451803 6.2536072696562215 0.21610276336797624 -0.3268350343182371 -1.4179821625022482
Ni 2.8230210261324924 1.3937905474509622 4.704190764027125 0.13184385611789554 0.196309639901449 0.5768123389464711
Ni 3.299614267993567 4.02641198369484 4.7238132848936845 -0.1698236777957785 1.0798568999821725 0.2544404826059102
Ni 4.9901602152151225 4.56243193950961 2.6810262955686768 -0.1552537504014036 -0.7615124196334498 -0.3234859153403461
Ni 7.046936793247685 5.979804087543108 2.716357277823663 1.3268298705664439 -0.29502457467585963 -0.03949214455735134
Ni 4.783508319464929 4.4265158414594525 11.21383983156236 1.4967895597194545 1.0899456516767423 0.18055931904572775
Ni 5.6038580894054295 7.80757171971229 12.483677058562996 -0.8737385015204179 -0.2729169441435429 -0.4941038069026459
Ni 1.7900046566658785 6.6400889038540845 0.5600382527043894 0.2563520978063263 -0.46279445526640295 -1.069464501004255
Ni 2.7096960834323074 1.6262570475807392 0.39271063430591857 0.13431545758683966 0.006553741958117746 0.45407147357110833
Ni 0.41285358912195097 9.05429015417542 4.5224350598045016 1.3220157370072523 0.28073978262207133 1.5017620732333814
Ni 8.59687553363577 2.4245018807399785 1.3692293064929482 0.07561871507657944 -0.3888790960341754 0.030301736307334914
Ni 6.795750878222493 0.8853337820536242 4.750328404174115 -0.3453665174635213 -1.032590253685725 0.771807888022187
Ni 0.6942868011448167 7.463815191632864 2.6441268082272162 0.5196644289805696 -0.7552908642037701 -0.3848177814806082
Ni 7.592320958533946 3.792135670003746 3.8642697962912074 0.5982522539878019 -0.2969534162674563 -0.638085841044972
Ni 7.455531467869621 3.8245052210133728 12.662177799589518 1.8192642601864668 -0.2278629892276979 -0.6960135665996916
Ni 7.883151695004308 8.933942054371618 7.155901075710328 0.10802541354205913 -0.8652800863404195 -1.2820970464354438
Ni 6.764470816968684 0.6206498993181321 0.5531996785759301 0.9163396240203961 0.28002655860513065 -1.459644575238041
Ni 1.986698075805044 6.444647047326974 9.418159923713903 0.7235742498267796 0.7651710994319596 -1.4732899339356176
Ni 8.999662597575865 4.939089257405219 1.4098708760039784 0.061555037894661734 0.0045829913849921074 -0.11409527388522285
Ni 6.417851001762399 2.038768482895078 6.903496913049086 -1.1060014195880241 -0.4868643517314132 -0.12152601913165521
Ni 3.3285172606892286 4.239096591316091 0.48601417683224907 2.144857194567487 0.4645916563761418 -1.386990084996108
Ni 6.0721586034556925 5.6567568688717875 4.960140720620938 -0.32365046594266844 -0.31729958402397607 0.14862081846591824
Ni 5.233143442905191 2.903787332824107 9.106175978290297 -0.1475754079205394 0.11877365319749866 1.0941447773597546
P 0.2327492272234354 5.643818052515505 12.348916179815907 -0.33555415935878985 -0.9668345474461543 0.4118125649018972
P 3.9863889922517823 5.985809787271458 12.513974778227055 0.984133186625602 1.4120727389963488 1.0127014851815979
P 2.3493090794934157 8.548352721287818 1.4315625270018342 0.34507444014439925 0.3301077915322379 0.20848227070824096
P 6.414510500114395 7.838365562397387 5.94046360290576 -0.7177270470173833 -0.2690494907683366 -1.1485179527939964
P 4.672596461513167 0.9741208943194738 12.68122045979265 0.5237208584381303 0.29003483477075215 -0.5574948695647818
P 4.047886637146289 6.027012308946022 8.205727101583026 -1.1121545836736135 0.005385689791945564 -0.3854633854844071
P 4.798473046524178 0.9512055932570258 3.822427987239264 -0.13149418608796065 0.02354282031694655 -0.38381839368181636
P 0.16394569813165147 5.476495836545577 3.629431630031824 -0.20678534262179227 0.37205096873324317 -0.3189782572779797
Ni 1.502793547318151 1.2444224023331039 2.6842290352888782 -0.31180076569293397 -0.6743998449846579 -1.3347365270080305
Ni 1.7671433798888427 6.349096094527486 4.808457634873156 1.423366309632297 -0.3259238353578774 -1.5231986458406024
Ni 6.027678608466108 5.545421820684295 9.014019551424225 0.25255149311331343 0.6871638295185456 1.1529533628575306
Ni 8.60779744333665 2.5030441876821135 10.342290345931723 -0.5251894725638567 -0.361907452541338 -0.5996522196591222
Ni 2.3856494154808576 5.064470619799949 6.9006759449457995 0.5037989227032226 0.2957455120022842 0.7314791064961531
Ni 0.8504358944866945 -0.2915996821327321 8.867792918503099 0.5832228704585052 1.6621600868398858 0.3292225607138072
Ni 1.5070794739608722 1.276719920962181 11.390442519361391 -0.8081959397329178 -1.094625573650915 0.10339254275573806
Ni 4.255042759560332 6.766109553626196 1.5919687340342132 -0.13040686656105283 0.21878133864140387 -0.5573547444424917
Ni 5.444738560770624 7.785439770788321 7.89798586337381 0.3319708128829057 0.2034681053231012 1.2537868866368407
Ni 5.316646980057702 3.016301911243105 4.660386072605196 0.7559922611461689 -0.6622791504617239 0.6319105654721956
Ni 0.7434669089652846 7.320749879813124 6.621019231508246 -1.34411334023724 -0.010410139589730458 1.65186718955431
Ni 5.177093246789772 4.313055838045736 7.21202780623008 0.4199310802439735 1.2604910381298937 -1.777525485686784
Ni 8.251768398421031 7.348581390848105 9.057442471229239 -2.23358082245714 -1.9876710030300608 0.48827383048443
Ni 4.632015219120848 0.3039721438969402 10.43492128610467 0.636324121158859 0.496383604075758 -0.07952550633015337
Ni 8.156424538715623 7.2230019394068625 4.65444250080507 -0.8916973999916836 -1.1584426681068758 0.3650362279783068
Ni 7.45697211548062 6.1881847604265 7.0515945870549945 -0.01179339309050227 -0.4852422427469579 -0.3827120479915151
Ni 2.445445295384872 5.24288582237457 2.468367799685375 -0.7264739399720779 0.7635338209388527 1.4098945003981072
Ni 2.3061976997342795 5.301096989906485 11.444895397438115 -0.8311885439733491 -0.5813019992867086 0.13320911189653833
Ni 1.1837081095770776 3.3997752931482514 3.747035296136675 -0.8937439981080673 0.24714909115081954 0.10129503679676102
Ni 3.5841601792609468 2.5324604110891933 2.617704430636743 0.6715464346962629 0.29745709537675225 -0.03943583739811918
Ni 1.101807292891802 3.37623871280356 8.180582398342558 -0.9772631989786459 -0.052456675137819334 -0.35241185434607697
Ni 3.6582274745614174 2.7002508375326975 7.2248630760393215 -1.333716056163316 -0.5336412028756358 -1.2270355866849254
Ni 4.06376977705755 6.692816606416637 5.961285462908476 -0.003915018783690031 0.8098437597489858 0.3959887104957632
Ni 0.7302660748247521 7.413536590009008 11.236058219342988 0.9416703894757009 -0.03272422970589848 0.16024374741682726
P 0.4498206068201775 5.663023685979632 8.038546249159927 -0.06283776126182726 -0.10017943513507908 -1.1756387202701881
P 8.802446943677714 1.525609803857343 8.13507774273965 -0.5959197491998833 1.2082050842419838 0.7088708821783339
P 1.6674145490174581 3.214219880851619 10.520158102414163 0.8190881611653892 0.8578344286956515 -0.4288684919429194
P 4.022990445618718 6.056995787349932 3.8503135225596576 -0.3510666531720921 0.27821830175179824 0.16029388392847232
P 6.844985010328374 3.8261529617184524 10.18579729797272 0.1120928987432134 1.242114592505235 1.2478401821351026
P 6.226947185209934 7.539269110258919 10.151006558571858 1.320895764470196 0.9437900069218649 -0.5778124980762113
P 2.333209842440505 8.284642176094508 5.694357771518854 1.401899655118089 0.8787907192323445 -1.0106867687444143
P 6.833387797059835 3.9918994693638523 1.6378821733967417 1.3013582086579008 -0.8170207371133994 0.7151798551154973
Ni 5.3941358134342945 2.9328433943284367 0.4493866117273641 -1.3358847816798607 -0.3629238096209943 -0.1804310209979796
Ni 1.4181555001719777 0.9779746266788953 6.689532830268316 -0.04966060044992092 0.391327557574668 0.9407267946155089
Ni 6.820052802610528 0.8799304531076222 9.125073673327572 -0.278931525768739 -0.21904230561227436 0.40800964621603925
Ni 2.4828391049378573 1.5909161608734277 9.066970554366481 0.8704636874238879 -0.3505560320842608 0.6786141401763216
Ni 6.3478985562008425 1.978225267042858 2.4998900698187834 -0.07214746869852735 0.23986232768141913 0.7761296553259924
Ni 4.272645672557223 6.9395725300380064 10.423020636433062 -1.5153953477460997 -1.2050819652319698 0.0275362577470558
Ni 8.12525252603264 7.337587448766671 0.0941328153074116 -0.4415864537302201 -1.252401833363856 0.039793477847854045
Ni 7.542798696905867 3.691479422232781 8.087305867958934 1.4792042425375236 0.2060011561576001 0.7745751663546789
Ni 2.859244309501541 8.48084937666496 12.348783820316646 1.2596346036668693 -0.7807622690019973 0.24129057548751343
Ni 0.021404421880413107 4.9639044125046725 9.972005192500513 0.368077843018108 -0.5945218404110922 0.8647733219073299
Ni 8.602494059318662 2.3838215938244027 5.791284542786846 0.23323248106972733 -0.5289193719199342 0.08152351059678863
Ni 3.6915604586608994 2.480777178044615 11.337860682369453 -0.677523221104988 -0.5855414912893528 0.06337717870506504
Ni 1.1217332501614274 3.4166038580542297 12.734962018111442 -1.197111031211351 0.2555450285239986 -1.2791040252453907
Ni 2.9303402691043265 8.389962520506081 7.844034510746667 1.2636709785197722 -0.8113211156254608 0.20187684957658134
Ni 5.635912498750151 7.657528271026775 3.6595042485066647 -0.3428370661734483 1.3742839502833493 0.30109109258491373
Ni 3.125710093250887 8.251156123186355 3.4451592945137377 0.19184594770314056 -0.39021298435425056 0.7672773471416849
Ni 3.1254219637286873 4.241545692254789 9.301254971700388 0.9387028222069446 0.17041863106730004 -0.3982800776331012
Ni 7.24799717545769 5.866623209604023 11.212402785570388 -0.5578044303854007 0.2963227246619929 0.8215055123576303
Ni 0.5627952920699383 0.0053889224698919925 0.23828131404967037 0.5382717596691117 0.9812095852209036 0.512889057929949
Ni 4.610099367338529 0.27594074300593313 1.5738751004448266 -0.7445786199925886 -0.31126443357348976 0.6315511252502478
Ni 6.159002642256208 5.5334374333703 0.4142150011143447 -1.4024907517348686 1.3073416799348452 -1.0284569482436416
Ni 7.829793709111944 -0.39234957199841203 11.089172490139832 -0.6102801316866134 1.491082482032348 0.7196448328653865
Ni 0.2061575735386701 4.727728244776573 5.8474508911159 -0.32593849064589675 0.276684124495459 0.0674192099849226
Ni 7.839536088581323 8.8580739495574 2.6731990770171694 -0.6294888434045804 -0.5921435699869028 -0.8750641623103769
P 8.478553344534932 1.6654516666474724 3.552430816033457 -0.0019054445528289762 1.7344553939701872 -0.2008077848821187
P 1.8131900791553885 3.4141367490203947 1.5478615066139747 -1.5834010263621117 -1.9563925046317532 1.621027578465634
P 4.606578784739152 1.0813410927680516 8.300057105532193 0.4493936084794647 -1.2716923061623517 -0.41221160011252883
P 8.413661173707009 1.4486972295251501 12.250025625773171 -0.739188816435585 0.617651227339704 1.2093643946574075
P 6.437921023793124 7.563598046789661 1.381247909187705 -0.9785811464591211 0.7817688558896407 0.7838887304461208
P 1.8062569625274574 3.010818446273741 6.0082397701699515 0.15205658362034455 0.6599736422569988 -0.5630741634247721
P 7.064845843861913 4.035812209356607 5.992162142831206 -1.0342231613034574 -0.03912653368781649 -0.028761645513724655
P 2.5789212965439012 8.628308663698245 10.204668881272045 -1.1073494489754865 -0.7411099447176979 -0.35256792030796696
