# total energy = -340894.8487932386 ev
CRYSTAL
PRIMVEC
9.05703968195191 0.00000000000000 0.00000000000000
0.00000000000000 9.05703968195191 0.00000000000000
0.00000000000000 0.00000000000000 13.25589307414262
PRIMCOORD
 96 1
Ni 6.395220787451086 1.8733942523555738 11.424736947566013 0.32175222047869106 0.6663265810582202 -0.10087928941558111
Ni 4.638236662174499 0.4089090250826706 6.091652375924028 0.3423300446300427 0.23123396258245982 -0.1925771694422103
Ni 2.8321543264493654 1.6208477664401844 4.803312073219941 -0.4389451594526312 -0.4049037535972058 -0.36011205120381207
Ni 3.682266156208019 4.07935393349924 4.9232653141021885 -0.752219424367298 0.9389884717681635 0.12917402259521626
Ni 5.187926495884757 4.264253392327338 2.997899958408511 0.3135100350745569 0.3836643846024554 -1.1233568801473364
Ni 7.182096368297773 6.000813893814683 2.619364620571783 0.5753352401803125 -0.11466297346323477 -0.3913825791823195
Ni 4.964434992282399 4.5958497179023725 11.468667211347537 1.0076276702031164 -0.31769501969018193 -0.4610787581268768
Ni 5.481139088591142 7.8520908560180045 12.428765010156926 -0.12854384521038506 0.3389636992609711 0.3594492208088326
Ni 1.7172327794624038 6.542750901820465 0.36444530168199557 1.1697331534190307 0.20603818004312255 0.3227582931457022
Ni 2.8044941281999893 1.5879344853536643 0.4567383443148675 -0.12187903159569977 -0.30662590636021386 -0.5279642070955165
Ni 0.3829107935584945 8.973678383984515 4.72510272681424 0.897170507291113 0.66133169894679 -0.3544522818148734
Ni 8.697393397868858 2.2120007264063823 1.1652261550801786 0.2429517652400203 0.7603819055734323 0.6729294310867184
Ni 7.004976906292273 0.6045917949899127 4.8968993667794125 -1.200341622333507 -0.4492390851794715 -0.4631119865068218
Ni 0.8700291650468662 7.304456970245733 2.6219621794643566 -0.07579792096692108 0.8360114192832893 -0.5840011433854265
Ni 7.588648751735228 3.8160657988858286 3.7511521862817263 0.8763006058206393 0.1058371476414887 0.31379362775324665
Ni 7.636044238781392 3.823347658542835 12.772052162156417 0.25106796658925146 -0.16529082292243147 -1.146557743743832
Ni 7.826233008604132 8.956397552858185 7.027293451310761 -0.3406801677314455 -0.3072190598595225 -0.0004448008469024598
Ni 6.976465346341705 0.7366081066149057 0.31728529765956576 -0.6937468820527021 -1.0184702693445749 0.16750762806809216
Ni 1.775795596057186 6.729570452995933 9.2296140140338 0.6219323712135612 -0.520993175094322 -0.9459829008081257
Ni 0.21100094060114175 4.888971740215012 1.352008572394211 -0.3481402235539166 -1.1185358046096092 0.8877404722264647
Ni 6.309722335756878 2.2267637005866323 7.224647244982577 0.1344733233209426 -0.8272195320232723 -0.5052585379678848
Ni 3.2418857307072306 4.151511366194977 0.3347536095009448 -0.4204046774462824 0.9718173453727263 0.4517022020079834
Ni 6.042530617173106 5.6097762188255516 4.886692083404479 -0.5895848081207911 1.5508467465751743 -0.11886724135256947
Ni 5.283279006418297 3.0030153742471644 9.417145448504092 0.07713772282426715 -0.5576442506584525 0.06593439790927999
P 0.10891904981243301 5.488946256531862 12.476061775473909 0.211619530785642 0.2664814729308443 -0.7262124587805752
P 4.0210265999281924 6.05870648949576 12.684762228073957 -0.5981730640104344 1.204858536367254 0.831851888588961
P 2.3994633273774313 8.525110394889282 1.3161182424653304 0.7531936153551092 -0.36462716546534624 0.10869364325367734
P 6.278937458923339 7.737464965695771 5.870093644524164 0.05596237429823265 0.2563137883692231 -0.14357477140157854
P 4.80804709340487 1.0629613120961072 12.727897283798407 -0.41588390675779335 -1.0337711613677034 -0.7863176516025877
P 4.057689495315708 6.122739757872671 8.223319880191417 -0.46683237278120243 1.3009000380745597 -0.24824720931100475
P 4.7244053347824115 0.9905321682191395 3.8107773935951244 0.7413153758602845 -0.9280998498801177 0.727895760020269
P 0.24730698863730693 5.588945028264463 3.645648546017375 -0.8798721252219814 -1.0616799719628296 -0.14662050020643783
Ni 1.381289074987665 1.010982963126504 2.390024080941446 -0.1597578089193442 0.937670010067056 1.505948343400587
Ni 1.9950846333898289 6.384334226123073 4.691896903355927 0.6548987988372528 0.9644202815777068 0.6652390044209961
Ni 6.027006851685408 5.6801584718039075 9.300943633330716 -0.7320560620455457 0.07178520026310217 0.01610770419514
Ni 8.636539150312357 2.2221264964269465 10.064350613750493 0.21795215787188915 1.1325912542614107 0.4633073903470795
Ni 2.409643439634242 5.42639834261235 6.783080347323745 -0.450183965591244 -0.7825648694283749 1.6500645891279326
Ni 0.23309739956283215 -0.043868675913777806 8.978427895432443 2.0346005777020633 1.3108355520207167 0.23556241475448464
Ni 1.548382394405719 1.3176543163432262 11.357993813008285 -0.32860061085909215 -0.893775365566635 0.18004921217852862
Ni 4.178021320443806 6.932466249060936 1.8173302729241845 -0.1783805662268541 -0.7416534759259937 -1.9920922720262078
Ni 5.631993136410921 7.776183809021273 8.097719575259237 -0.292328001680303 0.5555508584645336 -0.021238083443169874
Ni 5.631784824505309 2.760975054006063 4.9215417595092426 -0.5564129493545127 -0.6773334736916851 0.09951120542346088
Ni 0.7939799225319563 7.703383326529955 6.794692377505645 0.09388331771372219 -1.1607756871154267 0.6284622019122789
Ni 5.219444992907621 4.479602617532123 7.277803009070851 -0.43186716955992716 0.40587794458501714 -0.4782848375925182
Ni 8.156253409328022 7.09763947613162 9.11716453027323 -0.5777289372234696 -0.7024338683037387 0.62802845680897
Ni 4.438583286205527 0.24109295392254046 10.466534787097682 0.25074940690756814 0.6690246967156736 -0.3470922419053764
Ni 8.199437373065097 7.016895970108966 4.902838067497197 -0.17292031444323125 0.3610379054521911 -0.9731345215222531
Ni 7.441671116767686 6.1885300918882145 6.992191989511389 -0.7940913820107357 -0.4203499129489471 0.28102414663170955
Ni 2.418464995984894 5.272727555547137 2.5960472727024246 0.4509470690095137 -0.04444126103251056 0.04173157541083135
Ni 2.355754055356643 5.387253818436252 11.527046170043018 -0.8658542136763345 -0.4332519657225958 -0.4993779108173916
Ni 0.9906770808491295 3.4061623108798504 3.8779190378853254 -0.1405696660266676 -0.23624504264380602 -0.7416287933356454
Ni 3.8489609658935997 2.4012656782129342 2.4978870799628257 -0.3429676782140416 0.7070628824353177 0.10992880121235908
Ni 1.0797077778993476 3.3760838831175133 8.151711304081768 -0.6692208718868797 0.8591526332864431 -0.3436932435261565
Ni 3.387260269705506 2.908867449950418 7.279128959635261 0.7057544480365394 0.1007299083219104 -0.6119312941367913
Ni 4.137364270692185 7.0150483340765915 6.1610736770247625 0.10090191512340042 -0.13197549659975336 -1.022039731863388
Ni 0.6816436517635672 7.317154939448622 11.292681690671708 0.06632340581758256 -1.0011232934256953 0.5711813659129389
P 0.3574768155873427 5.702311990113657 7.870885118423793 0.24512100497719716 -0.3565292189485602 0.7941142648288712
P 8.450290192617475 1.8135906213665005 7.922132564315883 0.16749194433880832 -0.5839157827604717 0.8444790904346683
P 1.9471819521386993 3.447589208978294 10.464215279313903 -0.39486976639997157 -1.2286499823598966 -0.9648931074490672
P 4.201171113084738 6.067845042224516 3.801220405647272 -1.0933575055717688 0.004611273519766252 0.5065718574626695
P 6.952464191999581 3.9591126787648867 10.509894457398621 0.24454867741349495 0.25214577303446256 0.18242645416145356
P 6.296480944191526 7.908996234407274 10.273661510804377 -0.03429003153112159 -0.4382273074500001 -0.03233470757696367
P 2.3778079462332737 8.546702376757818 5.6119082458942815 0.6826309746451986 0.17410096501489372 0.4682503361746516
P 6.967046025392343 3.7888131674083 1.5913172895599976 -0.1633072168334994 0.12815329464018574 0.4370852234257569
Ni 5.195760834943602 2.954940609247922 0.36038412522652075 1.3070760849782843 -0.5471904023149803 0.6469142379698795
Ni 1.4535733062346423 1.1574624609284545 6.957090527712017 -0.5569760209468342 0.45220742377917605 -0.5826777965883126
Ni 6.8252580739863244 0.7842734934344263 9.243904210758707 -1.1278560535692705 -0.2584845707682968 -0.4777922142268159
Ni 2.526642274272565 1.700613112210405 9.175821540077505 0.6083379203585781 -0.5466476424376328 0.6306224427883913
Ni 6.458574777874918 1.878765076704585 2.743373603685881 0.23363357316288796 -0.05862809405585387 -1.0676845262856967
Ni 3.974799470961324 6.839305542055998 10.521785444393254 0.7758733163408121 0.4262385105192401 -0.7300799121557813
Ni 8.273360928438837 7.077831731019837 0.5275544294792571 -0.6899673604056117 0.2653530157533559 -0.39213642662920856
Ni 7.513457210849072 4.042799722584217 8.342887291196314 1.3072527197654649 -0.3172371062171569 -0.15922919010938386
Ni 2.821774959326319 8.351885459814769 12.333693267843993 1.1559551257983318 -0.08875602378948584 0.33798693716999856
Ni 9.323588043174558 4.738081464237735 10.136688281529782 -1.0636514938669035 0.8866503244860795 0.32196202249665196
Ni 8.4248580260542 2.3743391001528837 5.85524734558167 0.5882666035299997 0.5366223969911468 -0.8315317862453808
Ni 3.653039090146874 2.6694989563247606 11.605918491730925 0.0317711217640098 -0.5415352609117319 -0.3975933359787217
Ni 1.149410752924625 3.3888090234385264 12.444711739383408 -1.1818173382770742 0.5021451891498836 1.2486827326410561
Ni 3.0803443764256753 8.639854026723382 7.943408455510255 0.3341354246343923 -0.5977573166292544 0.3199218521381716
Ni 5.7956266667879595 7.860532016714933 3.5089406879964495 -0.3515651900750655 0.4287602484998293 0.6810525744144851
Ni 3.1232294578633946 8.299925224923914 3.4154466819425338 -0.05449453150345453 0.5535135163195306 1.3125569055871977
Ni 3.482150871230952 4.446399511185622 9.350401408242428 -0.4956431263653077 0.2012477006330147 0.028775786581111733
Ni 7.1278809306026965 6.121181947100277 11.359743633015418 1.1297591841292542 -0.18651810773232394 1.0515071451948859
Ni 0.677271818857551 8.99130338260707 0.12521900357451615 -1.0957943971480353 0.29858092456855034 -0.22380321733602748
Ni 4.762037333382987 0.3171992557855091 1.6501998196446954 0.03819965099817292 -0.6870352743604813 -0.8459811289014914
Ni 5.832796756380441 5.313792172070604 0.4886308970638943 0.00721451547056822 1.5818668491057726 0.1141387255286486
Ni 8.153491012318835 8.892137858496914 11.141339468429651 -1.139358397781915 0.2760912281064664 0.38032914958163533
Ni 9.194978084058272 4.836187314741088 5.840771479549588 -0.24267588587081435 -0.40868996011251557 -0.32779971222435156
Ni 8.153047217389489 8.870083967620284 2.414746175617771 -0.9317713851944339 -0.5370651409555203 -0.3599647269926704
P 8.491436322495312 1.565101689090836 3.594096783602305 0.5951088232628138 0.8542893916568706 0.044994305322503154
P 1.9899855202220493 3.313572197355499 1.9195199424814486 -0.9722480051522417 -1.498710430891251 -1.4985767335268643
P 4.59382094108251 1.2993681538463402 8.210501452364847 -0.10056818593306552 -1.175486253852724 0.4655727893424885
P 8.567560738437031 1.6124337768613792 12.274015529702224 0.14338322421606275 0.5077360529740997 0.75259120588442
P 6.231976709767146 7.58656563267912 1.2436583046544896 1.3521421240789875 0.25703858235038957 0.7594622219726404
P 1.7806592262012317 3.3032381154293238 5.878603638720337 0.31049644505921364 -0.3039231627170701 0.7911991480646051
P 6.929866878760487 4.111732849262672 5.992630858739925 1.344827335585129 -0.6165687929088026 1.1019750720374504
P 2.2373966648121617 8.614983396601318 10.238387059552954 0.08154587919429182 0.3570699219433786 -1.0891586369990727
